MODEL 1
REMARK VINA RESULT:      -6.8      0.000      0.000
REMARK  Name = 
REMARK  14 active torsions:
REMARK  status: ('A' for Active; 'I' for Inactive)
REMARK    1  A    between atoms: C_1  and  O_2
REMARK    2  A    between atoms: O_2  and  C_3
REMARK    3  A    between atoms: C_8  and  N_9
REMARK    4  A    between atoms: N_12  and  C_13
REMARK    5  A    between atoms: C_13  and  C_14
REMARK    6  A    between atoms: C_13  and  C_27
REMARK    7  A    between atoms: C_14  and  N_15
REMARK    8  A    between atoms: C_16  and  C_18
REMARK    9  A    between atoms: N_20  and  C_21
REMARK   10  A    between atoms: C_21  and  C_22
REMARK   11  A    between atoms: C_22  and  C_23
REMARK   12  A    between atoms: C_23  and  N_24
REMARK   13  A    between atoms: N_24  and  C_25
REMARK   14  A    between atoms: N_24  and  C_26
REMARK                            x       y       z     vdW  Elec       q    Type
REMARK                         _______ _______ _______ _____ _____    ______ ____
ROOT
ATOM      1  C   UNL     1       2.371   5.963  18.577  0.00  0.00    +0.000 C 
ENDROOT
BRANCH   1   5
ATOM      2  N   UNL     1       0.826   9.296  18.810  0.00  0.00    +0.000 N 
ATOM      3  C   UNL     1       1.764   8.916  17.745  0.00  0.00    +0.000 C 
ATOM      4  C   UNL     1       3.068   8.351  18.361  0.00  0.00    +0.000 C 
ATOM      5  N   UNL     1       2.871   7.190  19.280  0.00  0.00    +0.000 NA
ATOM      6  C   UNL     1       1.940   7.686  20.338  0.00  0.00    +0.000 C 
ATOM      7  C   UNL     1       0.593   8.267  19.840  0.00  0.00    +0.000 C 
BRANCH   2  13
ATOM      8  C   UNL     1      -1.029  10.806  18.132  0.00  0.00    +0.000 A 
ATOM      9  C   UNL     1      -1.617  12.085  18.198  0.00  0.00    +0.000 A 
ATOM     10  C   UNL     1      -1.061  13.095  18.970  0.00  0.00    +0.000 A 
ATOM     11  C   UNL     1       0.103  12.844  19.674  0.00  0.00    +0.000 A 
ATOM     12  C   UNL     1       0.702  11.581  19.605  0.00  0.00    +0.000 A 
ATOM     13  C   UNL     1       0.170  10.521  18.837  0.00  0.00    +0.000 A 
BRANCH   8  15
ATOM     14  C   UNL     1      -2.505  10.349  16.338  0.00  0.00    +0.000 C 
ATOM     15  O   UNL     1      -1.571   9.850  17.295  0.00  0.00    +0.000 OA
ENDBRANCH   8  15
ENDBRANCH   2  13
ENDBRANCH   1   5
BRANCH   1  16
ATOM     16  C   UNL     1       2.003   4.823  19.531  0.00  0.00    +0.000 A 
ATOM     17  C   UNL     1       1.123   3.793  19.175  0.00  0.00    +0.000 A 
ATOM     18  C   UNL     1       0.812   2.785  20.083  0.00  0.00    +0.000 A 
ATOM     19  C   UNL     1       1.385   2.835  21.340  0.00  0.00    +0.000 A 
ATOM     20  N   UNL     1       2.242   3.803  21.730  0.00  0.00    +0.000 NA
ATOM     21  C   UNL     1       2.528   4.770  20.824  0.00  0.00    +0.000 A 
ENDBRANCH   1  16
BRANCH   1  22
ATOM     22  C   UNL     1       3.369   5.421  17.490  0.00  0.00    +0.000 C 
BRANCH  22  23
ATOM     23  N   UNL     1       4.759   5.807  17.660  0.00  0.00    +0.000 N 
ATOM     24  C   UNL     1       5.487   6.436  16.677  0.00  0.00    +0.000 C 
ATOM     25  O   UNL     1       5.066   6.752  15.566  0.00  0.00    +0.000 OA
ATOM     26  H   UNL     1       5.253   5.575  18.519  0.00  0.00    +0.000 HD
BRANCH  24  27
ATOM     27  C   UNL     1       6.955   6.732  17.069  0.00  0.00    +0.000 C 
ATOM     28  O   UNL     1       7.774   5.825  17.062  0.00  0.00    +0.000 OA
ATOM     29  N   UNL     1       7.209   8.050  17.392  0.00  0.00    +0.000 N 
ATOM     30  H   UNL     1       6.441   8.707  17.291  0.00  0.00    +0.000 HD
BRANCH  29  31
ATOM     31  C   UNL     1       8.532   8.516  17.764  0.00  0.00    +0.000 C 
BRANCH  31  32
ATOM     32  C   UNL     1       8.461   9.812  18.567  0.00  0.00    +0.000 C 
BRANCH  32  33
ATOM     33  C   UNL     1       9.493  10.852  18.105  0.00  0.00    +0.000 C 
BRANCH  33  34
ATOM     34  N   UNL     1      10.040  11.689  19.186  0.00  0.00    +0.000 NA
ATOM     35  C   UNL     1       9.515  11.309  20.501  0.00  0.00    +0.000 C 
ATOM     36  C   UNL     1      11.502  11.617  19.200  0.00  0.00    +0.000 C 
ENDBRANCH  33  34
ENDBRANCH  32  33
ENDBRANCH  31  32
ENDBRANCH  29  31
ENDBRANCH  24  27
ENDBRANCH  22  23
ENDBRANCH   1  22
TORSDOF 11
ENDMDL
MODEL 2
REMARK VINA RESULT:      -6.8      4.635      8.818
REMARK  Name = 
REMARK  14 active torsions:
REMARK  status: ('A' for Active; 'I' for Inactive)
REMARK    1  A    between atoms: C_1  and  O_2
REMARK    2  A    between atoms: O_2  and  C_3
REMARK    3  A    between atoms: C_8  and  N_9
REMARK    4  A    between atoms: N_12  and  C_13
REMARK    5  A    between atoms: C_13  and  C_14
REMARK    6  A    between atoms: C_13  and  C_27
REMARK    7  A    between atoms: C_14  and  N_15
REMARK    8  A    between atoms: C_16  and  C_18
REMARK    9  A    between atoms: N_20  and  C_21
REMARK   10  A    between atoms: C_21  and  C_22
REMARK   11  A    between atoms: C_22  and  C_23
REMARK   12  A    between atoms: C_23  and  N_24
REMARK   13  A    between atoms: N_24  and  C_25
REMARK   14  A    between atoms: N_24  and  C_26
REMARK                            x       y       z     vdW  Elec       q    Type
REMARK                         _______ _______ _______ _____ _____    ______ ____
ROOT
ATOM      1  C   UNL     1       0.747   9.691  19.779  0.00  0.00    +0.000 C 
ENDROOT
BRANCH   1   5
ATOM      2  N   UNL     1      -1.066  11.797  22.192  0.00  0.00    +0.000 N 
ATOM      3  C   UNL     1      -0.498  12.314  20.940  0.00  0.00    +0.000 C 
ATOM      4  C   UNL     1       1.001  11.937  20.839  0.00  0.00    +0.000 C 
ATOM      5  N   UNL     1       1.283  10.473  20.940  0.00  0.00    +0.000 NA
ATOM      6  C   UNL     1       0.703  10.056  22.252  0.00  0.00    +0.000 C 
ATOM      7  C   UNL     1      -0.798  10.374  22.465  0.00  0.00    +0.000 C 
BRANCH   2  13
ATOM      8  C   UNL     1      -1.452  13.854  23.535  0.00  0.00    +0.000 A 
ATOM      9  C   UNL     1      -2.284  14.567  24.421  0.00  0.00    +0.000 A 
ATOM     10  C   UNL     1      -3.508  14.057  24.828  0.00  0.00    +0.000 A 
ATOM     11  C   UNL     1      -3.910  12.816  24.368  0.00  0.00    +0.000 A 
ATOM     12  C   UNL     1      -3.086  12.094  23.496  0.00  0.00    +0.000 A 
ATOM     13  C   UNL     1      -1.834  12.575  23.051  0.00  0.00    +0.000 A 
BRANCH   8  15
ATOM     14  C   UNL     1      -0.229  15.639  22.575  0.00  0.00    +0.000 C 
ATOM     15  O   UNL     1      -0.209  14.362  23.211  0.00  0.00    +0.000 OA
ENDBRANCH   8  15
ENDBRANCH   2  13
ENDBRANCH   1   5
BRANCH   1  16
ATOM     16  C   UNL     1       1.618   8.489  19.401  0.00  0.00    +0.000 A 
ATOM     17  C   UNL     1       2.337   8.423  18.201  0.00  0.00    +0.000 A 
ATOM     18  C   UNL     1       3.105   7.303  17.899  0.00  0.00    +0.000 A 
ATOM     19  C   UNL     1       3.128   6.260  18.806  0.00  0.00    +0.000 A 
ATOM     20  N   UNL     1       2.457   6.276  19.977  0.00  0.00    +0.000 NA
ATOM     21  C   UNL     1       1.718   7.381  20.245  0.00  0.00    +0.000 A 
ENDBRANCH   1  16
BRANCH   1  22
ATOM     22  C   UNL     1       0.503  10.570  18.498  0.00  0.00    +0.000 C 
BRANCH  22  23
ATOM     23  N   UNL     1      -0.811  10.448  17.890  0.00  0.00    +0.000 N 
ATOM     24  C   UNL     1      -1.587  11.535  17.561  0.00  0.00    +0.000 C 
ATOM     25  O   UNL     1      -1.274  12.713  17.723  0.00  0.00    +0.000 OA
ATOM     26  H   UNL     1      -1.218   9.529  17.731  0.00  0.00    +0.000 HD
BRANCH  24  27
ATOM     27  C   UNL     1      -2.960  11.169  16.948  0.00  0.00    +0.000 C 
ATOM     28  O   UNL     1      -3.006  10.452  15.960  0.00  0.00    +0.000 OA
ATOM     29  N   UNL     1      -4.047  11.703  17.613  0.00  0.00    +0.000 N 
ATOM     30  H   UNL     1      -3.858  12.230  18.460  0.00  0.00    +0.000 HD
BRANCH  29  31
ATOM     31  C   UNL     1      -5.413  11.450  17.193  0.00  0.00    +0.000 C 
BRANCH  31  32
ATOM     32  C   UNL     1      -6.417  11.985  18.211  0.00  0.00    +0.000 C 
BRANCH  32  33
ATOM     33  C   UNL     1      -5.875  13.182  19.005  0.00  0.00    +0.000 C 
BRANCH  33  34
ATOM     34  N   UNL     1      -5.156  12.820  20.237  0.00  0.00    +0.000 NA
ATOM     35  C   UNL     1      -4.276  13.897  20.703  0.00  0.00    +0.000 C 
ATOM     36  C   UNL     1      -6.101  12.464  21.297  0.00  0.00    +0.000 C 
ENDBRANCH  33  34
ENDBRANCH  32  33
ENDBRANCH  31  32
ENDBRANCH  29  31
ENDBRANCH  24  27
ENDBRANCH  22  23
ENDBRANCH   1  22
TORSDOF 11
ENDMDL
MODEL 3
REMARK VINA RESULT:      -6.8      0.916      1.092
REMARK  Name = 
REMARK  14 active torsions:
REMARK  status: ('A' for Active; 'I' for Inactive)
REMARK    1  A    between atoms: C_1  and  O_2
REMARK    2  A    between atoms: O_2  and  C_3
REMARK    3  A    between atoms: C_8  and  N_9
REMARK    4  A    between atoms: N_12  and  C_13
REMARK    5  A    between atoms: C_13  and  C_14
REMARK    6  A    between atoms: C_13  and  C_27
REMARK    7  A    between atoms: C_14  and  N_15
REMARK    8  A    between atoms: C_16  and  C_18
REMARK    9  A    between atoms: N_20  and  C_21
REMARK   10  A    between atoms: C_21  and  C_22
REMARK   11  A    between atoms: C_22  and  C_23
REMARK   12  A    between atoms: C_23  and  N_24
REMARK   13  A    between atoms: N_24  and  C_25
REMARK   14  A    between atoms: N_24  and  C_26
REMARK                            x       y       z     vdW  Elec       q    Type
REMARK                         _______ _______ _______ _____ _____    ______ ____
ROOT
ATOM      1  C   UNL     1       2.599   5.600  18.519  0.00  0.00    +0.000 C 
ENDROOT
BRANCH   1   5
ATOM      2  N   UNL     1       1.082   8.937  18.842  0.00  0.00    +0.000 N 
ATOM      3  C   UNL     1       1.879   8.524  17.679  0.00  0.00    +0.000 C 
ATOM      4  C   UNL     1       3.253   7.979  18.141  0.00  0.00    +0.000 C 
ATOM      5  N   UNL     1       3.179   6.848  19.114  0.00  0.00    +0.000 NA
ATOM      6  C   UNL     1       2.388   7.377  20.265  0.00  0.00    +0.000 C 
ATOM      7  C   UNL     1       0.986   7.942  19.926  0.00  0.00    +0.000 C 
BRANCH   2  13
ATOM      8  C   UNL     1      -0.754  10.486  18.201  0.00  0.00    +0.000 A 
ATOM      9  C   UNL     1      -1.340  11.763  18.316  0.00  0.00    +0.000 A 
ATOM     10  C   UNL     1      -0.795  12.733  19.144  0.00  0.00    +0.000 A 
ATOM     11  C   UNL     1       0.355  12.445  19.857  0.00  0.00    +0.000 A 
ATOM     12  C   UNL     1       0.952  11.184  19.741  0.00  0.00    +0.000 A 
ATOM     13  C   UNL     1       0.430  10.163  18.914  0.00  0.00    +0.000 A 
BRANCH   8  15
ATOM     14  C   UNL     1      -2.509   9.972  16.696  0.00  0.00    +0.000 C 
ATOM     15  O   UNL     1      -1.284   9.572  17.311  0.00  0.00    +0.000 OA
ENDBRANCH   8  15
ENDBRANCH   2  13
ENDBRANCH   1   5
BRANCH   1  16
ATOM     16  C   UNL     1       2.347   4.495  19.550  0.00  0.00    +0.000 A 
ATOM     17  C   UNL     1       1.066   4.168  20.011  0.00  0.00    +0.000 A 
ATOM     18  C   UNL     1       0.891   3.163  20.958  0.00  0.00    +0.000 A 
ATOM     19  C   UNL     1       2.012   2.508  21.432  0.00  0.00    +0.000 A 
ATOM     20  N   UNL     1       3.267   2.782  21.016  0.00  0.00    +0.000 NA
ATOM     21  C   UNL     1       3.406   3.765  20.093  0.00  0.00    +0.000 A 
ENDBRANCH   1  16
BRANCH   1  22
ATOM     22  C   UNL     1       3.461   5.015  17.341  0.00  0.00    +0.000 C 
BRANCH  22  23
ATOM     23  N   UNL     1       4.641   5.781  16.982  0.00  0.00    +0.000 N 
ATOM     24  C   UNL     1       5.889   5.518  17.496  0.00  0.00    +0.000 C 
ATOM     25  O   UNL     1       6.160   4.621  18.293  0.00  0.00    +0.000 OA
ATOM     26  H   UNL     1       4.562   6.582  16.358  0.00  0.00    +0.000 HD
BRANCH  24  27
ATOM     27  C   UNL     1       6.996   6.477  16.993  0.00  0.00    +0.000 C 
ATOM     28  O   UNL     1       7.654   6.173  16.011  0.00  0.00    +0.000 OA
ATOM     29  N   UNL     1       7.128   7.638  17.730  0.00  0.00    +0.000 N 
ATOM     30  H   UNL     1       6.465   7.784  18.485  0.00  0.00    +0.000 HD
BRANCH  29  31
ATOM     31  C   UNL     1       8.100   8.662  17.393  0.00  0.00    +0.000 C 
BRANCH  31  32
ATOM     32  C   UNL     1       8.630   9.359  18.643  0.00  0.00    +0.000 C 
BRANCH  32  33
ATOM     33  C   UNL     1       9.460  10.609  18.317  0.00  0.00    +0.000 C 
BRANCH  33  34
ATOM     34  N   UNL     1       9.696  11.500  19.465  0.00  0.00    +0.000 NA
ATOM     35  C   UNL     1       9.020  12.792  19.313  0.00  0.00    +0.000 C 
ATOM     36  C   UNL     1       9.260  10.861  20.709  0.00  0.00    +0.000 C 
ENDBRANCH  33  34
ENDBRANCH  32  33
ENDBRANCH  31  32
ENDBRANCH  29  31
ENDBRANCH  24  27
ENDBRANCH  22  23
ENDBRANCH   1  22
TORSDOF 11
ENDMDL
MODEL 4
REMARK VINA RESULT:      -6.7      3.860      7.979
REMARK  Name = 
REMARK  14 active torsions:
REMARK  status: ('A' for Active; 'I' for Inactive)
REMARK    1  A    between atoms: C_1  and  O_2
REMARK    2  A    between atoms: O_2  and  C_3
REMARK    3  A    between atoms: C_8  and  N_9
REMARK    4  A    between atoms: N_12  and  C_13
REMARK    5  A    between atoms: C_13  and  C_14
REMARK    6  A    between atoms: C_13  and  C_27
REMARK    7  A    between atoms: C_14  and  N_15
REMARK    8  A    between atoms: C_16  and  C_18
REMARK    9  A    between atoms: N_20  and  C_21
REMARK   10  A    between atoms: C_21  and  C_22
REMARK   11  A    between atoms: C_22  and  C_23
REMARK   12  A    between atoms: C_23  and  N_24
REMARK   13  A    between atoms: N_24  and  C_25
REMARK   14  A    between atoms: N_24  and  C_26
REMARK                            x       y       z     vdW  Elec       q    Type
REMARK                         _______ _______ _______ _____ _____    ______ ____
ROOT
ATOM      1  C   UNL     1       0.888  12.422  19.604  0.00  0.00    +0.000 C 
ENDROOT
BRANCH   1   5
ATOM      2  N   UNL     1      -2.269  12.736  21.470  0.00  0.00    +0.000 N 
ATOM      3  C   UNL     1      -1.967  11.604  20.583  0.00  0.00    +0.000 C 
ATOM      4  C   UNL     1      -1.554  12.121  19.183  0.00  0.00    +0.000 C 
ATOM      5  N   UNL     1      -0.398  13.067  19.183  0.00  0.00    +0.000 NA
ATOM      6  C   UNL     1      -0.816  14.189  20.076  0.00  0.00    +0.000 C 
ATOM      7  C   UNL     1      -1.243  13.794  21.512  0.00  0.00    +0.000 C 
BRANCH   2  13
ATOM      8  C   UNL     1      -4.700  13.166  21.759  0.00  0.00    +0.000 A 
ATOM      9  C   UNL     1      -5.812  13.226  22.623  0.00  0.00    +0.000 A 
ATOM     10  C   UNL     1      -5.697  12.907  23.968  0.00  0.00    +0.000 A 
ATOM     11  C   UNL     1      -4.462  12.540  24.472  0.00  0.00    +0.000 A 
ATOM     12  C   UNL     1      -3.349  12.489  23.625  0.00  0.00    +0.000 A 
ATOM     13  C   UNL     1      -3.420  12.800  22.248  0.00  0.00    +0.000 A 
BRANCH   8  15
ATOM     14  C   UNL     1      -6.088  13.218  19.840  0.00  0.00    +0.000 C 
ATOM     15  O   UNL     1      -4.840  13.561  20.442  0.00  0.00    +0.000 OA
ENDBRANCH   8  15
ENDBRANCH   2  13
ENDBRANCH   1   5
BRANCH   1  16
ATOM     16  C   UNL     1       2.110  13.329  19.430  0.00  0.00    +0.000 A 
ATOM     17  C   UNL     1       2.889  13.765  20.509  0.00  0.00    +0.000 A 
ATOM     18  C   UNL     1       3.983  14.599  20.298  0.00  0.00    +0.000 A 
ATOM     19  C   UNL     1       4.271  14.988  19.003  0.00  0.00    +0.000 A 
ATOM     20  N   UNL     1       3.554  14.592  17.929  0.00  0.00    +0.000 NA
ATOM     21  C   UNL     1       2.495  13.779  18.165  0.00  0.00    +0.000 A 
ENDBRANCH   1  16
BRANCH   1  22
ATOM     22  C   UNL     1       1.160  11.051  18.883  0.00  0.00    +0.000 C 
BRANCH  22  23
ATOM     23  N   UNL     1       1.201   9.882  19.745  0.00  0.00    +0.000 N 
ATOM     24  C   UNL     1       1.791   8.697  19.371  0.00  0.00    +0.000 C 
ATOM     25  O   UNL     1       2.351   8.484  18.297  0.00  0.00    +0.000 OA
ATOM     26  H   UNL     1       0.743   9.899  20.654  0.00  0.00    +0.000 HD
BRANCH  24  27
ATOM     27  C   UNL     1       1.695   7.579  20.438  0.00  0.00    +0.000 C 
ATOM     28  O   UNL     1       1.228   7.835  21.537  0.00  0.00    +0.000 OA
ATOM     29  N   UNL     1       2.156   6.346  20.020  0.00  0.00    +0.000 N 
ATOM     30  H   UNL     1       2.458   6.268  19.054  0.00  0.00    +0.000 HD
BRANCH  29  31
ATOM     31  C   UNL     1       2.125   5.176  20.879  0.00  0.00    +0.000 C 
BRANCH  31  32
ATOM     32  C   UNL     1       1.100   4.155  20.393  0.00  0.00    +0.000 C 
BRANCH  32  33
ATOM     33  C   UNL     1       1.641   3.264  19.264  0.00  0.00    +0.000 C 
BRANCH  33  34
ATOM     34  N   UNL     1       3.066   3.467  18.959  0.00  0.00    +0.000 NA
ATOM     35  C   UNL     1       3.897   2.351  19.419  0.00  0.00    +0.000 C 
ATOM     36  C   UNL     1       3.260   3.665  17.521  0.00  0.00    +0.000 C 
ENDBRANCH  33  34
ENDBRANCH  32  33
ENDBRANCH  31  32
ENDBRANCH  29  31
ENDBRANCH  24  27
ENDBRANCH  22  23
ENDBRANCH   1  22
TORSDOF 11
ENDMDL
MODEL 5
REMARK VINA RESULT:      -6.6      1.117      1.811
REMARK  Name = 
REMARK  14 active torsions:
REMARK  status: ('A' for Active; 'I' for Inactive)
REMARK    1  A    between atoms: C_1  and  O_2
REMARK    2  A    between atoms: O_2  and  C_3
REMARK    3  A    between atoms: C_8  and  N_9
REMARK    4  A    between atoms: N_12  and  C_13
REMARK    5  A    between atoms: C_13  and  C_14
REMARK    6  A    between atoms: C_13  and  C_27
REMARK    7  A    between atoms: C_14  and  N_15
REMARK    8  A    between atoms: C_16  and  C_18
REMARK    9  A    between atoms: N_20  and  C_21
REMARK   10  A    between atoms: C_21  and  C_22
REMARK   11  A    between atoms: C_22  and  C_23
REMARK   12  A    between atoms: C_23  and  N_24
REMARK   13  A    between atoms: N_24  and  C_25
REMARK   14  A    between atoms: N_24  and  C_26
REMARK                            x       y       z     vdW  Elec       q    Type
REMARK                         _______ _______ _______ _____ _____    ______ ____
ROOT
ATOM      1  C   UNL     1       2.322   6.031  18.558  0.00  0.00    +0.000 C 
ENDROOT
BRANCH   1   5
ATOM      2  N   UNL     1       0.634   9.292  18.804  0.00  0.00    +0.000 N 
ATOM      3  C   UNL     1       1.561   8.945  17.719  0.00  0.00    +0.000 C 
ATOM      4  C   UNL     1       2.904   8.445  18.304  0.00  0.00    +0.000 C 
ATOM      5  N   UNL     1       2.784   7.285  19.238  0.00  0.00    +0.000 NA
ATOM      6  C   UNL     1       1.859   7.748  20.315  0.00  0.00    +0.000 C 
ATOM      7  C   UNL     1       0.474   8.264  19.848  0.00  0.00    +0.000 C 
BRANCH   2  13
ATOM      8  C   UNL     1       0.517  11.770  18.969  0.00  0.00    +0.000 A 
ATOM      9  C   UNL     1      -0.281  12.931  19.017  0.00  0.00    +0.000 A 
ATOM     10  C   UNL     1      -1.663  12.861  18.913  0.00  0.00    +0.000 A 
ATOM     11  C   UNL     1      -2.268  11.624  18.779  0.00  0.00    +0.000 A 
ATOM     12  C   UNL     1      -1.486  10.463  18.742  0.00  0.00    +0.000 A 
ATOM     13  C   UNL     1      -0.076  10.487  18.839  0.00  0.00    +0.000 A 
BRANCH   8  15
ATOM     14  C   UNL     1       2.530  12.818  18.295  0.00  0.00    +0.000 C 
ATOM     15  O   UNL     1       1.883  11.875  19.149  0.00  0.00    +0.000 OA
ENDBRANCH   8  15
ENDBRANCH   2  13
ENDBRANCH   1   5
BRANCH   1  16
ATOM     16  C   UNL     1       1.997   4.894  19.532  0.00  0.00    +0.000 A 
ATOM     17  C   UNL     1       2.539   4.826  20.821  0.00  0.00    +0.000 A 
ATOM     18  C   UNL     1       2.222   3.765  21.665  0.00  0.00    +0.000 A 
ATOM     19  C   UNL     1       1.369   2.784  21.192  0.00  0.00    +0.000 A 
ATOM     20  N   UNL     1       0.818   2.807  19.960  0.00  0.00    +0.000 NA
ATOM     21  C   UNL     1       1.145   3.853  19.161  0.00  0.00    +0.000 A 
ENDBRANCH   1  16
BRANCH   1  22
ATOM     22  C   UNL     1       3.333   5.504  17.474  0.00  0.00    +0.000 C 
BRANCH  22  23
ATOM     23  N   UNL     1       4.720   5.893  17.663  0.00  0.00    +0.000 N 
ATOM     24  C   UNL     1       5.497   6.408  16.651  0.00  0.00    +0.000 C 
ATOM     25  O   UNL     1       5.126   6.608  15.496  0.00  0.00    +0.000 OA
ATOM     26  H   UNL     1       5.175   5.749  18.562  0.00  0.00    +0.000 HD
BRANCH  24  27
ATOM     27  C   UNL     1       6.951   6.730  17.072  0.00  0.00    +0.000 C 
ATOM     28  O   UNL     1       7.786   5.839  17.080  0.00  0.00    +0.000 OA
ATOM     29  N   UNL     1       7.174   8.053  17.401  0.00  0.00    +0.000 N 
ATOM     30  H   UNL     1       6.396   8.696  17.286  0.00  0.00    +0.000 HD
BRANCH  29  31
ATOM     31  C   UNL     1       8.481   8.542  17.800  0.00  0.00    +0.000 C 
BRANCH  31  32
ATOM     32  C   UNL     1       8.394   9.951  18.383  0.00  0.00    +0.000 C 
BRANCH  32  33
ATOM     33  C   UNL     1       9.672  10.769  18.145  0.00  0.00    +0.000 C 
BRANCH  33  34
ATOM     34  N   UNL     1      10.098  11.580  19.297  0.00  0.00    +0.000 NA
ATOM     35  C   UNL     1       9.810  13.005  19.109  0.00  0.00    +0.000 C 
ATOM     36  C   UNL     1       9.455  11.106  20.524  0.00  0.00    +0.000 C 
ENDBRANCH  33  34
ENDBRANCH  32  33
ENDBRANCH  31  32
ENDBRANCH  29  31
ENDBRANCH  24  27
ENDBRANCH  22  23
ENDBRANCH   1  22
TORSDOF 11
ENDMDL
MODEL 6
REMARK VINA RESULT:      -6.6      3.815      7.953
REMARK  Name = 
REMARK  14 active torsions:
REMARK  status: ('A' for Active; 'I' for Inactive)
REMARK    1  A    between atoms: C_1  and  O_2
REMARK    2  A    between atoms: O_2  and  C_3
REMARK    3  A    between atoms: C_8  and  N_9
REMARK    4  A    between atoms: N_12  and  C_13
REMARK    5  A    between atoms: C_13  and  C_14
REMARK    6  A    between atoms: C_13  and  C_27
REMARK    7  A    between atoms: C_14  and  N_15
REMARK    8  A    between atoms: C_16  and  C_18
REMARK    9  A    between atoms: N_20  and  C_21
REMARK   10  A    between atoms: C_21  and  C_22
REMARK   11  A    between atoms: C_22  and  C_23
REMARK   12  A    between atoms: C_23  and  N_24
REMARK   13  A    between atoms: N_24  and  C_25
REMARK   14  A    between atoms: N_24  and  C_26
REMARK                            x       y       z     vdW  Elec       q    Type
REMARK                         _______ _______ _______ _____ _____    ______ ____
ROOT
ATOM      1  C   UNL     1      -0.237  11.728  19.338  0.00  0.00    +0.000 C 
ENDROOT
BRANCH   1   5
ATOM      2  N   UNL     1       2.486  14.204  19.317  0.00  0.00    +0.000 N 
ATOM      3  C   UNL     1       2.240  13.288  20.438  0.00  0.00    +0.000 C 
ATOM      4  C   UNL     1       0.766  13.396  20.902  0.00  0.00    +0.000 C 
ATOM      5  N   UNL     1      -0.244  13.144  19.830  0.00  0.00    +0.000 NA
ATOM      6  C   UNL     1       0.067  14.142  18.762  0.00  0.00    +0.000 C 
ATOM      7  C   UNL     1       1.514  14.122  18.212  0.00  0.00    +0.000 C 
BRANCH   2  13
ATOM      8  C   UNL     1       3.667  16.282  20.003  0.00  0.00    +0.000 A 
ATOM      9  C   UNL     1       4.801  17.111  19.883  0.00  0.00    +0.000 A 
ATOM     10  C   UNL     1       5.869  16.758  19.070  0.00  0.00    +0.000 A 
ATOM     11  C   UNL     1       5.809  15.577  18.351  0.00  0.00    +0.000 A 
ATOM     12  C   UNL     1       4.683  14.752  18.454  0.00  0.00    +0.000 A 
ATOM     13  C   UNL     1       3.575  15.068  19.273  0.00  0.00    +0.000 A 
BRANCH   8  15
ATOM     14  C   UNL     1       1.684  17.572  20.092  0.00  0.00    +0.000 C 
ATOM     15  O   UNL     1       2.594  16.703  20.765  0.00  0.00    +0.000 OA
ENDBRANCH   8  15
ENDBRANCH   2  13
ENDBRANCH   1   5
BRANCH   1  16
ATOM     16  C   UNL     1      -1.560  11.300  18.696  0.00  0.00    +0.000 A 
ATOM     17  C   UNL     1      -1.634  10.321  17.697  0.00  0.00    +0.000 A 
ATOM     18  C   UNL     1      -2.860   9.976  17.137  0.00  0.00    +0.000 A 
ATOM     19  C   UNL     1      -3.993  10.630  17.585  0.00  0.00    +0.000 A 
ATOM     20  N   UNL     1      -3.975  11.577  18.547  0.00  0.00    +0.000 NA
ATOM     21  C   UNL     1      -2.766  11.891  19.075  0.00  0.00    +0.000 A 
ENDBRANCH   1  16
BRANCH   1  22
ATOM     22  C   UNL     1       0.154  10.686  20.450  0.00  0.00    +0.000 C 
BRANCH  22  23
ATOM     23  N   UNL     1       0.927   9.542  19.999  0.00  0.00    +0.000 N 
ATOM     24  C   UNL     1       1.119   8.418  20.768  0.00  0.00    +0.000 C 
ATOM     25  O   UNL     1       0.666   8.238  21.897  0.00  0.00    +0.000 OA
ATOM     26  H   UNL     1       1.395   9.565  19.095  0.00  0.00    +0.000 HD
BRANCH  24  27
ATOM     27  C   UNL     1       1.996   7.335  20.096  0.00  0.00    +0.000 C 
ATOM     28  O   UNL     1       2.605   7.603  19.072  0.00  0.00    +0.000 OA
ATOM     29  N   UNL     1       2.014   6.121  20.755  0.00  0.00    +0.000 N 
ATOM     30  H   UNL     1       1.508   6.064  21.633  0.00  0.00    +0.000 HD
BRANCH  29  31
ATOM     31  C   UNL     1       2.798   4.994  20.282  0.00  0.00    +0.000 C 
BRANCH  31  32
ATOM     32  C   UNL     1       1.919   3.772  20.029  0.00  0.00    +0.000 C 
BRANCH  32  33
ATOM     33  C   UNL     1       1.387   3.712  18.589  0.00  0.00    +0.000 C 
BRANCH  33  34
ATOM     34  N   UNL     1       2.208   2.907  17.670  0.00  0.00    +0.000 NA
ATOM     35  C   UNL     1       3.195   3.718  16.952  0.00  0.00    +0.000 C 
ATOM     36  C   UNL     1       2.889   1.833  18.397  0.00  0.00    +0.000 C 
ENDBRANCH  33  34
ENDBRANCH  32  33
ENDBRANCH  31  32
ENDBRANCH  29  31
ENDBRANCH  24  27
ENDBRANCH  22  23
ENDBRANCH   1  22
TORSDOF 11
ENDMDL
MODEL 7
REMARK VINA RESULT:      -6.6      3.835     10.289
REMARK  Name = 
REMARK  14 active torsions:
REMARK  status: ('A' for Active; 'I' for Inactive)
REMARK    1  A    between atoms: C_1  and  O_2
REMARK    2  A    between atoms: O_2  and  C_3
REMARK    3  A    between atoms: C_8  and  N_9
REMARK    4  A    between atoms: N_12  and  C_13
REMARK    5  A    between atoms: C_13  and  C_14
REMARK    6  A    between atoms: C_13  and  C_27
REMARK    7  A    between atoms: C_14  and  N_15
REMARK    8  A    between atoms: C_16  and  C_18
REMARK    9  A    between atoms: N_20  and  C_21
REMARK   10  A    between atoms: C_21  and  C_22
REMARK   11  A    between atoms: C_22  and  C_23
REMARK   12  A    between atoms: C_23  and  N_24
REMARK   13  A    between atoms: N_24  and  C_25
REMARK   14  A    between atoms: N_24  and  C_26
REMARK                            x       y       z     vdW  Elec       q    Type
REMARK                         _______ _______ _______ _____ _____    ______ ____
ROOT
ATOM      1  C   UNL     1       0.274   9.257  19.690  0.00  0.00    +0.000 C 
ENDROOT
BRANCH   1   5
ATOM      2  N   UNL     1       2.073   6.160  18.845  0.00  0.00    +0.000 N 
ATOM      3  C   UNL     1       1.586   6.464  20.197  0.00  0.00    +0.000 C 
ATOM      4  C   UNL     1       2.102   7.852  20.649  0.00  0.00    +0.000 C 
ATOM      5  N   UNL     1       1.746   8.978  19.733  0.00  0.00    +0.000 NA
ATOM      6  C   UNL     1       2.313   8.592  18.406  0.00  0.00    +0.000 C 
ATOM      7  C   UNL     1       1.860   7.221  17.844  0.00  0.00    +0.000 C 
BRANCH   2  13
ATOM      8  C   UNL     1       4.036   4.640  18.705  0.00  0.00    +0.000 A 
ATOM      9  C   UNL     1       4.558   3.389  18.318  0.00  0.00    +0.000 A 
ATOM     10  C   UNL     1       3.746   2.413  17.757  0.00  0.00    +0.000 A 
ATOM     11  C   UNL     1       2.404   2.681  17.560  0.00  0.00    +0.000 A 
ATOM     12  C   UNL     1       1.878   3.924  17.932  0.00  0.00    +0.000 A 
ATOM     13  C   UNL     1       2.664   4.946  18.510  0.00  0.00    +0.000 A 
BRANCH   8  15
ATOM     14  C   UNL     1       6.272   5.259  19.178  0.00  0.00    +0.000 C 
ATOM     15  O   UNL     1       4.889   5.611  19.193  0.00  0.00    +0.000 OA
ENDBRANCH   8  15
ENDBRANCH   2  13
ENDBRANCH   1   5
BRANCH   1  16
ATOM     16  C   UNL     1      -0.068  10.637  19.119  0.00  0.00    +0.000 A 
ATOM     17  C   UNL     1      -1.217  10.875  18.355  0.00  0.00    +0.000 A 
ATOM     18  C   UNL     1      -1.476  12.145  17.848  0.00  0.00    +0.000 A 
ATOM     19  C   UNL     1      -0.568  13.154  18.111  0.00  0.00    +0.000 A 
ATOM     20  N   UNL     1       0.551  12.976  18.845  0.00  0.00    +0.000 NA
ATOM     21  C   UNL     1       0.777  11.729  19.326  0.00  0.00    +0.000 A 
ENDBRANCH   1  16
BRANCH   1  22
ATOM     22  C   UNL     1      -0.430   9.092  21.087  0.00  0.00    +0.000 C 
BRANCH  22  23
ATOM     23  N   UNL     1      -1.045  10.291  21.629  0.00  0.00    +0.000 N 
ATOM     24  C   UNL     1      -0.849  10.713  22.923  0.00  0.00    +0.000 C 
ATOM     25  O   UNL     1      -0.141  10.154  23.759  0.00  0.00    +0.000 OA
ATOM     26  H   UNL     1      -1.689  10.838  21.061  0.00  0.00    +0.000 HD
BRANCH  24  27
ATOM     27  C   UNL     1      -1.622  12.003  23.292  0.00  0.00    +0.000 C 
ATOM     28  O   UNL     1      -1.023  13.065  23.359  0.00  0.00    +0.000 OA
ATOM     29  N   UNL     1      -2.974  11.820  23.506  0.00  0.00    +0.000 N 
ATOM     30  H   UNL     1      -3.345  10.887  23.351  0.00  0.00    +0.000 HD
BRANCH  29  31
ATOM     31  C   UNL     1      -3.860  12.919  23.842  0.00  0.00    +0.000 C 
BRANCH  31  32
ATOM     32  C   UNL     1      -4.707  13.338  22.642  0.00  0.00    +0.000 C 
BRANCH  32  33
ATOM     33  C   UNL     1      -6.144  12.800  22.714  0.00  0.00    +0.000 C 
BRANCH  33  34
ATOM     34  N   UNL     1      -6.548  11.988  21.555  0.00  0.00    +0.000 NA
ATOM     35  C   UNL     1      -7.916  11.479  21.684  0.00  0.00    +0.000 C 
ATOM     36  C   UNL     1      -6.426  12.763  20.318  0.00  0.00    +0.000 C 
ENDBRANCH  33  34
ENDBRANCH  32  33
ENDBRANCH  31  32
ENDBRANCH  29  31
ENDBRANCH  24  27
ENDBRANCH  22  23
ENDBRANCH   1  22
TORSDOF 11
ENDMDL
MODEL 8
REMARK VINA RESULT:      -6.5      3.170      8.859
REMARK  Name = 
REMARK  14 active torsions:
REMARK  status: ('A' for Active; 'I' for Inactive)
REMARK    1  A    between atoms: C_1  and  O_2
REMARK    2  A    between atoms: O_2  and  C_3
REMARK    3  A    between atoms: C_8  and  N_9
REMARK    4  A    between atoms: N_12  and  C_13
REMARK    5  A    between atoms: C_13  and  C_14
REMARK    6  A    between atoms: C_13  and  C_27
REMARK    7  A    between atoms: C_14  and  N_15
REMARK    8  A    between atoms: C_16  and  C_18
REMARK    9  A    between atoms: N_20  and  C_21
REMARK   10  A    between atoms: C_21  and  C_22
REMARK   11  A    between atoms: C_22  and  C_23
REMARK   12  A    between atoms: C_23  and  N_24
REMARK   13  A    between atoms: N_24  and  C_25
REMARK   14  A    between atoms: N_24  and  C_26
REMARK                            x       y       z     vdW  Elec       q    Type
REMARK                         _______ _______ _______ _____ _____    ______ ____
ROOT
ATOM      1  C   UNL     1       4.212   5.886  18.671  0.00  0.00    +0.000 C 
ENDROOT
BRANCH   1   5
ATOM      2  N   UNL     1       5.417   4.778  15.375  0.00  0.00    +0.000 N 
ATOM      3  C   UNL     1       5.194   3.861  16.500  0.00  0.00    +0.000 C 
ATOM      4  C   UNL     1       5.959   4.358  17.752  0.00  0.00    +0.000 C 
ATOM      5  N   UNL     1       5.621   5.750  18.177  0.00  0.00    +0.000 NA
ATOM      6  C   UNL     1       5.913   6.602  16.985  0.00  0.00    +0.000 C 
ATOM      7  C   UNL     1       5.194   6.205  15.671  0.00  0.00    +0.000 C 
BRANCH   2  13
ATOM      8  C   UNL     1       7.012   4.639  13.473  0.00  0.00    +0.000 A 
ATOM      9  C   UNL     1       7.287   4.173  12.172  0.00  0.00    +0.000 A 
ATOM     10  C   UNL     1       6.374   3.391  11.478  0.00  0.00    +0.000 A 
ATOM     11  C   UNL     1       5.164   3.080  12.071  0.00  0.00    +0.000 A 
ATOM     12  C   UNL     1       4.876   3.548  13.359  0.00  0.00    +0.000 A 
ATOM     13  C   UNL     1       5.776   4.342  14.104  0.00  0.00    +0.000 A 
BRANCH   8  15
ATOM     14  C   UNL     1       8.930   6.010  13.253  0.00  0.00    +0.000 C 
ATOM     15  O   UNL     1       7.915   5.474  14.101  0.00  0.00    +0.000 OA
ENDBRANCH   8  15
ENDBRANCH   2  13
ENDBRANCH   1   5
BRANCH   1  16
ATOM     16  C   UNL     1       3.429   4.569  18.648  0.00  0.00    +0.000 A 
ATOM     17  C   UNL     1       3.690   3.518  19.536  0.00  0.00    +0.000 A 
ATOM     18  C   UNL     1       2.959   2.337  19.466  0.00  0.00    +0.000 A 
ATOM     19  C   UNL     1       1.981   2.228  18.495  0.00  0.00    +0.000 A 
ATOM     20  N   UNL     1       1.689   3.212  17.618  0.00  0.00    +0.000 NA
ATOM     21  C   UNL     1       2.417   4.352  17.711  0.00  0.00    +0.000 A 
ENDBRANCH   1  16
BRANCH   1  22
ATOM     22  C   UNL     1       3.388   6.985  17.905  0.00  0.00    +0.000 C 
BRANCH  22  23
ATOM     23  N   UNL     1       2.438   7.735  18.709  0.00  0.00    +0.000 N 
ATOM     24  C   UNL     1       1.898   8.933  18.304  0.00  0.00    +0.000 C 
ATOM     25  O   UNL     1       2.132   9.501  17.238  0.00  0.00    +0.000 OA
ATOM     26  H   UNL     1       2.178   7.405  19.635  0.00  0.00    +0.000 HD
BRANCH  24  27
ATOM     27  C   UNL     1       0.928   9.568  19.330  0.00  0.00    +0.000 C 
ATOM     28  O   UNL     1       0.850   9.098  20.454  0.00  0.00    +0.000 OA
ATOM     29  N   UNL     1       0.223  10.658  18.856  0.00  0.00    +0.000 N 
ATOM     30  H   UNL     1       0.440  10.976  17.916  0.00  0.00    +0.000 HD
BRANCH  29  31
ATOM     31  C   UNL     1      -0.717  11.392  19.683  0.00  0.00    +0.000 C 
BRANCH  31  32
ATOM     32  C   UNL     1      -1.651  12.252  18.836  0.00  0.00    +0.000 C 
BRANCH  32  33
ATOM     33  C   UNL     1      -3.104  11.755  18.865  0.00  0.00    +0.000 C 
BRANCH  33  34
ATOM     34  N   UNL     1      -3.606  11.267  17.570  0.00  0.00    +0.000 NA
ATOM     35  C   UNL     1      -3.194   9.887  17.299  0.00  0.00    +0.000 C 
ATOM     36  C   UNL     1      -5.066  11.366  17.516  0.00  0.00    +0.000 C 
ENDBRANCH  33  34
ENDBRANCH  32  33
ENDBRANCH  31  32
ENDBRANCH  29  31
ENDBRANCH  24  27
ENDBRANCH  22  23
ENDBRANCH   1  22
TORSDOF 11
ENDMDL
MODEL 9
REMARK VINA RESULT:      -6.5      3.537      7.403
REMARK  Name = 
REMARK  14 active torsions:
REMARK  status: ('A' for Active; 'I' for Inactive)
REMARK    1  A    between atoms: C_1  and  O_2
REMARK    2  A    between atoms: O_2  and  C_3
REMARK    3  A    between atoms: C_8  and  N_9
REMARK    4  A    between atoms: N_12  and  C_13
REMARK    5  A    between atoms: C_13  and  C_14
REMARK    6  A    between atoms: C_13  and  C_27
REMARK    7  A    between atoms: C_14  and  N_15
REMARK    8  A    between atoms: C_16  and  C_18
REMARK    9  A    between atoms: N_20  and  C_21
REMARK   10  A    between atoms: C_21  and  C_22
REMARK   11  A    between atoms: C_22  and  C_23
REMARK   12  A    between atoms: C_23  and  N_24
REMARK   13  A    between atoms: N_24  and  C_25
REMARK   14  A    between atoms: N_24  and  C_26
REMARK                            x       y       z     vdW  Elec       q    Type
REMARK                         _______ _______ _______ _____ _____    ______ ____
ROOT
ATOM      1  C   UNL     1       0.843  12.388  19.132  0.00  0.00    +0.000 C 
ENDROOT
BRANCH   1   5
ATOM      2  N   UNL     1      -2.670  12.750  20.168  0.00  0.00    +0.000 N 
ATOM      3  C   UNL     1      -2.200  11.683  19.274  0.00  0.00    +0.000 C 
ATOM      4  C   UNL     1      -1.420  12.292  18.083  0.00  0.00    +0.000 C 
ATOM      5  N   UNL     1      -0.263  13.154  18.471  0.00  0.00    +0.000 NA
ATOM      6  C   UNL     1      -0.847  14.219  19.341  0.00  0.00    +0.000 C 
ATOM      7  C   UNL     1      -1.645  13.728  20.575  0.00  0.00    +0.000 C 
BRANCH   2  13
ATOM      8  C   UNL     1      -4.349  12.737  22.002  0.00  0.00    +0.000 A 
ATOM      9  C   UNL     1      -5.703  12.799  22.387  0.00  0.00    +0.000 A 
ATOM     10  C   UNL     1      -6.712  12.970  21.449  0.00  0.00    +0.000 A 
ATOM     11  C   UNL     1      -6.380  13.063  20.110  0.00  0.00    +0.000 A 
ATOM     12  C   UNL     1      -5.038  12.991  19.716  0.00  0.00    +0.000 A 
ATOM     13  C   UNL     1      -3.978  12.823  20.635  0.00  0.00    +0.000 A 
BRANCH   8  15
ATOM     14  C   UNL     1      -3.375  13.406  24.054  0.00  0.00    +0.000 C 
ATOM     15  O   UNL     1      -3.380  12.493  22.957  0.00  0.00    +0.000 OA
ENDBRANCH   8  15
ENDBRANCH   2  13
ENDBRANCH   1   5
BRANCH   1  16
ATOM     16  C   UNL     1       2.067  13.248  19.460  0.00  0.00    +0.000 A 
ATOM     17  C   UNL     1       2.477  13.510  20.773  0.00  0.00    +0.000 A 
ATOM     18  C   UNL     1       3.591  14.309  21.019  0.00  0.00    +0.000 A 
ATOM     19  C   UNL     1       4.269  14.838  19.937  0.00  0.00    +0.000 A 
ATOM     20  N   UNL     1       3.916  14.612  18.654  0.00  0.00    +0.000 NA
ATOM     21  C   UNL     1       2.829  13.830  18.445  0.00  0.00    +0.000 A 
ENDBRANCH   1  16
BRANCH   1  22
ATOM     22  C   UNL     1       1.306  11.130  18.309  0.00  0.00    +0.000 C 
BRANCH  22  23
ATOM     23  N   UNL     1       1.511   9.915  19.078  0.00  0.00    +0.000 N 
ATOM     24  C   UNL     1       2.011   8.757  18.527  0.00  0.00    +0.000 C 
ATOM     25  O   UNL     1       2.348   8.610  17.354  0.00  0.00    +0.000 OA
ATOM     26  H   UNL     1       1.240   9.876  20.058  0.00  0.00    +0.000 HD
BRANCH  24  27
ATOM     27  C   UNL     1       2.122   7.579  19.526  0.00  0.00    +0.000 C 
ATOM     28  O   UNL     1       1.599   7.672  20.626  0.00  0.00    +0.000 OA
ATOM     29  N   UNL     1       2.823   6.488  19.051  0.00  0.00    +0.000 N 
ATOM     30  H   UNL     1       3.147   6.529  18.090  0.00  0.00    +0.000 HD
BRANCH  29  31
ATOM     31  C   UNL     1       3.011   5.285  19.841  0.00  0.00    +0.000 C 
BRANCH  31  32
ATOM     32  C   UNL     1       4.076   4.378  19.229  0.00  0.00    +0.000 C 
BRANCH  32  33
ATOM     33  C   UNL     1       5.067   5.144  18.339  0.00  0.00    +0.000 C 
BRANCH  33  34
ATOM     34  N   UNL     1       4.646   5.277  16.935  0.00  0.00    +0.000 NA
ATOM     35  C   UNL     1       5.159   6.503  16.316  0.00  0.00    +0.000 C 
ATOM     36  C   UNL     1       5.080   4.114  16.157  0.00  0.00    +0.000 C 
ENDBRANCH  33  34
ENDBRANCH  32  33
ENDBRANCH  31  32
ENDBRANCH  29  31
ENDBRANCH  24  27
ENDBRANCH  22  23
ENDBRANCH   1  22
TORSDOF 11
ENDMDL
