MODEL 1
REMARK VINA RESULT:      -6.7      0.000      0.000
REMARK  Name = 
REMARK  12 active torsions:
REMARK  status: ('A' for Active; 'I' for Inactive)
REMARK    1  A    between atoms: C_1  and  C_2
REMARK    2  A    between atoms: C_2  and  C_3
REMARK    3  A    between atoms: C_3  and  C_4
REMARK    4  A    between atoms: C_4  and  C_5
REMARK    5  A    between atoms: C_5  and  C_6
REMARK    6  A    between atoms: C_6  and  C_7
REMARK    7  A    between atoms: C_7  and  C_8
REMARK    8  A    between atoms: C_8  and  O_10
REMARK    9  A    between atoms: O_10  and  C_11
REMARK   10  A    between atoms: C_11  and  C_12
REMARK   11  A    between atoms: C_12  and  C_13
REMARK   12  A    between atoms: C_16  and  O_17
REMARK                            x       y       z     vdW  Elec       q    Type
REMARK                         _______ _______ _______ _____ _____    ______ ____
ROOT
ATOM      1  O   UNL     1       5.176   5.371  16.077  0.00  0.00    +0.000 OA
ENDROOT
BRANCH   1   2
ATOM      2  C   UNL     1       6.308   4.698  15.719  0.00  0.00    +0.000 C 
ATOM      3  O   UNL     1       7.436   4.982  16.075  0.00  0.00    +0.000 OA
BRANCH   2   4
ATOM      4  C   UNL     1       5.962   3.632  14.706  0.00  0.00    +0.000 C 
BRANCH   4   5
ATOM      5  C   UNL     1       5.861   4.243  13.327  0.00  0.00    +0.000 C 
BRANCH   5   6
ATOM      6  C   UNL     1       6.424   3.323  12.247  0.00  0.00    +0.000 C 
BRANCH   6   7
ATOM      7  C   UNL     1       5.296   2.540  11.573  0.00  0.00    +0.000 C 
BRANCH   7   8
ATOM      8  C   UNL     1       3.997   3.338  11.569  0.00  0.00    +0.000 C 
BRANCH   8  10
ATOM      9  C   UNL     1       2.919   4.406   9.568  0.00  0.00    +0.000 C 
ATOM     10  C   UNL     1       3.200   3.097  10.288  0.00  0.00    +0.000 C 
ENDBRANCH   8  10
ENDBRANCH   7   8
ENDBRANCH   6   7
ENDBRANCH   5   6
ENDBRANCH   4   5
ENDBRANCH   2   4
ENDBRANCH   1   2
BRANCH   1  11
ATOM     11  C   UNL     1       4.252   4.573  16.830  0.00  0.00    +0.000 C 
BRANCH  11  12
ATOM     12  C   UNL     1       3.624   5.448  17.920  0.00  0.00    +0.000 C 
BRANCH  12  13
ATOM     13  C   UNL     1       3.044   4.644  19.055  0.00  0.00    +0.000 A 
ATOM     14  C   UNL     1       1.750   4.903  19.531  0.00  0.00    +0.000 A 
ATOM     15  C   UNL     1       1.211   4.149  20.579  0.00  0.00    +0.000 A 
ATOM     16  C   UNL     1       1.973   3.145  21.163  0.00  0.00    +0.000 A 
ATOM     17  C   UNL     1       3.263   2.885  20.716  0.00  0.00    +0.000 A 
ATOM     18  C   UNL     1       3.798   3.633  19.664  0.00  0.00    +0.000 A 
BRANCH  16  19
ATOM     19  O   UNL     1       1.485   2.390  22.189  0.00  0.00    +0.000 OA
ATOM     20  H   UNL     1       1.884   1.505  22.138  0.00  0.00    +0.000 HD
ENDBRANCH  16  19
ENDBRANCH  12  13
ENDBRANCH  11  12
ENDBRANCH   1  11
TORSDOF 11
ENDMDL
MODEL 2
REMARK VINA RESULT:      -6.5      4.314      6.825
REMARK  Name = 
REMARK  12 active torsions:
REMARK  status: ('A' for Active; 'I' for Inactive)
REMARK    1  A    between atoms: C_1  and  C_2
REMARK    2  A    between atoms: C_2  and  C_3
REMARK    3  A    between atoms: C_3  and  C_4
REMARK    4  A    between atoms: C_4  and  C_5
REMARK    5  A    between atoms: C_5  and  C_6
REMARK    6  A    between atoms: C_6  and  C_7
REMARK    7  A    between atoms: C_7  and  C_8
REMARK    8  A    between atoms: C_8  and  O_10
REMARK    9  A    between atoms: O_10  and  C_11
REMARK   10  A    between atoms: C_11  and  C_12
REMARK   11  A    between atoms: C_12  and  C_13
REMARK   12  A    between atoms: C_16  and  O_17
REMARK                            x       y       z     vdW  Elec       q    Type
REMARK                         _______ _______ _______ _____ _____    ______ ____
ROOT
ATOM      1  O   UNL     1       6.415   6.100  16.072  0.00  0.00    +0.000 OA
ENDROOT
BRANCH   1   2
ATOM      2  C   UNL     1       7.333   5.671  16.986  0.00  0.00    +0.000 C 
ATOM      3  O   UNL     1       7.897   4.594  16.962  0.00  0.00    +0.000 OA
BRANCH   2   4
ATOM      4  C   UNL     1       7.440   6.679  18.106  0.00  0.00    +0.000 C 
BRANCH   4   5
ATOM      5  C   UNL     1       7.857   8.023  17.553  0.00  0.00    +0.000 C 
BRANCH   5   6
ATOM      6  C   UNL     1       8.570   8.879  18.597  0.00  0.00    +0.000 C 
BRANCH   6   7
ATOM      7  C   UNL     1       8.847  10.277  18.042  0.00  0.00    +0.000 C 
BRANCH   7   8
ATOM      8  C   UNL     1       9.804  11.049  18.945  0.00  0.00    +0.000 C 
BRANCH   8  10
ATOM      9  C   UNL     1       9.681  12.102  21.221  0.00  0.00    +0.000 C 
ATOM     10  C   UNL     1       9.478  10.826  20.420  0.00  0.00    +0.000 C 
ENDBRANCH   8  10
ENDBRANCH   7   8
ENDBRANCH   6   7
ENDBRANCH   5   6
ENDBRANCH   4   5
ENDBRANCH   2   4
ENDBRANCH   1   2
BRANCH   1  11
ATOM     11  C   UNL     1       5.068   6.085  16.566  0.00  0.00    +0.000 C 
BRANCH  11  12
ATOM     12  C   UNL     1       4.562   4.639  16.562  0.00  0.00    +0.000 C 
BRANCH  12  13
ATOM     13  C   UNL     1       3.494   4.390  17.596  0.00  0.00    +0.000 A 
ATOM     14  C   UNL     1       2.421   3.527  17.330  0.00  0.00    +0.000 A 
ATOM     15  C   UNL     1       1.437   3.291  18.295  0.00  0.00    +0.000 A 
ATOM     16  C   UNL     1       1.515   3.934  19.524  0.00  0.00    +0.000 A 
ATOM     17  C   UNL     1       2.560   4.808  19.800  0.00  0.00    +0.000 A 
ATOM     18  C   UNL     1       3.548   5.036  18.839  0.00  0.00    +0.000 A 
BRANCH  16  19
ATOM     19  O   UNL     1       0.573   3.735  20.490  0.00  0.00    +0.000 OA
ATOM     20  H   UNL     1       0.565   4.510  21.077  0.00  0.00    +0.000 HD
ENDBRANCH  16  19
ENDBRANCH  12  13
ENDBRANCH  11  12
ENDBRANCH   1  11
TORSDOF 11
ENDMDL
MODEL 3
REMARK VINA RESULT:      -6.4      1.681      2.115
REMARK  Name = 
REMARK  12 active torsions:
REMARK  status: ('A' for Active; 'I' for Inactive)
REMARK    1  A    between atoms: C_1  and  C_2
REMARK    2  A    between atoms: C_2  and  C_3
REMARK    3  A    between atoms: C_3  and  C_4
REMARK    4  A    between atoms: C_4  and  C_5
REMARK    5  A    between atoms: C_5  and  C_6
REMARK    6  A    between atoms: C_6  and  C_7
REMARK    7  A    between atoms: C_7  and  C_8
REMARK    8  A    between atoms: C_8  and  O_10
REMARK    9  A    between atoms: O_10  and  C_11
REMARK   10  A    between atoms: C_11  and  C_12
REMARK   11  A    between atoms: C_12  and  C_13
REMARK   12  A    between atoms: C_16  and  O_17
REMARK                            x       y       z     vdW  Elec       q    Type
REMARK                         _______ _______ _______ _____ _____    ______ ____
ROOT
ATOM      1  O   UNL     1       5.376   5.066  14.964  0.00  0.00    +0.000 OA
ENDROOT
BRANCH   1   2
ATOM      2  C   UNL     1       6.705   5.157  14.669  0.00  0.00    +0.000 C 
ATOM      3  O   UNL     1       7.515   5.831  15.277  0.00  0.00    +0.000 OA
BRANCH   2   4
ATOM      4  C   UNL     1       6.991   4.404  13.391  0.00  0.00    +0.000 C 
BRANCH   4   5
ATOM      5  C   UNL     1       6.027   3.249  13.245  0.00  0.00    +0.000 C 
BRANCH   5   6
ATOM      6  C   UNL     1       5.576   3.055  11.800  0.00  0.00    +0.000 C 
BRANCH   6   7
ATOM      7  C   UNL     1       4.273   3.815  11.542  0.00  0.00    +0.000 C 
BRANCH   7   8
ATOM      8  C   UNL     1       3.236   2.918  10.873  0.00  0.00    +0.000 C 
BRANCH   8  10
ATOM      9  C   UNL     1       2.692   4.795   9.295  0.00  0.00    +0.000 C 
ATOM     10  C   UNL     1       3.017   3.315   9.414  0.00  0.00    +0.000 C 
ENDBRANCH   8  10
ENDBRANCH   7   8
ENDBRANCH   6   7
ENDBRANCH   5   6
ENDBRANCH   4   5
ENDBRANCH   2   4
ENDBRANCH   1   2
BRANCH   1  11
ATOM     11  C   UNL     1       5.092   5.198  16.364  0.00  0.00    +0.000 C 
BRANCH  11  12
ATOM     12  C   UNL     1       5.102   3.804  16.999  0.00  0.00    +0.000 C 
BRANCH  12  13
ATOM     13  C   UNL     1       3.765   3.413  17.575  0.00  0.00    +0.000 A 
ATOM     14  C   UNL     1       3.550   2.124  18.084  0.00  0.00    +0.000 A 
ATOM     15  C   UNL     1       2.311   1.767  18.626  0.00  0.00    +0.000 A 
ATOM     16  C   UNL     1       1.278   2.697  18.643  0.00  0.00    +0.000 A 
ATOM     17  C   UNL     1       1.466   3.973  18.127  0.00  0.00    +0.000 A 
ATOM     18  C   UNL     1       2.707   4.332  17.594  0.00  0.00    +0.000 A 
BRANCH  16  19
ATOM     19  O   UNL     1       0.054   2.387  19.158  0.00  0.00    +0.000 OA
ATOM     20  H   UNL     1       0.130   2.335  20.125  0.00  0.00    +0.000 HD
ENDBRANCH  16  19
ENDBRANCH  12  13
ENDBRANCH  11  12
ENDBRANCH   1  11
TORSDOF 11
ENDMDL
MODEL 4
REMARK VINA RESULT:      -6.4      1.871      2.336
REMARK  Name = 
REMARK  12 active torsions:
REMARK  status: ('A' for Active; 'I' for Inactive)
REMARK    1  A    between atoms: C_1  and  C_2
REMARK    2  A    between atoms: C_2  and  C_3
REMARK    3  A    between atoms: C_3  and  C_4
REMARK    4  A    between atoms: C_4  and  C_5
REMARK    5  A    between atoms: C_5  and  C_6
REMARK    6  A    between atoms: C_6  and  C_7
REMARK    7  A    between atoms: C_7  and  C_8
REMARK    8  A    between atoms: C_8  and  O_10
REMARK    9  A    between atoms: O_10  and  C_11
REMARK   10  A    between atoms: C_11  and  C_12
REMARK   11  A    between atoms: C_12  and  C_13
REMARK   12  A    between atoms: C_16  and  O_17
REMARK                            x       y       z     vdW  Elec       q    Type
REMARK                         _______ _______ _______ _____ _____    ______ ____
ROOT
ATOM      1  O   UNL     1       5.027   6.355  17.756  0.00  0.00    +0.000 OA
ENDROOT
BRANCH   1   2
ATOM      2  C   UNL     1       5.922   6.513  16.739  0.00  0.00    +0.000 C 
ATOM      3  O   UNL     1       7.021   7.023  16.844  0.00  0.00    +0.000 OA
BRANCH   2   4
ATOM      4  C   UNL     1       5.288   6.084  15.437  0.00  0.00    +0.000 C 
BRANCH   4   5
ATOM      5  C   UNL     1       5.765   4.699  15.062  0.00  0.00    +0.000 C 
BRANCH   5   6
ATOM      6  C   UNL     1       6.984   4.739  14.145  0.00  0.00    +0.000 C 
BRANCH   6   7
ATOM      7  C   UNL     1       6.652   4.112  12.789  0.00  0.00    +0.000 C 
BRANCH   7   8
ATOM      8  C   UNL     1       5.341   3.335  12.847  0.00  0.00    +0.000 C 
BRANCH   8  10
ATOM      9  C   UNL     1       3.785   3.441  10.878  0.00  0.00    +0.000 C 
ATOM     10  C   UNL     1       4.988   2.738  11.486  0.00  0.00    +0.000 C 
ENDBRANCH   8  10
ENDBRANCH   7   8
ENDBRANCH   6   7
ENDBRANCH   5   6
ENDBRANCH   4   5
ENDBRANCH   2   4
ENDBRANCH   1   2
BRANCH   1  11
ATOM     11  C   UNL     1       5.592   5.747  18.926  0.00  0.00    +0.000 C 
BRANCH  11  12
ATOM     12  C   UNL     1       5.521   4.224  18.769  0.00  0.00    +0.000 C 
BRANCH  12  13
ATOM     13  C   UNL     1       4.106   3.707  18.719  0.00  0.00    +0.000 A 
ATOM     14  C   UNL     1       3.181   4.046  19.718  0.00  0.00    +0.000 A 
ATOM     15  C   UNL     1       1.866   3.571  19.664  0.00  0.00    +0.000 A 
ATOM     16  C   UNL     1       1.480   2.741  18.618  0.00  0.00    +0.000 A 
ATOM     17  C   UNL     1       2.387   2.380  17.630  0.00  0.00    +0.000 A 
ATOM     18  C   UNL     1       3.698   2.861  17.679  0.00  0.00    +0.000 A 
BRANCH  16  19
ATOM     19  O   UNL     1       0.209   2.254  18.532  0.00  0.00    +0.000 OA
ATOM     20  H   UNL     1       0.041   1.991  17.611  0.00  0.00    +0.000 HD
ENDBRANCH  16  19
ENDBRANCH  12  13
ENDBRANCH  11  12
ENDBRANCH   1  11
TORSDOF 11
ENDMDL
MODEL 5
REMARK VINA RESULT:      -6.4      1.690      2.268
REMARK  Name = 
REMARK  12 active torsions:
REMARK  status: ('A' for Active; 'I' for Inactive)
REMARK    1  A    between atoms: C_1  and  C_2
REMARK    2  A    between atoms: C_2  and  C_3
REMARK    3  A    between atoms: C_3  and  C_4
REMARK    4  A    between atoms: C_4  and  C_5
REMARK    5  A    between atoms: C_5  and  C_6
REMARK    6  A    between atoms: C_6  and  C_7
REMARK    7  A    between atoms: C_7  and  C_8
REMARK    8  A    between atoms: C_8  and  O_10
REMARK    9  A    between atoms: O_10  and  C_11
REMARK   10  A    between atoms: C_11  and  C_12
REMARK   11  A    between atoms: C_12  and  C_13
REMARK   12  A    between atoms: C_16  and  O_17
REMARK                            x       y       z     vdW  Elec       q    Type
REMARK                         _______ _______ _______ _____ _____    ______ ____
ROOT
ATOM      1  O   UNL     1       5.274   6.313  16.258  0.00  0.00    +0.000 OA
ENDROOT
BRANCH   1   2
ATOM      2  C   UNL     1       6.624   6.135  16.325  0.00  0.00    +0.000 C 
ATOM      3  O   UNL     1       7.398   6.851  16.932  0.00  0.00    +0.000 OA
BRANCH   2   4
ATOM      4  C   UNL     1       7.028   4.995  15.421  0.00  0.00    +0.000 C 
BRANCH   4   5
ATOM      5  C   UNL     1       5.830   4.123  15.120  0.00  0.00    +0.000 C 
BRANCH   5   6
ATOM      6  C   UNL     1       5.392   4.229  13.662  0.00  0.00    +0.000 C 
BRANCH   6   7
ATOM      7  C   UNL     1       6.142   3.208  12.805  0.00  0.00    +0.000 C 
BRANCH   7   8
ATOM      8  C   UNL     1       5.322   2.806  11.583  0.00  0.00    +0.000 C 
BRANCH   8  10
ATOM      9  C   UNL     1       3.284   3.302  10.202  0.00  0.00    +0.000 C 
ATOM     10  C   UNL     1       4.037   3.626  11.482  0.00  0.00    +0.000 C 
ENDBRANCH   8  10
ENDBRANCH   7   8
ENDBRANCH   6   7
ENDBRANCH   5   6
ENDBRANCH   4   5
ENDBRANCH   2   4
ENDBRANCH   1   2
BRANCH   1  11
ATOM     11  C   UNL     1       4.672   6.605  17.528  0.00  0.00    +0.000 C 
BRANCH  11  12
ATOM     12  C   UNL     1       4.897   5.411  18.462  0.00  0.00    +0.000 C 
BRANCH  12  13
ATOM     13  C   UNL     1       3.774   4.408  18.410  0.00  0.00    +0.000 A 
ATOM     14  C   UNL     1       4.041   3.031  18.374  0.00  0.00    +0.000 A 
ATOM     15  C   UNL     1       2.995   2.102  18.334  0.00  0.00    +0.000 A 
ATOM     16  C   UNL     1       1.681   2.551  18.312  0.00  0.00    +0.000 A 
ATOM     17  C   UNL     1       1.397   3.911  18.329  0.00  0.00    +0.000 A 
ATOM     18  C   UNL     1       2.441   4.839  18.378  0.00  0.00    +0.000 A 
BRANCH  16  19
ATOM     19  O   UNL     1       0.634   1.678  18.269  0.00  0.00    +0.000 OA
ATOM     20  H   UNL     1      -0.193   2.188  18.257  0.00  0.00    +0.000 HD
ENDBRANCH  16  19
ENDBRANCH  12  13
ENDBRANCH  11  12
ENDBRANCH   1  11
TORSDOF 11
ENDMDL
MODEL 6
REMARK VINA RESULT:      -6.4      4.209      6.653
REMARK  Name = 
REMARK  12 active torsions:
REMARK  status: ('A' for Active; 'I' for Inactive)
REMARK    1  A    between atoms: C_1  and  C_2
REMARK    2  A    between atoms: C_2  and  C_3
REMARK    3  A    between atoms: C_3  and  C_4
REMARK    4  A    between atoms: C_4  and  C_5
REMARK    5  A    between atoms: C_5  and  C_6
REMARK    6  A    between atoms: C_6  and  C_7
REMARK    7  A    between atoms: C_7  and  C_8
REMARK    8  A    between atoms: C_8  and  O_10
REMARK    9  A    between atoms: O_10  and  C_11
REMARK   10  A    between atoms: C_11  and  C_12
REMARK   11  A    between atoms: C_12  and  C_13
REMARK   12  A    between atoms: C_16  and  O_17
REMARK                            x       y       z     vdW  Elec       q    Type
REMARK                         _______ _______ _______ _____ _____    ______ ____
ROOT
ATOM      1  O   UNL     1       6.411   5.706  16.800  0.00  0.00    +0.000 OA
ENDROOT
BRANCH   1   2
ATOM      2  C   UNL     1       6.805   5.227  18.015  0.00  0.00    +0.000 C 
ATOM      3  O   UNL     1       6.398   4.205  18.533  0.00  0.00    +0.000 OA
BRANCH   2   4
ATOM      4  C   UNL     1       7.722   6.228  18.679  0.00  0.00    +0.000 C 
BRANCH   4   5
ATOM      5  C   UNL     1       7.711   7.529  17.909  0.00  0.00    +0.000 C 
BRANCH   5   6
ATOM      6  C   UNL     1       8.575   8.598  18.573  0.00  0.00    +0.000 C 
BRANCH   6   7
ATOM      7  C   UNL     1       8.441   9.929  17.831  0.00  0.00    +0.000 C 
BRANCH   7   8
ATOM      8  C   UNL     1       9.297  11.011  18.480  0.00  0.00    +0.000 C 
BRANCH   8  10
ATOM      9  C   UNL     1      10.385  11.800  20.602  0.00  0.00    +0.000 C 
ATOM     10  C   UNL     1       9.591  10.684  19.943  0.00  0.00    +0.000 C 
ENDBRANCH   8  10
ENDBRANCH   7   8
ENDBRANCH   6   7
ENDBRANCH   5   6
ENDBRANCH   4   5
ENDBRANCH   2   4
ENDBRANCH   1   2
BRANCH   1  11
ATOM     11  C   UNL     1       5.023   5.479  16.520  0.00  0.00    +0.000 C 
BRANCH  11  12
ATOM     12  C   UNL     1       4.184   6.340  17.470  0.00  0.00    +0.000 C 
BRANCH  12  13
ATOM     13  C   UNL     1       3.183   5.535  18.259  0.00  0.00    +0.000 A 
ATOM     14  C   UNL     1       2.760   5.959  19.527  0.00  0.00    +0.000 A 
ATOM     15  C   UNL     1       1.824   5.214  20.254  0.00  0.00    +0.000 A 
ATOM     16  C   UNL     1       1.324   4.034  19.718  0.00  0.00    +0.000 A 
ATOM     17  C   UNL     1       1.745   3.589  18.470  0.00  0.00    +0.000 A 
ATOM     18  C   UNL     1       2.672   4.337  17.742  0.00  0.00    +0.000 A 
BRANCH  16  19
ATOM     19  O   UNL     1       0.413   3.277  20.395  0.00  0.00    +0.000 OA
ATOM     20  H   UNL     1       0.794   3.035  21.256  0.00  0.00    +0.000 HD
ENDBRANCH  16  19
ENDBRANCH  12  13
ENDBRANCH  11  12
ENDBRANCH   1  11
TORSDOF 11
ENDMDL
MODEL 7
REMARK VINA RESULT:      -6.3      2.479      4.021
REMARK  Name = 
REMARK  12 active torsions:
REMARK  status: ('A' for Active; 'I' for Inactive)
REMARK    1  A    between atoms: C_1  and  C_2
REMARK    2  A    between atoms: C_2  and  C_3
REMARK    3  A    between atoms: C_3  and  C_4
REMARK    4  A    between atoms: C_4  and  C_5
REMARK    5  A    between atoms: C_5  and  C_6
REMARK    6  A    between atoms: C_6  and  C_7
REMARK    7  A    between atoms: C_7  and  C_8
REMARK    8  A    between atoms: C_8  and  O_10
REMARK    9  A    between atoms: O_10  and  C_11
REMARK   10  A    between atoms: C_11  and  C_12
REMARK   11  A    between atoms: C_12  and  C_13
REMARK   12  A    between atoms: C_16  and  O_17
REMARK                            x       y       z     vdW  Elec       q    Type
REMARK                         _______ _______ _______ _____ _____    ______ ____
ROOT
ATOM      1  O   UNL     1       3.059   6.195  19.350  0.00  0.00    +0.000 OA
ENDROOT
BRANCH   1   2
ATOM      2  C   UNL     1       2.975   7.057  18.296  0.00  0.00    +0.000 C 
ATOM      3  O   UNL     1       2.023   7.770  18.046  0.00  0.00    +0.000 OA
BRANCH   2   4
ATOM      4  C   UNL     1       4.189   6.892  17.412  0.00  0.00    +0.000 C 
BRANCH   4   5
ATOM      5  C   UNL     1       4.856   5.564  17.691  0.00  0.00    +0.000 C 
BRANCH   5   6
ATOM      6  C   UNL     1       4.675   4.577  16.541  0.00  0.00    +0.000 C 
BRANCH   6   7
ATOM      7  C   UNL     1       5.530   4.993  15.342  0.00  0.00    +0.000 C 
BRANCH   7   8
ATOM      8  C   UNL     1       6.068   3.775  14.599  0.00  0.00    +0.000 C 
BRANCH   8  10
ATOM      9  C   UNL     1       5.945   3.220  12.153  0.00  0.00    +0.000 C 
ATOM     10  C   UNL     1       6.547   4.146  13.197  0.00  0.00    +0.000 C 
ENDBRANCH   8  10
ENDBRANCH   7   8
ENDBRANCH   6   7
ENDBRANCH   5   6
ENDBRANCH   4   5
ENDBRANCH   2   4
ENDBRANCH   1   2
BRANCH   1  11
ATOM     11  C   UNL     1       1.999   6.355  20.304  0.00  0.00    +0.000 C 
BRANCH  11  12
ATOM     12  C   UNL     1       1.273   5.014  20.459  0.00  0.00    +0.000 C 
BRANCH  12  13
ATOM     13  C   UNL     1       2.011   3.871  19.811  0.00  0.00    +0.000 A 
ATOM     14  C   UNL     1       1.577   3.334  18.590  0.00  0.00    +0.000 A 
ATOM     15  C   UNL     1       2.269   2.278  17.987  0.00  0.00    +0.000 A 
ATOM     16  C   UNL     1       3.388   1.747  18.615  0.00  0.00    +0.000 A 
ATOM     17  C   UNL     1       3.824   2.253  19.834  0.00  0.00    +0.000 A 
ATOM     18  C   UNL     1       3.137   3.313  20.431  0.00  0.00    +0.000 A 
BRANCH  16  19
ATOM     19  O   UNL     1       4.088   0.715  18.062  0.00  0.00    +0.000 OA
ATOM     20  H   UNL     1       3.888   0.680  17.112  0.00  0.00    +0.000 HD
ENDBRANCH  16  19
ENDBRANCH  12  13
ENDBRANCH  11  12
ENDBRANCH   1  11
TORSDOF 11
ENDMDL
MODEL 8
REMARK VINA RESULT:      -6.3      1.301      1.856
REMARK  Name = 
REMARK  12 active torsions:
REMARK  status: ('A' for Active; 'I' for Inactive)
REMARK    1  A    between atoms: C_1  and  C_2
REMARK    2  A    between atoms: C_2  and  C_3
REMARK    3  A    between atoms: C_3  and  C_4
REMARK    4  A    between atoms: C_4  and  C_5
REMARK    5  A    between atoms: C_5  and  C_6
REMARK    6  A    between atoms: C_6  and  C_7
REMARK    7  A    between atoms: C_7  and  C_8
REMARK    8  A    between atoms: C_8  and  O_10
REMARK    9  A    between atoms: O_10  and  C_11
REMARK   10  A    between atoms: C_11  and  C_12
REMARK   11  A    between atoms: C_12  and  C_13
REMARK   12  A    between atoms: C_16  and  O_17
REMARK                            x       y       z     vdW  Elec       q    Type
REMARK                         _______ _______ _______ _____ _____    ______ ____
ROOT
ATOM      1  O   UNL     1       4.485   4.692  17.390  0.00  0.00    +0.000 OA
ENDROOT
BRANCH   1   2
ATOM      2  C   UNL     1       5.801   4.870  17.078  0.00  0.00    +0.000 C 
ATOM      3  O   UNL     1       6.738   4.600  17.803  0.00  0.00    +0.000 OA
BRANCH   2   4
ATOM      4  C   UNL     1       5.912   5.581  15.749  0.00  0.00    +0.000 C 
BRANCH   4   5
ATOM      5  C   UNL     1       5.408   4.685  14.640  0.00  0.00    +0.000 C 
BRANCH   5   6
ATOM      6  C   UNL     1       6.531   3.876  13.998  0.00  0.00    +0.000 C 
BRANCH   6   7
ATOM      7  C   UNL     1       6.582   4.137  12.491  0.00  0.00    +0.000 C 
BRANCH   7   8
ATOM      8  C   UNL     1       6.700   2.833  11.709  0.00  0.00    +0.000 C 
BRANCH   8  10
ATOM      9  C   UNL     1       4.253   3.215  11.288  0.00  0.00    +0.000 C 
ATOM     10  C   UNL     1       5.335   2.173  11.522  0.00  0.00    +0.000 C 
ENDBRANCH   8  10
ENDBRANCH   7   8
ENDBRANCH   6   7
ENDBRANCH   5   6
ENDBRANCH   4   5
ENDBRANCH   2   4
ENDBRANCH   1   2
BRANCH   1  11
ATOM     11  C   UNL     1       3.801   5.915  17.699  0.00  0.00    +0.000 C 
BRANCH  11  12
ATOM     12  C   UNL     1       2.310   5.609  17.881  0.00  0.00    +0.000 C 
BRANCH  12  13
ATOM     13  C   UNL     1       2.036   4.723  19.070  0.00  0.00    +0.000 A 
ATOM     14  C   UNL     1       2.497   5.071  20.348  0.00  0.00    +0.000 A 
ATOM     15  C   UNL     1       2.234   4.251  21.450  0.00  0.00    +0.000 A 
ATOM     16  C   UNL     1       1.523   3.071  21.271  0.00  0.00    +0.000 A 
ATOM     17  C   UNL     1       1.073   2.700  20.009  0.00  0.00    +0.000 A 
ATOM     18  C   UNL     1       1.329   3.524  18.910  0.00  0.00    +0.000 A 
BRANCH  16  19
ATOM     19  O   UNL     1       1.249   2.242  22.319  0.00  0.00    +0.000 OA
ATOM     20  H   UNL     1       2.087   1.989  22.739  0.00  0.00    +0.000 HD
ENDBRANCH  16  19
ENDBRANCH  12  13
ENDBRANCH  11  12
ENDBRANCH   1  11
TORSDOF 11
ENDMDL
MODEL 9
REMARK VINA RESULT:      -6.3      1.954      2.523
REMARK  Name = 
REMARK  12 active torsions:
REMARK  status: ('A' for Active; 'I' for Inactive)
REMARK    1  A    between atoms: C_1  and  C_2
REMARK    2  A    between atoms: C_2  and  C_3
REMARK    3  A    between atoms: C_3  and  C_4
REMARK    4  A    between atoms: C_4  and  C_5
REMARK    5  A    between atoms: C_5  and  C_6
REMARK    6  A    between atoms: C_6  and  C_7
REMARK    7  A    between atoms: C_7  and  C_8
REMARK    8  A    between atoms: C_8  and  O_10
REMARK    9  A    between atoms: O_10  and  C_11
REMARK   10  A    between atoms: C_11  and  C_12
REMARK   11  A    between atoms: C_12  and  C_13
REMARK   12  A    between atoms: C_16  and  O_17
REMARK                            x       y       z     vdW  Elec       q    Type
REMARK                         _______ _______ _______ _____ _____    ______ ____
ROOT
ATOM      1  O   UNL     1       5.743   6.714  17.770  0.00  0.00    +0.000 OA
ENDROOT
BRANCH   1   2
ATOM      2  C   UNL     1       6.507   6.240  16.744  0.00  0.00    +0.000 C 
ATOM      3  O   UNL     1       7.699   6.438  16.606  0.00  0.00    +0.000 OA
BRANCH   2   4
ATOM      4  C   UNL     1       5.622   5.548  15.733  0.00  0.00    +0.000 C 
BRANCH   4   5
ATOM      5  C   UNL     1       6.073   4.117  15.546  0.00  0.00    +0.000 C 
BRANCH   5   6
ATOM      6  C   UNL     1       5.780   3.601  14.140  0.00  0.00    +0.000 C 
BRANCH   6   7
ATOM      7  C   UNL     1       6.673   4.305  13.117  0.00  0.00    +0.000 C 
BRANCH   7   8
ATOM      8  C   UNL     1       6.927   3.416  11.904  0.00  0.00    +0.000 C 
BRANCH   8  10
ATOM      9  C   UNL     1       6.247   1.177  10.991  0.00  0.00    +0.000 C 
ATOM     10  C   UNL     1       5.767   2.450  11.669  0.00  0.00    +0.000 C 
ENDBRANCH   8  10
ENDBRANCH   7   8
ENDBRANCH   6   7
ENDBRANCH   5   6
ENDBRANCH   4   5
ENDBRANCH   2   4
ENDBRANCH   1   2
BRANCH   1  11
ATOM     11  C   UNL     1       5.287   5.687  18.663  0.00  0.00    +0.000 C 
BRANCH  11  12
ATOM     12  C   UNL     1       3.859   6.022  19.104  0.00  0.00    +0.000 C 
BRANCH  12  13
ATOM     13  C   UNL     1       2.907   4.866  18.931  0.00  0.00    +0.000 A 
ATOM     14  C   UNL     1       1.916   4.600  19.887  0.00  0.00    +0.000 A 
ATOM     15  C   UNL     1       1.029   3.532  19.719  0.00  0.00    +0.000 A 
ATOM     16  C   UNL     1       1.144   2.716  18.600  0.00  0.00    +0.000 A 
ATOM     17  C   UNL     1       2.131   2.952  17.651  0.00  0.00    +0.000 A 
ATOM     18  C   UNL     1       3.011   4.025  17.815  0.00  0.00    +0.000 A 
BRANCH  16  19
ATOM     19  O   UNL     1       0.302   1.662  18.402  0.00  0.00    +0.000 OA
ATOM     20  H   UNL     1       0.373   1.381  17.474  0.00  0.00    +0.000 HD
ENDBRANCH  16  19
ENDBRANCH  12  13
ENDBRANCH  11  12
ENDBRANCH   1  11
TORSDOF 11
ENDMDL
