MODEL 1
REMARK VINA RESULT:      -7.6      0.000      0.000
REMARK  Name = 
REMARK  6 active torsions:
REMARK  status: ('A' for Active; 'I' for Inactive)
REMARK    1  A    between atoms: C_1  and  C_2
REMARK    2  A    between atoms: C_2  and  C_3
REMARK    3  A    between atoms: C_6  and  N_7
REMARK    4  A    between atoms: C_8  and  C_10
REMARK    5  A    between atoms: C_13  and  N_14
REMARK    6  A    between atoms: C_15  and  C_17
REMARK                            x       y       z     vdW  Elec       q    Type
REMARK                         _______ _______ _______ _____ _____    ______ ____
ROOT
ATOM      1  C   UNL     1       1.161   9.240  19.329  0.00  0.00    +0.000 A 
ATOM      2  C   UNL     1       1.188   8.858  20.669  0.00  0.00    +0.000 A 
ATOM      3  C   UNL     1       0.422   9.551  21.607  0.00  0.00    +0.000 A 
ATOM      4  C   UNL     1      -0.371  10.641  21.239  0.00  0.00    +0.000 A 
ATOM      5  C   UNL     1      -0.377  11.039  19.896  0.00  0.00    +0.000 A 
ATOM      6  C   UNL     1       0.390  10.345  18.947  0.00  0.00    +0.000 A 
ENDROOT
BRANCH   1   8
ATOM      7  N   UNL     1       2.448   7.278  18.702  0.00  0.00    +0.000 N 
ATOM      8  C   UNL     1       1.968   8.518  18.307  0.00  0.00    +0.000 C 
ATOM      9  O   UNL     1       2.118   9.057  17.217  0.00  0.00    +0.000 OA
ATOM     10  H   UNL     1       2.145   6.926  19.604  0.00  0.00    +0.000 HD
BRANCH   7  14
ATOM     11  C   UNL     1       4.958   4.711  16.462  0.00  0.00    +0.000 A 
ATOM     12  C   UNL     1       3.810   4.200  17.073  0.00  0.00    +0.000 A 
ATOM     13  C   UNL     1       2.961   5.034  17.805  0.00  0.00    +0.000 A 
ATOM     14  C   UNL     1       3.242   6.391  17.943  0.00  0.00    +0.000 A 
ATOM     15  C   UNL     1       4.373   6.913  17.303  0.00  0.00    +0.000 A 
ATOM     16  C   UNL     1       5.224   6.079  16.566  0.00  0.00    +0.000 A 
BRANCH  11  18
ATOM     17  C   UNL     1       6.613   4.515  14.580  0.00  0.00    +0.000 C 
ATOM     18  C   UNL     1       5.878   3.794  15.698  0.00  0.00    +0.000 C 
ENDBRANCH  11  18
ENDBRANCH   7  14
ENDBRANCH   1   8
BRANCH   4  19
ATOM     19  N   UNL     1      -1.148  11.368  22.166  0.00  0.00    +0.000 N 
ATOM     20  C   UNL     1      -0.905  12.660  22.610  0.00  0.00    +0.000 C 
ATOM     21  O   UNL     1       0.037  13.379  22.282  0.00  0.00    +0.000 OA
ATOM     22  H   UNL     1      -1.943  10.901  22.599  0.00  0.00    +0.000 HD
BRANCH  20  23
ATOM     23  C   UNL     1      -2.009  13.206  23.519  0.00  0.00    +0.000 C 
ATOM     24  C   UNL     1      -3.208  12.272  23.534  0.00  0.00    +0.000 C 
ATOM     25  C   UNL     1      -4.297  13.181  24.026  0.00  0.00    +0.000 C 
ATOM     26  C   UNL     1      -3.936  14.496  23.364  0.00  0.00    +0.000 C 
ATOM     27  O   UNL     1      -2.511  14.498  23.157  0.00  0.00    +0.000 OA
ENDBRANCH  20  23
ENDBRANCH   4  19
TORSDOF 5
ENDMDL
MODEL 2
REMARK VINA RESULT:      -7.5      0.433      1.425
REMARK  Name = 
REMARK  6 active torsions:
REMARK  status: ('A' for Active; 'I' for Inactive)
REMARK    1  A    between atoms: C_1  and  C_2
REMARK    2  A    between atoms: C_2  and  C_3
REMARK    3  A    between atoms: C_6  and  N_7
REMARK    4  A    between atoms: C_8  and  C_10
REMARK    5  A    between atoms: C_13  and  N_14
REMARK    6  A    between atoms: C_15  and  C_17
REMARK                            x       y       z     vdW  Elec       q    Type
REMARK                         _______ _______ _______ _____ _____    ______ ____
ROOT
ATOM      1  C   UNL     1       0.979   9.603  19.260  0.00  0.00    +0.000 A 
ATOM      2  C   UNL     1       0.223  10.688  18.822  0.00  0.00    +0.000 A 
ATOM      3  C   UNL     1      -0.592  11.379  19.721  0.00  0.00    +0.000 A 
ATOM      4  C   UNL     1      -0.685  10.999  21.062  0.00  0.00    +0.000 A 
ATOM      5  C   UNL     1       0.056   9.891  21.494  0.00  0.00    +0.000 A 
ATOM      6  C   UNL     1       0.879   9.194  20.597  0.00  0.00    +0.000 A 
ENDROOT
BRANCH   1   8
ATOM      7  N   UNL     1       2.266   7.602  18.774  0.00  0.00    +0.000 N 
ATOM      8  C   UNL     1       1.857   8.849  18.324  0.00  0.00    +0.000 C 
ATOM      9  O   UNL     1       2.120   9.371  17.248  0.00  0.00    +0.000 OA
ATOM     10  H   UNL     1       1.873   7.269  19.646  0.00  0.00    +0.000 HD
BRANCH   7  14
ATOM     11  C   UNL     1       4.645   4.763  16.726  0.00  0.00    +0.000 A 
ATOM     12  C   UNL     1       5.005   6.112  16.708  0.00  0.00    +0.000 A 
ATOM     13  C   UNL     1       4.240   7.064  17.390  0.00  0.00    +0.000 A 
ATOM     14  C   UNL     1       3.103   6.687  18.099  0.00  0.00    +0.000 A 
ATOM     15  C   UNL     1       2.759   5.330  18.148  0.00  0.00    +0.000 A 
ATOM     16  C   UNL     1       3.525   4.374  17.468  0.00  0.00    +0.000 A 
BRANCH  11  18
ATOM     17  C   UNL     1       6.196   4.374  14.787  0.00  0.00    +0.000 C 
ATOM     18  C   UNL     1       5.464   3.752  15.965  0.00  0.00    +0.000 C 
ENDBRANCH  11  18
ENDBRANCH   7  14
ENDBRANCH   1   8
BRANCH   4  19
ATOM     19  N   UNL     1      -1.508  11.670  21.991  0.00  0.00    +0.000 N 
ATOM     20  C   UNL     1      -1.168  12.793  22.732  0.00  0.00    +0.000 C 
ATOM     21  O   UNL     1      -0.086  13.377  22.715  0.00  0.00    +0.000 OA
ATOM     22  H   UNL     1      -2.430  11.282  22.186  0.00  0.00    +0.000 HD
BRANCH  20  23
ATOM     23  C   UNL     1      -2.332  13.351  23.555  0.00  0.00    +0.000 C 
ATOM     24  C   UNL     1      -3.347  12.263  23.862  0.00  0.00    +0.000 C 
ATOM     25  C   UNL     1      -4.569  13.071  24.194  0.00  0.00    +0.000 C 
ATOM     26  C   UNL     1      -4.457  14.228  23.221  0.00  0.00    +0.000 C 
ATOM     27  O   UNL     1      -3.060  14.416  22.931  0.00  0.00    +0.000 OA
ENDBRANCH  20  23
ENDBRANCH   4  19
TORSDOF 5
ENDMDL
MODEL 3
REMARK VINA RESULT:      -7.4      0.340      1.019
REMARK  Name = 
REMARK  6 active torsions:
REMARK  status: ('A' for Active; 'I' for Inactive)
REMARK    1  A    between atoms: C_1  and  C_2
REMARK    2  A    between atoms: C_2  and  C_3
REMARK    3  A    between atoms: C_6  and  N_7
REMARK    4  A    between atoms: C_8  and  C_10
REMARK    5  A    between atoms: C_13  and  N_14
REMARK    6  A    between atoms: C_15  and  C_17
REMARK                            x       y       z     vdW  Elec       q    Type
REMARK                         _______ _______ _______ _____ _____    ______ ____
ROOT
ATOM      1  C   UNL     1       1.023   9.524  19.315  0.00  0.00    +0.000 A 
ATOM      2  C   UNL     1       0.145  10.519  18.892  0.00  0.00    +0.000 A 
ATOM      3  C   UNL     1      -0.628  11.210  19.826  0.00  0.00    +0.000 A 
ATOM      4  C   UNL     1      -0.558  10.919  21.191  0.00  0.00    +0.000 A 
ATOM      5  C   UNL     1       0.307   9.900  21.611  0.00  0.00    +0.000 A 
ATOM      6  C   UNL     1       1.089   9.202  20.677  0.00  0.00    +0.000 A 
ENDROOT
BRANCH   1   8
ATOM      7  N   UNL     1       2.252   7.506  18.753  0.00  0.00    +0.000 N 
ATOM      8  C   UNL     1       1.859   8.772  18.341  0.00  0.00    +0.000 C 
ATOM      9  O   UNL     1       2.108   9.311  17.269  0.00  0.00    +0.000 OA
ATOM     10  H   UNL     1       1.874   7.163  19.628  0.00  0.00    +0.000 HD
BRANCH   7  14
ATOM     11  C   UNL     1       4.775   4.850  16.635  0.00  0.00    +0.000 A 
ATOM     12  C   UNL     1       3.655   4.356  17.308  0.00  0.00    +0.000 A 
ATOM     13  C   UNL     1       2.802   5.218  18.001  0.00  0.00    +0.000 A 
ATOM     14  C   UNL     1       3.051   6.588  18.038  0.00  0.00    +0.000 A 
ATOM     15  C   UNL     1       4.154   7.091  17.335  0.00  0.00    +0.000 A 
ATOM     16  C   UNL     1       5.009   6.228  16.637  0.00  0.00    +0.000 A 
BRANCH  11  18
ATOM     17  C   UNL     1       6.961   4.596  15.419  0.00  0.00    +0.000 C 
ATOM     18  C   UNL     1       5.702   3.904  15.914  0.00  0.00    +0.000 C 
ENDBRANCH  11  18
ENDBRANCH   7  14
ENDBRANCH   1   8
BRANCH   4  19
ATOM     19  N   UNL     1      -1.334  11.593  22.157  0.00  0.00    +0.000 N 
ATOM     20  C   UNL     1      -1.016  12.792  22.779  0.00  0.00    +0.000 C 
ATOM     21  O   UNL     1       0.003  13.456  22.603  0.00  0.00    +0.000 OA
ATOM     22  H   UNL     1      -2.194  11.150  22.478  0.00  0.00    +0.000 HD
BRANCH  20  23
ATOM     23  C   UNL     1      -2.132  13.319  23.685  0.00  0.00    +0.000 C 
ATOM     24  C   UNL     1      -3.344  12.403  23.637  0.00  0.00    +0.000 C 
ATOM     25  C   UNL     1      -4.431  13.310  24.141  0.00  0.00    +0.000 C 
ATOM     26  C   UNL     1      -4.035  14.643  23.539  0.00  0.00    +0.000 C 
ATOM     27  O   UNL     1      -2.607  14.632  23.363  0.00  0.00    +0.000 OA
ENDBRANCH  20  23
ENDBRANCH   4  19
TORSDOF 5
ENDMDL
MODEL 4
REMARK VINA RESULT:      -7.4      0.595      1.129
REMARK  Name = 
REMARK  6 active torsions:
REMARK  status: ('A' for Active; 'I' for Inactive)
REMARK    1  A    between atoms: C_1  and  C_2
REMARK    2  A    between atoms: C_2  and  C_3
REMARK    3  A    between atoms: C_6  and  N_7
REMARK    4  A    between atoms: C_8  and  C_10
REMARK    5  A    between atoms: C_13  and  N_14
REMARK    6  A    between atoms: C_15  and  C_17
REMARK                            x       y       z     vdW  Elec       q    Type
REMARK                         _______ _______ _______ _____ _____    ______ ____
ROOT
ATOM      1  C   UNL     1       0.965   9.580  19.160  0.00  0.00    +0.000 A 
ATOM      2  C   UNL     1       0.917   9.297  20.524  0.00  0.00    +0.000 A 
ATOM      3  C   UNL     1       0.040   9.999  21.352  0.00  0.00    +0.000 A 
ATOM      4  C   UNL     1      -0.792  11.003  20.850  0.00  0.00    +0.000 A 
ATOM      5  C   UNL     1      -0.724  11.304  19.484  0.00  0.00    +0.000 A 
ATOM      6  C   UNL     1       0.153  10.599  18.645  0.00  0.00    +0.000 A 
ENDROOT
BRANCH   1   8
ATOM      7  N   UNL     1       2.261   7.582  18.688  0.00  0.00    +0.000 N 
ATOM      8  C   UNL     1       1.889   8.846  18.254  0.00  0.00    +0.000 C 
ATOM      9  O   UNL     1       2.219   9.398  17.211  0.00  0.00    +0.000 OA
ATOM     10  H   UNL     1       1.815   7.227  19.526  0.00  0.00    +0.000 HD
BRANCH   7  14
ATOM     11  C   UNL     1       4.731   4.781  16.697  0.00  0.00    +0.000 A 
ATOM     12  C   UNL     1       5.099   6.128  16.734  0.00  0.00    +0.000 A 
ATOM     13  C   UNL     1       4.304   7.067  17.399  0.00  0.00    +0.000 A 
ATOM     14  C   UNL     1       3.128   6.679  18.036  0.00  0.00    +0.000 A 
ATOM     15  C   UNL     1       2.774   5.323  18.029  0.00  0.00    +0.000 A 
ATOM     16  C   UNL     1       3.571   4.381  17.367  0.00  0.00    +0.000 A 
BRANCH  11  18
ATOM     17  C   UNL     1       6.022   4.303  14.594  0.00  0.00    +0.000 C 
ATOM     18  C   UNL     1       5.584   3.785  15.954  0.00  0.00    +0.000 C 
ENDBRANCH  11  18
ENDBRANCH   7  14
ENDBRANCH   1   8
BRANCH   4  19
ATOM     19  N   UNL     1      -1.681  11.737  21.664  0.00  0.00    +0.000 N 
ATOM     20  C   UNL     1      -1.331  12.652  22.647  0.00  0.00    +0.000 C 
ATOM     21  O   UNL     1      -0.190  12.960  22.984  0.00  0.00    +0.000 OA
ATOM     22  H   UNL     1      -2.679  11.559  21.569  0.00  0.00    +0.000 HD
BRANCH  20  23
ATOM     23  C   UNL     1      -2.536  13.371  23.260  0.00  0.00    +0.000 C 
ATOM     24  C   UNL     1      -3.453  12.385  23.965  0.00  0.00    +0.000 C 
ATOM     25  C   UNL     1      -4.738  13.159  24.033  0.00  0.00    +0.000 C 
ATOM     26  C   UNL     1      -4.730  13.903  22.713  0.00  0.00    +0.000 C 
ATOM     27  O   UNL     1      -3.355  14.087  22.328  0.00  0.00    +0.000 OA
ENDBRANCH  20  23
ENDBRANCH   4  19
TORSDOF 5
ENDMDL
MODEL 5
REMARK VINA RESULT:      -7.4      2.980     10.809
REMARK  Name = 
REMARK  6 active torsions:
REMARK  status: ('A' for Active; 'I' for Inactive)
REMARK    1  A    between atoms: C_1  and  C_2
REMARK    2  A    between atoms: C_2  and  C_3
REMARK    3  A    between atoms: C_6  and  N_7
REMARK    4  A    between atoms: C_8  and  C_10
REMARK    5  A    between atoms: C_13  and  N_14
REMARK    6  A    between atoms: C_15  and  C_17
REMARK                            x       y       z     vdW  Elec       q    Type
REMARK                         _______ _______ _______ _____ _____    ______ ____
ROOT
ATOM      1  C   UNL     1       2.827   6.595  18.887  0.00  0.00    +0.000 A 
ATOM      2  C   UNL     1       3.087   5.228  18.827  0.00  0.00    +0.000 A 
ATOM      3  C   UNL     1       3.867   4.710  17.791  0.00  0.00    +0.000 A 
ATOM      4  C   UNL     1       4.389   5.533  16.789  0.00  0.00    +0.000 A 
ATOM      5  C   UNL     1       4.104   6.904  16.837  0.00  0.00    +0.000 A 
ATOM      6  C   UNL     1       3.323   7.431  17.878  0.00  0.00    +0.000 A 
ENDROOT
BRANCH   1   8
ATOM      7  N   UNL     1       1.648   8.505  19.813  0.00  0.00    +0.000 N 
ATOM      8  C   UNL     1       2.000   7.174  19.980  0.00  0.00    +0.000 C 
ATOM      9  O   UNL     1       1.686   6.436  20.907  0.00  0.00    +0.000 OA
ATOM     10  H   UNL     1       1.899   8.947  18.936  0.00  0.00    +0.000 HD
BRANCH   7  14
ATOM     11  C   UNL     1      -0.688  10.984  22.325  0.00  0.00    +0.000 A 
ATOM     12  C   UNL     1      -0.517   9.635  22.645  0.00  0.00    +0.000 A 
ATOM     13  C   UNL     1       0.262   8.803  21.836  0.00  0.00    +0.000 A 
ATOM     14  C   UNL     1       0.882   9.300  20.694  0.00  0.00    +0.000 A 
ATOM     15  C   UNL     1       0.741  10.661  20.388  0.00  0.00    +0.000 A 
ATOM     16  C   UNL     1      -0.036  11.497  21.199  0.00  0.00    +0.000 A 
BRANCH  11  18
ATOM     17  C   UNL     1      -2.754  12.410  22.441  0.00  0.00    +0.000 C 
ATOM     18  C   UNL     1      -1.553  11.862  23.193  0.00  0.00    +0.000 C 
ENDBRANCH  11  18
ENDBRANCH   7  14
ENDBRANCH   1   8
BRANCH   4  19
ATOM     19  N   UNL     1       5.170   5.038  15.724  0.00  0.00    +0.000 N 
ATOM     20  C   UNL     1       6.534   5.224  15.548  0.00  0.00    +0.000 C 
ATOM     21  O   UNL     1       7.283   5.867  16.281  0.00  0.00    +0.000 OA
ATOM     22  H   UNL     1       4.699   4.530  14.977  0.00  0.00    +0.000 HD
BRANCH  20  23
ATOM     23  C   UNL     1       7.102   4.449  14.356  0.00  0.00    +0.000 C 
ATOM     24  C   UNL     1       7.472   5.392  13.224  0.00  0.00    +0.000 C 
ATOM     25  C   UNL     1       7.509   4.458  12.048  0.00  0.00    +0.000 C 
ATOM     26  C   UNL     1       6.370   3.509  12.362  0.00  0.00    +0.000 C 
ATOM     27  O   UNL     1       6.220   3.470  13.793  0.00  0.00    +0.000 OA
ENDBRANCH  20  23
ENDBRANCH   4  19
TORSDOF 5
ENDMDL
MODEL 6
REMARK VINA RESULT:      -7.3      1.311      2.009
REMARK  Name = 
REMARK  6 active torsions:
REMARK  status: ('A' for Active; 'I' for Inactive)
REMARK    1  A    between atoms: C_1  and  C_2
REMARK    2  A    between atoms: C_2  and  C_3
REMARK    3  A    between atoms: C_6  and  N_7
REMARK    4  A    between atoms: C_8  and  C_10
REMARK    5  A    between atoms: C_13  and  N_14
REMARK    6  A    between atoms: C_15  and  C_17
REMARK                            x       y       z     vdW  Elec       q    Type
REMARK                         _______ _______ _______ _____ _____    ______ ____
ROOT
ATOM      1  C   UNL     1       1.628   8.081  20.001  0.00  0.00    +0.000 A 
ATOM      2  C   UNL     1       1.229   9.153  19.205  0.00  0.00    +0.000 A 
ATOM      3  C   UNL     1       0.406  10.148  19.736  0.00  0.00    +0.000 A 
ATOM      4  C   UNL     1      -0.048  10.092  21.056  0.00  0.00    +0.000 A 
ATOM      5  C   UNL     1       0.333   9.000  21.847  0.00  0.00    +0.000 A 
ATOM      6  C   UNL     1       1.163   7.997  21.320  0.00  0.00    +0.000 A 
ENDROOT
BRANCH   1   8
ATOM      7  N   UNL     1       2.993   7.231  18.182  0.00  0.00    +0.000 N 
ATOM      8  C   UNL     1       2.505   7.007  19.461  0.00  0.00    +0.000 C 
ATOM      9  O   UNL     1       2.738   6.046  20.185  0.00  0.00    +0.000 OA
ATOM     10  H   UNL     1       2.793   8.129  17.757  0.00  0.00    +0.000 HD
BRANCH   7  14
ATOM     11  C   UNL     1       5.383   4.579  15.909  0.00  0.00    +0.000 A 
ATOM     12  C   UNL     1       5.666   5.947  15.904  0.00  0.00    +0.000 A 
ATOM     13  C   UNL     1       4.898   6.837  16.659  0.00  0.00    +0.000 A 
ATOM     14  C   UNL     1       3.833   6.380  17.430  0.00  0.00    +0.000 A 
ATOM     15  C   UNL     1       3.567   5.005  17.464  0.00  0.00    +0.000 A 
ATOM     16  C   UNL     1       4.338   4.110  16.711  0.00  0.00    +0.000 A 
BRANCH  11  18
ATOM     17  C   UNL     1       6.041   3.897  13.581  0.00  0.00    +0.000 C 
ATOM     18  C   UNL     1       6.203   3.634  15.069  0.00  0.00    +0.000 C 
ENDBRANCH  11  18
ENDBRANCH   7  14
ENDBRANCH   1   8
BRANCH   4  19
ATOM     19  N   UNL     1      -0.889  11.076  21.617  0.00  0.00    +0.000 N 
ATOM     20  C   UNL     1      -0.527  12.373  21.955  0.00  0.00    +0.000 C 
ATOM     21  O   UNL     1       0.590  12.872  21.838  0.00  0.00    +0.000 OA
ATOM     22  H   UNL     1      -1.847  10.817  21.847  0.00  0.00    +0.000 HD
BRANCH  20  23
ATOM     23  C   UNL     1      -1.707  13.228  22.424  0.00  0.00    +0.000 C 
ATOM     24  C   UNL     1      -1.321  14.065  23.632  0.00  0.00    +0.000 C 
ATOM     25  C   UNL     1      -2.666  14.403  24.211  0.00  0.00    +0.000 C 
ATOM     26  C   UNL     1      -3.448  13.129  23.960  0.00  0.00    +0.000 C 
ATOM     27  O   UNL     1      -2.878  12.493  22.801  0.00  0.00    +0.000 OA
ENDBRANCH  20  23
ENDBRANCH   4  19
TORSDOF 5
ENDMDL
MODEL 7
REMARK VINA RESULT:      -7.3      1.269      1.688
REMARK  Name = 
REMARK  6 active torsions:
REMARK  status: ('A' for Active; 'I' for Inactive)
REMARK    1  A    between atoms: C_1  and  C_2
REMARK    2  A    between atoms: C_2  and  C_3
REMARK    3  A    between atoms: C_6  and  N_7
REMARK    4  A    between atoms: C_8  and  C_10
REMARK    5  A    between atoms: C_13  and  N_14
REMARK    6  A    between atoms: C_15  and  C_17
REMARK                            x       y       z     vdW  Elec       q    Type
REMARK                         _______ _______ _______ _____ _____    ______ ____
ROOT
ATOM      1  C   UNL     1       1.002   9.663  19.150  0.00  0.00    +0.000 A 
ATOM      2  C   UNL     1       0.612   9.149  20.385  0.00  0.00    +0.000 A 
ATOM      3  C   UNL     1      -0.242   9.884  21.209  0.00  0.00    +0.000 A 
ATOM      4  C   UNL     1      -0.713  11.145  20.832  0.00  0.00    +0.000 A 
ATOM      5  C   UNL     1      -0.299  11.670  19.601  0.00  0.00    +0.000 A 
ATOM      6  C   UNL     1       0.558  10.935  18.767  0.00  0.00    +0.000 A 
ENDROOT
BRANCH   1   8
ATOM      7  N   UNL     1       2.263   7.637  18.703  0.00  0.00    +0.000 N 
ATOM      8  C   UNL     1       1.912   8.901  18.252  0.00  0.00    +0.000 C 
ATOM      9  O   UNL     1       2.248   9.432  17.201  0.00  0.00    +0.000 OA
ATOM     10  H   UNL     1       1.813   7.301  19.547  0.00  0.00    +0.000 HD
BRANCH   7  14
ATOM     11  C   UNL     1       4.679   4.766  16.746  0.00  0.00    +0.000 A 
ATOM     12  C   UNL     1       5.073   6.106  16.768  0.00  0.00    +0.000 A 
ATOM     13  C   UNL     1       4.296   7.067  17.421  0.00  0.00    +0.000 A 
ATOM     14  C   UNL     1       3.113   6.710  18.062  0.00  0.00    +0.000 A 
ATOM     15  C   UNL     1       2.732   5.361  18.071  0.00  0.00    +0.000 A 
ATOM     16  C   UNL     1       3.511   4.396  17.420  0.00  0.00    +0.000 A 
BRANCH  11  18
ATOM     17  C   UNL     1       6.213   4.335  14.802  0.00  0.00    +0.000 C 
ATOM     18  C   UNL     1       5.513   3.745  16.015  0.00  0.00    +0.000 C 
ENDBRANCH  11  18
ENDBRANCH   7  14
ENDBRANCH   1   8
BRANCH   4  19
ATOM     19  N   UNL     1      -1.569  11.915  21.647  0.00  0.00    +0.000 N 
ATOM     20  C   UNL     1      -2.762  12.507  21.259  0.00  0.00    +0.000 C 
ATOM     21  O   UNL     1      -3.263  12.473  20.137  0.00  0.00    +0.000 OA
ATOM     22  H   UNL     1      -1.278  12.106  22.604  0.00  0.00    +0.000 HD
BRANCH  20  23
ATOM     23  C   UNL     1      -3.515  13.168  22.417  0.00  0.00    +0.000 C 
ATOM     24  C   UNL     1      -2.545  13.814  23.393  0.00  0.00    +0.000 C 
ATOM     25  C   UNL     1      -3.391  13.934  24.629  0.00  0.00    +0.000 C 
ATOM     26  C   UNL     1      -4.213  12.662  24.575  0.00  0.00    +0.000 C 
ATOM     27  O   UNL     1      -4.336  12.285  23.191  0.00  0.00    +0.000 OA
ENDBRANCH  20  23
ENDBRANCH   4  19
TORSDOF 5
ENDMDL
MODEL 8
REMARK VINA RESULT:      -7.2      2.042     10.440
REMARK  Name = 
REMARK  6 active torsions:
REMARK  status: ('A' for Active; 'I' for Inactive)
REMARK    1  A    between atoms: C_1  and  C_2
REMARK    2  A    between atoms: C_2  and  C_3
REMARK    3  A    between atoms: C_6  and  N_7
REMARK    4  A    between atoms: C_8  and  C_10
REMARK    5  A    between atoms: C_13  and  N_14
REMARK    6  A    between atoms: C_15  and  C_17
REMARK                            x       y       z     vdW  Elec       q    Type
REMARK                         _______ _______ _______ _____ _____    ______ ____
ROOT
ATOM      1  C   UNL     1       0.863   9.320  19.588  0.00  0.00    +0.000 A 
ATOM      2  C   UNL     1       1.352   9.378  18.284  0.00  0.00    +0.000 A 
ATOM      3  C   UNL     1       2.263   8.420  17.838  0.00  0.00    +0.000 A 
ATOM      4  C   UNL     1       2.718   7.399  18.676  0.00  0.00    +0.000 A 
ATOM      5  C   UNL     1       2.245   7.358  19.994  0.00  0.00    +0.000 A 
ATOM      6  C   UNL     1       1.327   8.317  20.449  0.00  0.00    +0.000 A 
ENDROOT
BRANCH   1   8
ATOM      7  N   UNL     1       0.163  10.835  21.352  0.00  0.00    +0.000 N 
ATOM      8  C   UNL     1      -0.110  10.328  20.090  0.00  0.00    +0.000 C 
ATOM      9  O   UNL     1      -1.039  10.637  19.353  0.00  0.00    +0.000 OA
ATOM     10  H   UNL     1       1.033  10.553  21.789  0.00  0.00    +0.000 HD
BRANCH   7  14
ATOM     11  C   UNL     1      -2.067  13.803  23.384  0.00  0.00    +0.000 A 
ATOM     12  C   UNL     1      -2.425  12.458  23.509  0.00  0.00    +0.000 A 
ATOM     13  C   UNL     1      -1.692  11.461  22.857  0.00  0.00    +0.000 A 
ATOM     14  C   UNL     1      -0.593  11.788  22.069  0.00  0.00    +0.000 A 
ATOM     15  C   UNL     1      -0.211  13.132  21.969  0.00  0.00    +0.000 A 
ATOM     16  C   UNL     1      -0.941  14.132  22.624  0.00  0.00    +0.000 A 
BRANCH  11  18
ATOM     17  C   UNL     1      -2.433  15.102  25.505  0.00  0.00    +0.000 C 
ATOM     18  C   UNL     1      -2.882  14.868  24.072  0.00  0.00    +0.000 C 
ENDBRANCH  11  18
ENDBRANCH   7  14
ENDBRANCH   1   8
BRANCH   4  19
ATOM     19  N   UNL     1       3.647   6.423  18.257  0.00  0.00    +0.000 N 
ATOM     20  C   UNL     1       3.349   5.158  17.771  0.00  0.00    +0.000 C 
ATOM     21  O   UNL     1       2.228   4.671  17.643  0.00  0.00    +0.000 OA
ATOM     22  H   UNL     1       4.640   6.630  18.354  0.00  0.00    +0.000 HD
BRANCH  20  23
ATOM     23  C   UNL     1       4.581   4.391  17.282  0.00  0.00    +0.000 C 
ATOM     24  C   UNL     1       5.848   4.946  17.913  0.00  0.00    +0.000 C 
ATOM     25  C   UNL     1       6.904   4.443  16.970  0.00  0.00    +0.000 C 
ATOM     26  C   UNL     1       6.206   4.547  15.629  0.00  0.00    +0.000 C 
ATOM     27  O   UNL     1       4.792   4.420  15.865  0.00  0.00    +0.000 OA
ENDBRANCH  20  23
ENDBRANCH   4  19
TORSDOF 5
ENDMDL
MODEL 9
REMARK VINA RESULT:      -7.2      2.084     10.420
REMARK  Name = 
REMARK  6 active torsions:
REMARK  status: ('A' for Active; 'I' for Inactive)
REMARK    1  A    between atoms: C_1  and  C_2
REMARK    2  A    between atoms: C_2  and  C_3
REMARK    3  A    between atoms: C_6  and  N_7
REMARK    4  A    between atoms: C_8  and  C_10
REMARK    5  A    between atoms: C_13  and  N_14
REMARK    6  A    between atoms: C_15  and  C_17
REMARK                            x       y       z     vdW  Elec       q    Type
REMARK                         _______ _______ _______ _____ _____    ______ ____
ROOT
ATOM      1  C   UNL     1       1.068   9.079  19.570  0.00  0.00    +0.000 A 
ATOM      2  C   UNL     1       1.459   8.014  20.379  0.00  0.00    +0.000 A 
ATOM      3  C   UNL     1       2.390   7.086  19.909  0.00  0.00    +0.000 A 
ATOM      4  C   UNL     1       2.939   7.187  18.628  0.00  0.00    +0.000 A 
ATOM      5  C   UNL     1       2.525   8.244  17.807  0.00  0.00    +0.000 A 
ATOM      6  C   UNL     1       1.591   9.182  18.274  0.00  0.00    +0.000 A 
ENDROOT
BRANCH   1   8
ATOM      7  N   UNL     1       0.382  10.683  21.258  0.00  0.00    +0.000 N 
ATOM      8  C   UNL     1       0.078  10.083  20.045  0.00  0.00    +0.000 C 
ATOM      9  O   UNL     1      -0.891  10.307  19.330  0.00  0.00    +0.000 OA
ATOM     10  H   UNL     1       1.279  10.463  21.675  0.00  0.00    +0.000 HD
BRANCH   7  14
ATOM     11  C   UNL     1      -1.877  13.700  23.183  0.00  0.00    +0.000 A 
ATOM     12  C   UNL     1      -2.181  12.355  23.408  0.00  0.00    +0.000 A 
ATOM     13  C   UNL     1      -1.438  11.344  22.793  0.00  0.00    +0.000 A 
ATOM     14  C   UNL     1      -0.381  11.655  21.942  0.00  0.00    +0.000 A 
ATOM     15  C   UNL     1      -0.053  13.002  21.741  0.00  0.00    +0.000 A 
ATOM     16  C   UNL     1      -0.794  14.017  22.359  0.00  0.00    +0.000 A 
BRANCH  11  18
ATOM     17  C   UNL     1      -2.291  15.035  25.273  0.00  0.00    +0.000 C 
ATOM     18  C   UNL     1      -2.705  14.780  23.833  0.00  0.00    +0.000 C 
ENDBRANCH  11  18
ENDBRANCH   7  14
ENDBRANCH   1   8
BRANCH   4  19
ATOM     19  N   UNL     1       3.874   6.260  18.122  0.00  0.00    +0.000 N 
ATOM     20  C   UNL     1       3.591   5.000  17.614  0.00  0.00    +0.000 C 
ATOM     21  O   UNL     1       2.482   4.476  17.538  0.00  0.00    +0.000 OA
ATOM     22  H   UNL     1       4.863   6.500  18.166  0.00  0.00    +0.000 HD
BRANCH  20  23
ATOM     23  C   UNL     1       4.817   4.294  17.028  0.00  0.00    +0.000 C 
ATOM     24  C   UNL     1       6.100   4.881  17.593  0.00  0.00    +0.000 C 
ATOM     25  C   UNL     1       7.111   4.443  16.572  0.00  0.00    +0.000 C 
ATOM     26  C   UNL     1       6.326   4.556  15.280  0.00  0.00    +0.000 C 
ATOM     27  O   UNL     1       4.935   4.367  15.601  0.00  0.00    +0.000 OA
ENDBRANCH  20  23
ENDBRANCH   4  19
TORSDOF 5
ENDMDL
