MODEL 1
REMARK VINA RESULT:      -7.6      0.000      0.000
REMARK  Name = 
REMARK  7 active torsions:
REMARK  status: ('A' for Active; 'I' for Inactive)
REMARK    1  A    between atoms: C_1  and  C_2
REMARK    2  A    between atoms: C_2  and  C_3
REMARK    3  A    between atoms: C_2  and  C_4
REMARK    4  A    between atoms: C_4  and  C_5
REMARK    5  A    between atoms: N_7  and  C_8
REMARK    6  A    between atoms: N_7  and  C_17
REMARK    7  A    between atoms: C_8  and  C_9
REMARK                            x       y       z     vdW  Elec       q    Type
REMARK                         _______ _______ _______ _____ _____    ______ ____
ROOT
ATOM      1  C   UNL     1       6.286   4.567  14.564  0.00  0.00    +0.000 C 
ATOM      2  O   UNL     1       6.916   5.450  13.982  0.00  0.00    +0.000 OA
ATOM      3  N   UNL     1       6.391   4.373  15.941  0.00  0.00    +0.000 N 
ENDROOT
BRANCH   3   4
ATOM      4  C   UNL     1       7.372   5.171  16.706  0.00  0.00    +0.000 C 
ATOM      5  C   UNL     1       6.942   6.611  16.984  0.00  0.00    +0.000 C 
ATOM      6  C   UNL     1       7.806   6.981  18.169  0.00  0.00    +0.000 C 
ATOM      7  N   UNL     1       7.802   5.785  19.018  0.00  0.00    +0.000 NA
ATOM      8  C   UNL     1       7.757   4.630  18.093  0.00  0.00    +0.000 C 
ATOM      9  H   UNL     1       6.919   5.776  19.536  0.00  0.00    +0.000 HD
ENDBRANCH   3   4
BRANCH   1  10
ATOM     10  C   UNL     1       5.355   3.654  13.779  0.00  0.00    +0.000 C 
BRANCH  10  12
ATOM     11  C   UNL     1       6.717   2.726  11.859  0.00  0.00    +0.000 C 
ATOM     12  C   UNL     1       5.610   3.707  12.263  0.00  0.00    +0.000 C 
ATOM     13  C   UNL     1       4.324   3.367  11.507  0.00  0.00    +0.000 C 
ENDBRANCH  10  12
ENDBRANCH   1  10
BRANCH   3  14
ATOM     14  C   UNL     1       5.567   3.418  16.701  0.00  0.00    +0.000 C 
BRANCH  14  15
ATOM     15  C   UNL     1       4.287   3.989  17.296  0.00  0.00    +0.000 A 
ATOM     16  C   UNL     1       4.031   5.372  17.295  0.00  0.00    +0.000 A 
ATOM     17  C   UNL     1       2.801   5.885  17.707  0.00  0.00    +0.000 A 
ATOM     18  C   UNL     1       1.810   5.027  18.171  0.00  0.00    +0.000 A 
ATOM     19  C   UNL     1       2.065   3.658  18.264  0.00  0.00    +0.000 A 
ATOM     20 CL   UNL     1       0.793   2.662  18.887  0.00  0.00    +0.000 Cl
ATOM     21  C   UNL     1       3.303   3.136  17.846  0.00  0.00    +0.000 A 
ATOM     22 CL   UNL     1       3.636   1.440  18.020  0.00  0.00    +0.000 Cl
ENDBRANCH  14  15
ENDBRANCH   3  14
TORSDOF 5
ENDMDL
MODEL 2
REMARK VINA RESULT:      -7.6      1.434      1.737
REMARK  Name = 
REMARK  7 active torsions:
REMARK  status: ('A' for Active; 'I' for Inactive)
REMARK    1  A    between atoms: C_1  and  C_2
REMARK    2  A    between atoms: C_2  and  C_3
REMARK    3  A    between atoms: C_2  and  C_4
REMARK    4  A    between atoms: C_4  and  C_5
REMARK    5  A    between atoms: N_7  and  C_8
REMARK    6  A    between atoms: N_7  and  C_17
REMARK    7  A    between atoms: C_8  and  C_9
REMARK                            x       y       z     vdW  Elec       q    Type
REMARK                         _______ _______ _______ _____ _____    ______ ____
ROOT
ATOM      1  C   UNL     1       6.613   4.931  14.930  0.00  0.00    +0.000 C 
ATOM      2  O   UNL     1       7.710   5.383  14.606  0.00  0.00    +0.000 OA
ATOM      3  N   UNL     1       6.247   4.774  16.267  0.00  0.00    +0.000 N 
ENDROOT
BRANCH   3   4
ATOM      4  C   UNL     1       7.245   5.048  17.322  0.00  0.00    +0.000 C 
ATOM      5  C   UNL     1       7.469   6.531  17.616  0.00  0.00    +0.000 C 
ATOM      6  C   UNL     1       8.061   6.497  19.008  0.00  0.00    +0.000 C 
ATOM      7  N   UNL     1       7.285   5.472  19.715  0.00  0.00    +0.000 NA
ATOM      8  C   UNL     1       6.959   4.440  18.706  0.00  0.00    +0.000 C 
ATOM      9  H   UNL     1       6.396   5.896  19.995  0.00  0.00    +0.000 HD
ENDBRANCH   3   4
BRANCH   1  10
ATOM     10  C   UNL     1       5.608   4.531  13.860  0.00  0.00    +0.000 C 
BRANCH  10  12
ATOM     11  C   UNL     1       5.103   2.960  11.942  0.00  0.00    +0.000 C 
ATOM     12  C   UNL     1       6.204   3.572  12.815  0.00  0.00    +0.000 C 
ATOM     13  C   UNL     1       7.202   4.321  11.929  0.00  0.00    +0.000 C 
ENDBRANCH  10  12
ENDBRANCH   1  10
BRANCH   3  14
ATOM     14  C   UNL     1       4.905   4.359  16.708  0.00  0.00    +0.000 C 
BRANCH  14  15
ATOM     15  C   UNL     1       4.118   5.407  17.483  0.00  0.00    +0.000 A 
ATOM     16  C   UNL     1       4.055   6.744  17.052  0.00  0.00    +0.000 A 
ATOM     17  C   UNL     1       3.222   7.672  17.677  0.00  0.00    +0.000 A 
ATOM     18  C   UNL     1       2.462   7.294  18.777  0.00  0.00    +0.000 A 
ATOM     19  C   UNL     1       2.567   5.997  19.281  0.00  0.00    +0.000 A 
ATOM     20 CL   UNL     1       1.616   5.616  20.677  0.00  0.00    +0.000 Cl
ATOM     21  C   UNL     1       3.404   5.057  18.652  0.00  0.00    +0.000 A 
ATOM     22 CL   UNL     1       3.578   3.462  19.319  0.00  0.00    +0.000 Cl
ENDBRANCH  14  15
ENDBRANCH   3  14
TORSDOF 5
ENDMDL
MODEL 3
REMARK VINA RESULT:      -7.5      1.224      1.233
REMARK  Name = 
REMARK  7 active torsions:
REMARK  status: ('A' for Active; 'I' for Inactive)
REMARK    1  A    between atoms: C_1  and  C_2
REMARK    2  A    between atoms: C_2  and  C_3
REMARK    3  A    between atoms: C_2  and  C_4
REMARK    4  A    between atoms: C_4  and  C_5
REMARK    5  A    between atoms: N_7  and  C_8
REMARK    6  A    between atoms: N_7  and  C_17
REMARK    7  A    between atoms: C_8  and  C_9
REMARK                            x       y       z     vdW  Elec       q    Type
REMARK                         _______ _______ _______ _____ _____    ______ ____
ROOT
ATOM      1  C   UNL     1       6.339   4.753  14.739  0.00  0.00    +0.000 C 
ATOM      2  O   UNL     1       7.169   5.456  14.163  0.00  0.00    +0.000 OA
ATOM      3  N   UNL     1       6.315   4.630  16.128  0.00  0.00    +0.000 N 
ENDROOT
BRANCH   3   4
ATOM      4  C   UNL     1       7.384   5.267  16.925  0.00  0.00    +0.000 C 
ATOM      5  C   UNL     1       7.102   6.715  17.325  0.00  0.00    +0.000 C 
ATOM      6  C   UNL     1       8.022   6.906  18.511  0.00  0.00    +0.000 C 
ATOM      7  N   UNL     1       7.919   5.651  19.264  0.00  0.00    +0.000 NA
ATOM      8  C   UNL     1       7.743   4.584  18.254  0.00  0.00    +0.000 C 
ATOM      9  H   UNL     1       7.050   5.685  19.805  0.00  0.00    +0.000 HD
ENDBRANCH   3   4
BRANCH   1  10
ATOM     10  C   UNL     1       5.297   3.991  13.933  0.00  0.00    +0.000 C 
BRANCH  10  12
ATOM     11  C   UNL     1       6.826   3.004  12.175  0.00  0.00    +0.000 C 
ATOM     12  C   UNL     1       5.634   3.932  12.432  0.00  0.00    +0.000 C 
ATOM     13  C   UNL     1       4.419   3.434  11.646  0.00  0.00    +0.000 C 
ENDBRANCH  10  12
ENDBRANCH   1  10
BRANCH   3  14
ATOM     14  C   UNL     1       5.269   3.906  16.870  0.00  0.00    +0.000 C 
BRANCH  14  15
ATOM     15  C   UNL     1       4.356   4.773  17.725  0.00  0.00    +0.000 A 
ATOM     16  C   UNL     1       3.898   6.024  17.275  0.00  0.00    +0.000 A 
ATOM     17  C   UNL     1       2.950   6.755  17.991  0.00  0.00    +0.000 A 
ATOM     18  C   UNL     1       2.467   6.269  19.200  0.00  0.00    +0.000 A 
ATOM     19  C   UNL     1       2.965   5.071  19.716  0.00  0.00    +0.000 A 
ATOM     20 CL   UNL     1       2.339   4.553  21.245  0.00  0.00    +0.000 Cl
ATOM     21  C   UNL     1       3.918   4.330  18.995  0.00  0.00    +0.000 A 
ATOM     22 CL   UNL     1       4.579   2.871  19.669  0.00  0.00    +0.000 Cl
ENDBRANCH  14  15
ENDBRANCH   3  14
TORSDOF 5
ENDMDL
MODEL 4
REMARK VINA RESULT:      -7.5      1.584      2.165
REMARK  Name = 
REMARK  7 active torsions:
REMARK  status: ('A' for Active; 'I' for Inactive)
REMARK    1  A    between atoms: C_1  and  C_2
REMARK    2  A    between atoms: C_2  and  C_3
REMARK    3  A    between atoms: C_2  and  C_4
REMARK    4  A    between atoms: C_4  and  C_5
REMARK    5  A    between atoms: N_7  and  C_8
REMARK    6  A    between atoms: N_7  and  C_17
REMARK    7  A    between atoms: C_8  and  C_9
REMARK                            x       y       z     vdW  Elec       q    Type
REMARK                         _______ _______ _______ _____ _____    ______ ____
ROOT
ATOM      1  C   UNL     1       6.576   4.781  14.697  0.00  0.00    +0.000 C 
ATOM      2  O   UNL     1       7.735   4.501  14.393  0.00  0.00    +0.000 OA
ATOM      3  N   UNL     1       6.267   5.458  15.876  0.00  0.00    +0.000 N 
ENDROOT
BRANCH   3   4
ATOM      4  C   UNL     1       7.347   5.746  16.844  0.00  0.00    +0.000 C 
ATOM      5  C   UNL     1       7.148   7.025  17.657  0.00  0.00    +0.000 C 
ATOM      6  C   UNL     1       8.035   6.782  18.859  0.00  0.00    +0.000 C 
ATOM      7  N   UNL     1       7.821   5.371  19.198  0.00  0.00    +0.000 NA
ATOM      8  C   UNL     1       7.610   4.671  17.911  0.00  0.00    +0.000 C 
ATOM      9  H   UNL     1       6.936   5.307  19.711  0.00  0.00    +0.000 HD
ENDBRANCH   3   4
BRANCH   1  10
ATOM     10  C   UNL     1       5.431   4.392  13.773  0.00  0.00    +0.000 C 
BRANCH  10  12
ATOM     11  C   UNL     1       4.702   3.113  11.714  0.00  0.00    +0.000 C 
ATOM     12  C   UNL     1       5.878   3.455  12.636  0.00  0.00    +0.000 C 
ATOM     13  C   UNL     1       6.990   4.119  11.821  0.00  0.00    +0.000 C 
ENDBRANCH  10  12
ENDBRANCH   1  10
BRANCH   3  14
ATOM     14  C   UNL     1       4.915   5.927  16.224  0.00  0.00    +0.000 C 
BRANCH  14  15
ATOM     15  C   UNL     1       4.144   5.039  17.190  0.00  0.00    +0.000 A 
ATOM     16  C   UNL     1       4.254   3.637  17.146  0.00  0.00    +0.000 A 
ATOM     17  C   UNL     1       3.663   2.829  18.117  0.00  0.00    +0.000 A 
ATOM     18  C   UNL     1       2.911   3.402  19.135  0.00  0.00    +0.000 A 
ATOM     19  C   UNL     1       2.712   4.784  19.158  0.00  0.00    +0.000 A 
ATOM     20 CL   UNL     1       1.731   5.416  20.437  0.00  0.00    +0.000 Cl
ATOM     21  C   UNL     1       3.309   5.603  18.182  0.00  0.00    +0.000 A 
ATOM     22 CL   UNL     1       3.009   7.314  18.180  0.00  0.00    +0.000 Cl
ENDBRANCH  14  15
ENDBRANCH   3  14
TORSDOF 5
ENDMDL
MODEL 5
REMARK VINA RESULT:      -7.2      1.422      1.659
REMARK  Name = 
REMARK  7 active torsions:
REMARK  status: ('A' for Active; 'I' for Inactive)
REMARK    1  A    between atoms: C_1  and  C_2
REMARK    2  A    between atoms: C_2  and  C_3
REMARK    3  A    between atoms: C_2  and  C_4
REMARK    4  A    between atoms: C_4  and  C_5
REMARK    5  A    between atoms: N_7  and  C_8
REMARK    6  A    between atoms: N_7  and  C_17
REMARK    7  A    between atoms: C_8  and  C_9
REMARK                            x       y       z     vdW  Elec       q    Type
REMARK                         _______ _______ _______ _____ _____    ______ ____
ROOT
ATOM      1  C   UNL     1       6.442   4.534  15.377  0.00  0.00    +0.000 C 
ATOM      2  O   UNL     1       7.482   5.159  15.169  0.00  0.00    +0.000 OA
ATOM      3  N   UNL     1       5.681   4.735  16.528  0.00  0.00    +0.000 N 
ENDROOT
BRANCH   3   4
ATOM      4  C   UNL     1       6.193   5.636  17.581  0.00  0.00    +0.000 C 
ATOM      5  C   UNL     1       7.525   5.204  18.195  0.00  0.00    +0.000 C 
ATOM      6  C   UNL     1       8.044   6.499  18.781  0.00  0.00    +0.000 C 
ATOM      7  N   UNL     1       7.722   7.515  17.774  0.00  0.00    +0.000 NA
ATOM      8  C   UNL     1       6.438   7.097  17.169  0.00  0.00    +0.000 C 
ATOM      9  H   UNL     1       8.426   7.451  17.033  0.00  0.00    +0.000 HD
ENDBRANCH   3   4
BRANCH   1  10
ATOM     10  C   UNL     1       5.951   3.513  14.361  0.00  0.00    +0.000 C 
BRANCH  10  12
ATOM     11  C   UNL     1       7.125   3.921  12.157  0.00  0.00    +0.000 C 
ATOM     12  C   UNL     1       5.822   4.100  12.944  0.00  0.00    +0.000 C 
ATOM     13  C   UNL     1       4.676   3.414  12.199  0.00  0.00    +0.000 C 
ENDBRANCH  10  12
ENDBRANCH   1  10
BRANCH   3  14
ATOM     14  C   UNL     1       4.369   4.109  16.764  0.00  0.00    +0.000 C 
BRANCH  14  15
ATOM     15  C   UNL     1       3.622   4.602  17.995  0.00  0.00    +0.000 A 
ATOM     16  C   UNL     1       3.046   5.885  18.039  0.00  0.00    +0.000 A 
ATOM     17  C   UNL     1       2.240   6.286  19.104  0.00  0.00    +0.000 A 
ATOM     18  C   UNL     1       2.025   5.427  20.176  0.00  0.00    +0.000 A 
ATOM     19  C   UNL     1       2.652   4.180  20.202  0.00  0.00    +0.000 A 
ATOM     20 CL   UNL     1       2.364   3.184  21.588  0.00  0.00    +0.000 Cl
ATOM     21  C   UNL     1       3.462   3.770  19.127  0.00  0.00    +0.000 A 
ATOM     22 CL   UNL     1       4.288   2.243  19.192  0.00  0.00    +0.000 Cl
ENDBRANCH  14  15
ENDBRANCH   3  14
TORSDOF 5
ENDMDL
MODEL 6
REMARK VINA RESULT:      -7.2      1.709      2.264
REMARK  Name = 
REMARK  7 active torsions:
REMARK  status: ('A' for Active; 'I' for Inactive)
REMARK    1  A    between atoms: C_1  and  C_2
REMARK    2  A    between atoms: C_2  and  C_3
REMARK    3  A    between atoms: C_2  and  C_4
REMARK    4  A    between atoms: C_4  and  C_5
REMARK    5  A    between atoms: N_7  and  C_8
REMARK    6  A    between atoms: N_7  and  C_17
REMARK    7  A    between atoms: C_8  and  C_9
REMARK                            x       y       z     vdW  Elec       q    Type
REMARK                         _______ _______ _______ _____ _____    ______ ____
ROOT
ATOM      1  C   UNL     1       6.552   4.378  15.291  0.00  0.00    +0.000 C 
ATOM      2  O   UNL     1       7.705   4.807  15.293  0.00  0.00    +0.000 OA
ATOM      3  N   UNL     1       5.629   4.743  16.271  0.00  0.00    +0.000 N 
ENDROOT
BRANCH   3   4
ATOM      4  C   UNL     1       6.078   5.574  17.408  0.00  0.00    +0.000 C 
ATOM      5  C   UNL     1       7.287   5.020  18.162  0.00  0.00    +0.000 C 
ATOM      6  C   UNL     1       7.830   6.253  18.849  0.00  0.00    +0.000 C 
ATOM      7  N   UNL     1       7.715   7.317  17.845  0.00  0.00    +0.000 NA
ATOM      8  C   UNL     1       6.486   7.020  17.077  0.00  0.00    +0.000 C 
ATOM      9  H   UNL     1       8.497   7.213  17.192  0.00  0.00    +0.000 HD
ENDBRANCH   3   4
BRANCH   1  10
ATOM     10  C   UNL     1       6.095   3.427  14.195  0.00  0.00    +0.000 C 
BRANCH  10  12
ATOM     11  C   UNL     1       7.219   4.074  12.022  0.00  0.00    +0.000 C 
ATOM     12  C   UNL     1       5.921   4.127  12.835  0.00  0.00    +0.000 C 
ATOM     13  C   UNL     1       4.795   3.456  12.045  0.00  0.00    +0.000 C 
ENDBRANCH  10  12
ENDBRANCH   1  10
BRANCH   3  14
ATOM     14  C   UNL     1       4.207   4.361  16.244  0.00  0.00    +0.000 C 
BRANCH  14  15
ATOM     15  C   UNL     1       3.671   3.746  17.528  0.00  0.00    +0.000 A 
ATOM     16  C   UNL     1       3.894   2.393  17.843  0.00  0.00    +0.000 A 
ATOM     17  C   UNL     1       3.529   1.863  19.081  0.00  0.00    +0.000 A 
ATOM     18  C   UNL     1       2.894   2.666  20.021  0.00  0.00    +0.000 A 
ATOM     19  C   UNL     1       2.582   3.990  19.706  0.00  0.00    +0.000 A 
ATOM     20 CL   UNL     1       1.757   4.912  20.917  0.00  0.00    +0.000 Cl
ATOM     21  C   UNL     1       2.951   4.529  18.460  0.00  0.00    +0.000 A 
ATOM     22 CL   UNL     1       2.508   6.158  18.051  0.00  0.00    +0.000 Cl
ENDBRANCH  14  15
ENDBRANCH   3  14
TORSDOF 5
ENDMDL
MODEL 7
REMARK VINA RESULT:      -7.1      1.373      1.657
REMARK  Name = 
REMARK  7 active torsions:
REMARK  status: ('A' for Active; 'I' for Inactive)
REMARK    1  A    between atoms: C_1  and  C_2
REMARK    2  A    between atoms: C_2  and  C_3
REMARK    3  A    between atoms: C_2  and  C_4
REMARK    4  A    between atoms: C_4  and  C_5
REMARK    5  A    between atoms: N_7  and  C_8
REMARK    6  A    between atoms: N_7  and  C_17
REMARK    7  A    between atoms: C_8  and  C_9
REMARK                            x       y       z     vdW  Elec       q    Type
REMARK                         _______ _______ _______ _____ _____    ______ ____
ROOT
ATOM      1  C   UNL     1       5.774   4.677  15.171  0.00  0.00    +0.000 C 
ATOM      2  O   UNL     1       6.250   5.728  14.743  0.00  0.00    +0.000 OA
ATOM      3  N   UNL     1       5.574   4.461  16.534  0.00  0.00    +0.000 N 
ENDROOT
BRANCH   3   4
ATOM      4  C   UNL     1       6.054   5.472  17.500  0.00  0.00    +0.000 C 
ATOM      5  C   UNL     1       7.538   5.364  17.849  0.00  0.00    +0.000 C 
ATOM      6  C   UNL     1       7.848   6.752  18.365  0.00  0.00    +0.000 C 
ATOM      7  N   UNL     1       7.125   7.653  17.461  0.00  0.00    +0.000 NA
ATOM      8  C   UNL     1       5.881   6.944  17.090  0.00  0.00    +0.000 C 
ATOM      9  H   UNL     1       7.677   7.739  16.603  0.00  0.00    +0.000 HD
ENDBRANCH   3   4
BRANCH   1  10
ATOM     10  C   UNL     1       5.378   3.571  14.204  0.00  0.00    +0.000 C 
BRANCH  10  12
ATOM     11  C   UNL     1       7.002   3.492  12.265  0.00  0.00    +0.000 C 
ATOM     12  C   UNL     1       5.618   3.954  12.733  0.00  0.00    +0.000 C 
ATOM     13  C   UNL     1       4.541   3.321  11.849  0.00  0.00    +0.000 C 
ENDBRANCH  10  12
ENDBRANCH   1  10
BRANCH   3  14
ATOM     14  C   UNL     1       4.893   3.279  17.088  0.00  0.00    +0.000 C 
BRANCH  14  15
ATOM     15  C   UNL     1       3.642   3.568  17.906  0.00  0.00    +0.000 A 
ATOM     16  C   UNL     1       2.565   4.296  17.368  0.00  0.00    +0.000 A 
ATOM     17  C   UNL     1       1.364   4.440  18.062  0.00  0.00    +0.000 A 
ATOM     18  C   UNL     1       1.226   3.893  19.333  0.00  0.00    +0.000 A 
ATOM     19  C   UNL     1       2.305   3.238  19.928  0.00  0.00    +0.000 A 
ATOM     20 CL   UNL     1       2.063   2.617  21.526  0.00  0.00    +0.000 Cl
ATOM     21  C   UNL     1       3.517   3.088  19.230  0.00  0.00    +0.000 A 
ATOM     22 CL   UNL     1       4.876   2.325  19.999  0.00  0.00    +0.000 Cl
ENDBRANCH  14  15
ENDBRANCH   3  14
TORSDOF 5
ENDMDL
MODEL 8
REMARK VINA RESULT:      -6.8      3.501      5.257
REMARK  Name = 
REMARK  7 active torsions:
REMARK  status: ('A' for Active; 'I' for Inactive)
REMARK    1  A    between atoms: C_1  and  C_2
REMARK    2  A    between atoms: C_2  and  C_3
REMARK    3  A    between atoms: C_2  and  C_4
REMARK    4  A    between atoms: C_4  and  C_5
REMARK    5  A    between atoms: N_7  and  C_8
REMARK    6  A    between atoms: N_7  and  C_17
REMARK    7  A    between atoms: C_8  and  C_9
REMARK                            x       y       z     vdW  Elec       q    Type
REMARK                         _______ _______ _______ _____ _____    ______ ____
ROOT
ATOM      1  C   UNL     1       2.840   4.213  17.683  0.00  0.00    +0.000 C 
ATOM      2  O   UNL     1       3.182   3.556  16.700  0.00  0.00    +0.000 OA
ATOM      3  N   UNL     1       3.747   4.996  18.397  0.00  0.00    +0.000 N 
ENDROOT
BRANCH   3   4
ATOM      4  C   UNL     1       5.179   4.947  18.036  0.00  0.00    +0.000 C 
ATOM      5  C   UNL     1       5.576   5.867  16.881  0.00  0.00    +0.000 C 
ATOM      6  C   UNL     1       7.065   6.024  17.093  0.00  0.00    +0.000 C 
ATOM      7  N   UNL     1       7.220   6.164  18.544  0.00  0.00    +0.000 NA
ATOM      8  C   UNL     1       6.176   5.309  19.150  0.00  0.00    +0.000 C 
ATOM      9  H   UNL     1       6.982   7.130  18.789  0.00  0.00    +0.000 HD
ENDBRANCH   3   4
BRANCH   1  10
ATOM     10  C   UNL     1       1.391   4.189  18.147  0.00  0.00    +0.000 C 
BRANCH  10  12
ATOM     11  C   UNL     1       2.208   1.970  19.048  0.00  0.00    +0.000 C 
ATOM     12  C   UNL     1       1.093   3.020  19.103  0.00  0.00    +0.000 C 
ATOM     13  C   UNL     1       0.949   3.540  20.534  0.00  0.00    +0.000 C 
ENDBRANCH  10  12
ENDBRANCH   1  10
BRANCH   3  14
ATOM     14  C   UNL     1       3.365   5.896  19.499  0.00  0.00    +0.000 C 
BRANCH  14  15
ATOM     15  C   UNL     1       2.734   7.215  19.076  0.00  0.00    +0.000 A 
ATOM     16  C   UNL     1       3.070   7.832  17.857  0.00  0.00    +0.000 A 
ATOM     17  C   UNL     1       2.391   8.962  17.401  0.00  0.00    +0.000 A 
ATOM     18  C   UNL     1       1.385   9.529  18.176  0.00  0.00    +0.000 A 
ATOM     19  C   UNL     1       1.087   8.990  19.428  0.00  0.00    +0.000 A 
ATOM     20 CL   UNL     1      -0.152   9.776  20.347  0.00  0.00    +0.000 Cl
ATOM     21  C   UNL     1       1.767   7.848  19.890  0.00  0.00    +0.000 A 
ATOM     22 CL   UNL     1       1.434   7.218  21.475  0.00  0.00    +0.000 Cl
ENDBRANCH  14  15
ENDBRANCH   3  14
TORSDOF 5
ENDMDL
MODEL 9
REMARK VINA RESULT:      -6.7      2.914      5.032
REMARK  Name = 
REMARK  7 active torsions:
REMARK  status: ('A' for Active; 'I' for Inactive)
REMARK    1  A    between atoms: C_1  and  C_2
REMARK    2  A    between atoms: C_2  and  C_3
REMARK    3  A    between atoms: C_2  and  C_4
REMARK    4  A    between atoms: C_4  and  C_5
REMARK    5  A    between atoms: N_7  and  C_8
REMARK    6  A    between atoms: N_7  and  C_17
REMARK    7  A    between atoms: C_8  and  C_9
REMARK                            x       y       z     vdW  Elec       q    Type
REMARK                         _______ _______ _______ _____ _____    ______ ____
ROOT
ATOM      1  C   UNL     1       2.641   3.825  17.326  0.00  0.00    +0.000 C 
ATOM      2  O   UNL     1       2.569   3.192  16.273  0.00  0.00    +0.000 OA
ATOM      3  N   UNL     1       3.824   4.442  17.734  0.00  0.00    +0.000 N 
ENDROOT
BRANCH   3   4
ATOM      4  C   UNL     1       5.054   4.234  16.941  0.00  0.00    +0.000 C 
ATOM      5  C   UNL     1       5.173   5.129  15.707  0.00  0.00    +0.000 C 
ATOM      6  C   UNL     1       6.661   5.104  15.436  0.00  0.00    +0.000 C 
ATOM      7  N   UNL     1       7.280   5.191  16.763  0.00  0.00    +0.000 NA
ATOM      8  C   UNL     1       6.385   4.449  17.679  0.00  0.00    +0.000 C 
ATOM      9  H   UNL     1       7.248   6.172  17.057  0.00  0.00    +0.000 HD
ENDBRANCH   3   4
BRANCH   1  10
ATOM     10  C   UNL     1       1.418   3.957  18.221  0.00  0.00    +0.000 C 
BRANCH  10  12
ATOM     11  C   UNL     1       2.431   1.823  19.128  0.00  0.00    +0.000 C 
ATOM     12  C   UNL     1       1.182   2.710  19.091  0.00  0.00    +0.000 C 
ATOM     13  C   UNL     1       0.811   3.131  20.515  0.00  0.00    +0.000 C 
ENDBRANCH  10  12
ENDBRANCH   1  10
BRANCH   3  14
ATOM     14  C   UNL     1       3.930   5.314  18.916  0.00  0.00    +0.000 C 
BRANCH  14  15
ATOM     15  C   UNL     1       3.210   6.651  18.808  0.00  0.00    +0.000 A 
ATOM     16  C   UNL     1       3.408   7.505  17.708  0.00  0.00    +0.000 A 
ATOM     17  C   UNL     1       2.646   8.660  17.535  0.00  0.00    +0.000 A 
ATOM     18  C   UNL     1       1.694   9.012  18.484  0.00  0.00    +0.000 A 
ATOM     19  C   UNL     1       1.533   8.232  19.630  0.00  0.00    +0.000 A 
ATOM     20 CL   UNL     1       0.353   8.759  20.782  0.00  0.00    +0.000 Cl
ATOM     21  C   UNL     1       2.298   7.064  19.806  0.00  0.00    +0.000 A 
ATOM     22 CL   UNL     1       2.137   6.129  21.262  0.00  0.00    +0.000 Cl
ENDBRANCH  14  15
ENDBRANCH   3  14
TORSDOF 5
ENDMDL
