MODEL 1
REMARK VINA RESULT:      -6.9      0.000      0.000
REMARK  Name = 
REMARK  8 active torsions:
REMARK  status: ('A' for Active; 'I' for Inactive)
REMARK    1  A    between atoms: C_1  and  C_2
REMARK    2  A    between atoms: C_2  and  O_4
REMARK    3  A    between atoms: O_4  and  C_5
REMARK    4  A    between atoms: C_5  and  C_6
REMARK    5  A    between atoms: C_6  and  C_8
REMARK    6  A    between atoms: C_17  and  O_18
REMARK    7  A    between atoms: C_21  and  C_22
REMARK    8  A    between atoms: C_26  and  C_27
REMARK                            x       y       z     vdW  Elec       q    Type
REMARK                         _______ _______ _______ _____ _____    ______ ____
ROOT
ATOM      1  C   UNL     1       1.373  10.625  19.604  0.00  0.00    +0.000 C 
ATOM      2  C   UNL     1       0.537  10.408  20.886  0.00  0.00    +0.000 C 
ATOM      3  C   UNL     1       0.495   8.894  21.145  0.00  0.00    +0.000 C 
ATOM      4  C   UNL     1       1.554   8.334  20.201  0.00  0.00    +0.000 C 
ATOM      5  C   UNL     1       1.510   6.834  19.868  0.00  0.00    +0.000 C 
ATOM      6  C   UNL     1       1.612   5.955  21.121  0.00  0.00    +0.000 C 
ATOM      7  C   UNL     1       1.840   4.511  20.791  0.00  0.00    +0.000 C 
ATOM      8  C   UNL     1       2.238   4.055  19.589  0.00  0.00    +0.000 C 
ATOM      9  C   UNL     1       2.409   2.568  19.356  0.00  0.00    +0.000 C 
ATOM     10  C   UNL     1       3.775   2.233  18.753  0.00  0.00    +0.000 C 
ATOM     11  C   UNL     1       4.067   3.072  17.511  0.00  0.00    +0.000 C 
ATOM     12  C   UNL     1       3.935   4.566  17.805  0.00  0.00    +0.000 C 
ATOM     13  C   UNL     1       2.557   4.976  18.401  0.00  0.00    +0.000 C 
ATOM     14  C   UNL     1       1.454   4.784  17.330  0.00  0.00    +0.000 C 
ATOM     15  C   UNL     1       2.651   6.483  18.867  0.00  0.00    +0.000 C 
ATOM     16  C   UNL     1       2.782   7.491  17.689  0.00  0.00    +0.000 C 
ATOM     17  C   UNL     1       2.685   8.965  18.104  0.00  0.00    +0.000 C 
ATOM     18  C   UNL     1       1.422   9.223  18.942  0.00  0.00    +0.000 C 
ATOM     19  C   UNL     1       0.149   8.893  18.119  0.00  0.00    +0.000 C 
ENDROOT
BRANCH   1  20
ATOM     20  C   UNL     1       0.864  11.829  18.801  0.00  0.00    +0.000 C 
ATOM     21  O   UNL     1       1.593  12.526  18.096  0.00  0.00    +0.000 OA
BRANCH  20  22
ATOM     22  C   UNL     1      -0.639  12.146  18.949  0.00  0.00    +0.000 C 
BRANCH  22  23
ATOM     23  O   UNL     1      -1.309  12.489  17.739  0.00  0.00    +0.000 OA
BRANCH  23  25
ATOM     24  C   UNL     1      -3.041  11.092  18.524  0.00  0.00    +0.000 C 
ATOM     25  C   UNL     1      -2.225  11.555  17.363  0.00  0.00    +0.000 C 
ATOM     26  O   UNL     1      -2.383  11.154  16.213  0.00  0.00    +0.000 OA
ENDBRANCH  23  25
ENDBRANCH  22  23
ENDBRANCH  20  22
ENDBRANCH   1  20
BRANCH  10  27
ATOM     27  O   UNL     1       3.828   0.850  18.408  0.00  0.00    +0.000 OA
ATOM     28  H   UNL     1       2.995   0.439  18.697  0.00  0.00    +0.000 HD
ENDBRANCH  10  27
TORSDOF 5
ENDMDL
MODEL 2
REMARK VINA RESULT:      -6.7      2.636      7.961
REMARK  Name = 
REMARK  8 active torsions:
REMARK  status: ('A' for Active; 'I' for Inactive)
REMARK    1  A    between atoms: C_1  and  C_2
REMARK    2  A    between atoms: C_2  and  O_4
REMARK    3  A    between atoms: O_4  and  C_5
REMARK    4  A    between atoms: C_5  and  C_6
REMARK    5  A    between atoms: C_6  and  C_8
REMARK    6  A    between atoms: C_17  and  O_18
REMARK    7  A    between atoms: C_21  and  C_22
REMARK    8  A    between atoms: C_26  and  C_27
REMARK                            x       y       z     vdW  Elec       q    Type
REMARK                         _______ _______ _______ _____ _____    ______ ____
ROOT
ATOM      1  C   UNL     1       4.327   5.596  17.947  0.00  0.00    +0.000 C 
ATOM      2  C   UNL     1       4.356   6.442  16.653  0.00  0.00    +0.000 C 
ATOM      3  C   UNL     1       3.406   7.629  16.871  0.00  0.00    +0.000 C 
ATOM      4  C   UNL     1       3.118   7.596  18.368  0.00  0.00    +0.000 C 
ATOM      5  C   UNL     1       1.889   8.358  18.890  0.00  0.00    +0.000 C 
ATOM      6  C   UNL     1       1.939   9.852  18.543  0.00  0.00    +0.000 C 
ATOM      7  C   UNL     1       0.895  10.644  19.270  0.00  0.00    +0.000 C 
ATOM      8  C   UNL     1       0.205  10.202  20.338  0.00  0.00    +0.000 C 
ATOM      9  C   UNL     1      -0.853  11.076  20.978  0.00  0.00    +0.000 C 
ATOM     10  C   UNL     1      -0.656  11.204  22.490  0.00  0.00    +0.000 C 
ATOM     11  C   UNL     1      -0.520   9.840  23.160  0.00  0.00    +0.000 C 
ATOM     12  C   UNL     1       0.592   9.012  22.519  0.00  0.00    +0.000 C 
ATOM     13  C   UNL     1       0.438   8.826  20.981  0.00  0.00    +0.000 C 
ATOM     14  C   UNL     1      -0.799   7.940  20.690  0.00  0.00    +0.000 C 
ATOM     15  C   UNL     1       1.763   8.164  20.430  0.00  0.00    +0.000 C 
ATOM     16  C   UNL     1       1.962   6.692  20.893  0.00  0.00    +0.000 C 
ATOM     17  C   UNL     1       3.137   5.971  20.222  0.00  0.00    +0.000 C 
ATOM     18  C   UNL     1       3.056   6.085  18.691  0.00  0.00    +0.000 C 
ATOM     19  C   UNL     1       1.753   5.423  18.167  0.00  0.00    +0.000 C 
ENDROOT
BRANCH   1  20
ATOM     20  C   UNL     1       4.506   4.104  17.644  0.00  0.00    +0.000 C 
ATOM     21  O   UNL     1       4.282   3.216  18.468  0.00  0.00    +0.000 OA
BRANCH  20  22
ATOM     22  C   UNL     1       5.021   3.763  16.229  0.00  0.00    +0.000 C 
BRANCH  22  23
ATOM     23  O   UNL     1       6.435   3.831  16.064  0.00  0.00    +0.000 OA
BRANCH  23  25
ATOM     24  C   UNL     1       6.087   3.917  13.732  0.00  0.00    +0.000 C 
ATOM     25  C   UNL     1       6.799   4.472  14.921  0.00  0.00    +0.000 C 
ATOM     26  O   UNL     1       7.597   5.405  14.866  0.00  0.00    +0.000 OA
ENDBRANCH  23  25
ENDBRANCH  22  23
ENDBRANCH  20  22
ENDBRANCH   1  20
BRANCH  10  27
ATOM     27  O   UNL     1      -1.757  11.904  23.066  0.00  0.00    +0.000 OA
ATOM     28  H   UNL     1      -2.448  11.985  22.386  0.00  0.00    +0.000 HD
ENDBRANCH  10  27
TORSDOF 5
ENDMDL
MODEL 3
REMARK VINA RESULT:      -6.5      0.970      1.172
REMARK  Name = 
REMARK  8 active torsions:
REMARK  status: ('A' for Active; 'I' for Inactive)
REMARK    1  A    between atoms: C_1  and  C_2
REMARK    2  A    between atoms: C_2  and  O_4
REMARK    3  A    between atoms: O_4  and  C_5
REMARK    4  A    between atoms: C_5  and  C_6
REMARK    5  A    between atoms: C_6  and  C_8
REMARK    6  A    between atoms: C_17  and  O_18
REMARK    7  A    between atoms: C_21  and  C_22
REMARK    8  A    between atoms: C_26  and  C_27
REMARK                            x       y       z     vdW  Elec       q    Type
REMARK                         _______ _______ _______ _____ _____    ______ ____
ROOT
ATOM      1  C   UNL     1       1.015  11.084  19.754  0.00  0.00    +0.000 C 
ATOM      2  C   UNL     1       0.273  10.784  21.077  0.00  0.00    +0.000 C 
ATOM      3  C   UNL     1       0.343   9.265  21.297  0.00  0.00    +0.000 C 
ATOM      4  C   UNL     1       1.377   8.797  20.278  0.00  0.00    +0.000 C 
ATOM      5  C   UNL     1       1.408   7.305  19.908  0.00  0.00    +0.000 C 
ATOM      6  C   UNL     1       1.641   6.406  21.129  0.00  0.00    +0.000 C 
ATOM      7  C   UNL     1       1.940   4.988  20.748  0.00  0.00    +0.000 C 
ATOM      8  C   UNL     1       2.293   4.586  19.513  0.00  0.00    +0.000 C 
ATOM      9  C   UNL     1       2.543   3.120  19.230  0.00  0.00    +0.000 C 
ATOM     10  C   UNL     1       3.889   2.888  18.539  0.00  0.00    +0.000 C 
ATOM     11  C   UNL     1       4.052   3.772  17.306  0.00  0.00    +0.000 C 
ATOM     12  C   UNL     1       3.843   5.247  17.646  0.00  0.00    +0.000 C 
ATOM     13  C   UNL     1       2.480   5.553  18.333  0.00  0.00    +0.000 C 
ATOM     14  C   UNL     1       1.329   5.315  17.324  0.00  0.00    +0.000 C 
ATOM     15  C   UNL     1       2.507   7.052  18.833  0.00  0.00    +0.000 C 
ATOM     16  C   UNL     1       2.501   8.094  17.676  0.00  0.00    +0.000 C 
ATOM     17  C   UNL     1       2.337   9.548  18.135  0.00  0.00    +0.000 C 
ATOM     18  C   UNL     1       1.113   9.704  19.053  0.00  0.00    +0.000 C 
ATOM     19  C   UNL     1      -0.184   9.311  18.297  0.00  0.00    +0.000 C 
ENDROOT
BRANCH   1  20
ATOM     20  C   UNL     1       0.384  12.270  19.015  0.00  0.00    +0.000 C 
ATOM     21  O   UNL     1       0.973  12.918  18.150  0.00  0.00    +0.000 OA
BRANCH  20  22
ATOM     22  C   UNL     1      -1.054  12.638  19.441  0.00  0.00    +0.000 C 
BRANCH  22  23
ATOM     23  O   UNL     1      -2.085  12.149  18.588  0.00  0.00    +0.000 OA
BRANCH  23  25
ATOM     24  C   UNL     1      -4.358  11.600  18.281  0.00  0.00    +0.000 C 
ATOM     25  C   UNL     1      -3.301  12.118  19.197  0.00  0.00    +0.000 C 
ATOM     26  O   UNL     1      -3.507  12.451  20.362  0.00  0.00    +0.000 OA
ENDBRANCH  23  25
ENDBRANCH  22  23
ENDBRANCH  20  22
ENDBRANCH   1  20
BRANCH  10  27
ATOM     27  O   UNL     1       4.009   1.520  18.155  0.00  0.00    +0.000 OA
ATOM     28  H   UNL     1       4.024   1.482  17.183  0.00  0.00    +0.000 HD
ENDBRANCH  10  27
TORSDOF 5
ENDMDL
MODEL 4
REMARK VINA RESULT:      -6.5      2.243      7.834
REMARK  Name = 
REMARK  8 active torsions:
REMARK  status: ('A' for Active; 'I' for Inactive)
REMARK    1  A    between atoms: C_1  and  C_2
REMARK    2  A    between atoms: C_2  and  O_4
REMARK    3  A    between atoms: O_4  and  C_5
REMARK    4  A    between atoms: C_5  and  C_6
REMARK    5  A    between atoms: C_6  and  C_8
REMARK    6  A    between atoms: C_17  and  O_18
REMARK    7  A    between atoms: C_21  and  C_22
REMARK    8  A    between atoms: C_26  and  C_27
REMARK                            x       y       z     vdW  Elec       q    Type
REMARK                         _______ _______ _______ _____ _____    ______ ____
ROOT
ATOM      1  C   UNL     1       4.182   5.336  18.265  0.00  0.00    +0.000 C 
ATOM      2  C   UNL     1       4.439   6.030  16.908  0.00  0.00    +0.000 C 
ATOM      3  C   UNL     1       3.626   7.333  16.908  0.00  0.00    +0.000 C 
ATOM      4  C   UNL     1       3.192   7.492  18.361  0.00  0.00    +0.000 C 
ATOM      5  C   UNL     1       2.021   8.438  18.672  0.00  0.00    +0.000 C 
ATOM      6  C   UNL     1       2.287   9.871  18.194  0.00  0.00    +0.000 C 
ATOM      7  C   UNL     1       1.283  10.848  18.724  0.00  0.00    +0.000 C 
ATOM      8  C   UNL     1       0.443  10.603  19.748  0.00  0.00    +0.000 C 
ATOM      9  C   UNL     1      -0.556  11.653  20.183  0.00  0.00    +0.000 C 
ATOM     10  C   UNL     1      -0.493  11.919  21.689  0.00  0.00    +0.000 C 
ATOM     11  C   UNL     1      -0.591  10.627  22.496  0.00  0.00    +0.000 C 
ATOM     12  C   UNL     1       0.469   9.616  22.061  0.00  0.00    +0.000 C 
ATOM     13  C   UNL     1       0.443   9.286  20.539  0.00  0.00    +0.000 C 
ATOM     14  C   UNL     1      -0.860   8.518  20.201  0.00  0.00    +0.000 C 
ATOM     15  C   UNL     1       1.724   8.425  20.201  0.00  0.00    +0.000 C 
ATOM     16  C   UNL     1       1.695   6.997  20.820  0.00  0.00    +0.000 C 
ATOM     17  C   UNL     1       2.832   6.081  20.351  0.00  0.00    +0.000 C 
ATOM     18  C   UNL     1       2.914   6.040  18.817  0.00  0.00    +0.000 C 
ATOM     19  C   UNL     1       1.597   5.477  18.219  0.00  0.00    +0.000 C 
ENDROOT
BRANCH   1  20
ATOM     20  C   UNL     1       4.205   3.809  18.126  0.00  0.00    +0.000 C 
ATOM     21  O   UNL     1       4.188   3.230  17.039  0.00  0.00    +0.000 OA
BRANCH  20  22
ATOM     22  C   UNL     1       4.222   3.014  19.449  0.00  0.00    +0.000 C 
BRANCH  22  23
ATOM     23  O   UNL     1       3.071   2.208  19.689  0.00  0.00    +0.000 OA
BRANCH  23  25
ATOM     24  C   UNL     1       1.002   2.935  20.560  0.00  0.00    +0.000 C 
ATOM     25  C   UNL     1       2.418   2.552  20.833  0.00  0.00    +0.000 C 
ATOM     26  O   UNL     1       2.918   2.531  21.955  0.00  0.00    +0.000 OA
ENDBRANCH  23  25
ENDBRANCH  22  23
ENDBRANCH  20  22
ENDBRANCH   1  20
BRANCH  10  27
ATOM     27  O   UNL     1      -1.550  12.795  22.074  0.00  0.00    +0.000 OA
ATOM     28  H   UNL     1      -2.250  12.731  21.401  0.00  0.00    +0.000 HD
ENDBRANCH  10  27
TORSDOF 5
ENDMDL
MODEL 5
REMARK VINA RESULT:      -6.5      1.187      1.352
REMARK  Name = 
REMARK  8 active torsions:
REMARK  status: ('A' for Active; 'I' for Inactive)
REMARK    1  A    between atoms: C_1  and  C_2
REMARK    2  A    between atoms: C_2  and  O_4
REMARK    3  A    between atoms: O_4  and  C_5
REMARK    4  A    between atoms: C_5  and  C_6
REMARK    5  A    between atoms: C_6  and  C_8
REMARK    6  A    between atoms: C_17  and  O_18
REMARK    7  A    between atoms: C_21  and  C_22
REMARK    8  A    between atoms: C_26  and  C_27
REMARK                            x       y       z     vdW  Elec       q    Type
REMARK                         _______ _______ _______ _____ _____    ______ ____
ROOT
ATOM      1  C   UNL     1       0.300  11.392  19.404  0.00  0.00    +0.000 C 
ATOM      2  C   UNL     1      -0.557  11.066  20.649  0.00  0.00    +0.000 C 
ATOM      3  C   UNL     1      -0.281   9.599  21.013  0.00  0.00    +0.000 C 
ATOM      4  C   UNL     1       0.939   9.238  20.173  0.00  0.00    +0.000 C 
ATOM      5  C   UNL     1       1.252   7.750  19.945  0.00  0.00    +0.000 C 
ATOM      6  C   UNL     1       1.456   6.990  21.261  0.00  0.00    +0.000 C 
ATOM      7  C   UNL     1       2.020   5.618  21.049  0.00  0.00    +0.000 C 
ATOM      8  C   UNL     1       2.594   5.195  19.907  0.00  0.00    +0.000 C 
ATOM      9  C   UNL     1       3.104   3.774  19.790  0.00  0.00    +0.000 C 
ATOM     10  C   UNL     1       4.550   3.722  19.290  0.00  0.00    +0.000 C 
ATOM     11  C   UNL     1       4.737   4.533  18.011  0.00  0.00    +0.000 C 
ATOM     12  C   UNL     1       4.258   5.973  18.189  0.00  0.00    +0.000 C 
ATOM     13  C   UNL     1       2.784   6.095  18.676  0.00  0.00    +0.000 C 
ATOM     14  C   UNL     1       1.830   5.600  17.561  0.00  0.00    +0.000 C 
ATOM     15  C   UNL     1       2.510   7.609  19.038  0.00  0.00    +0.000 C 
ATOM     16  C   UNL     1       2.498   8.552  17.800  0.00  0.00    +0.000 C 
ATOM     17  C   UNL     1       2.048   9.987  18.102  0.00  0.00    +0.000 C 
ATOM     18  C   UNL     1       0.704  10.001  18.848  0.00  0.00    +0.000 C 
ATOM     19  C   UNL     1      -0.404   9.347  17.979  0.00  0.00    +0.000 C 
ENDROOT
BRANCH   1  20
ATOM     20  C   UNL     1      -0.404  12.402  18.490  0.00  0.00    +0.000 C 
ATOM     21  O   UNL     1       0.184  13.323  17.922  0.00  0.00    +0.000 OA
BRANCH  20  22
ATOM     22  C   UNL     1      -1.929  12.220  18.337  0.00  0.00    +0.000 C 
BRANCH  22  23
ATOM     23  O   UNL     1      -2.352  11.647  17.103  0.00  0.00    +0.000 OA
BRANCH  23  25
ATOM     24  C   UNL     1      -4.265  11.389  18.458  0.00  0.00    +0.000 C 
ATOM     25  C   UNL     1      -3.682  11.360  17.085  0.00  0.00    +0.000 C 
ATOM     26  O   UNL     1      -4.333  11.126  16.070  0.00  0.00    +0.000 OA
ENDBRANCH  23  25
ENDBRANCH  22  23
ENDBRANCH  20  22
ENDBRANCH   1  20
BRANCH  10  27
ATOM     27  O   UNL     1       4.932   2.369  19.049  0.00  0.00    +0.000 OA
ATOM     28  H   UNL     1       4.153   1.807  19.204  0.00  0.00    +0.000 HD
ENDBRANCH  10  27
TORSDOF 5
ENDMDL
MODEL 6
REMARK VINA RESULT:      -6.4      1.498      2.199
REMARK  Name = 
REMARK  8 active torsions:
REMARK  status: ('A' for Active; 'I' for Inactive)
REMARK    1  A    between atoms: C_1  and  C_2
REMARK    2  A    between atoms: C_2  and  O_4
REMARK    3  A    between atoms: O_4  and  C_5
REMARK    4  A    between atoms: C_5  and  C_6
REMARK    5  A    between atoms: C_6  and  C_8
REMARK    6  A    between atoms: C_17  and  O_18
REMARK    7  A    between atoms: C_21  and  C_22
REMARK    8  A    between atoms: C_26  and  C_27
REMARK                            x       y       z     vdW  Elec       q    Type
REMARK                         _______ _______ _______ _____ _____    ______ ____
ROOT
ATOM      1  C   UNL     1       1.279  10.725  20.017  0.00  0.00    +0.000 C 
ATOM      2  C   UNL     1       0.539  10.412  21.337  0.00  0.00    +0.000 C 
ATOM      3  C   UNL     1       0.540   8.884  21.502  0.00  0.00    +0.000 C 
ATOM      4  C   UNL     1       1.539   8.405  20.454  0.00  0.00    +0.000 C 
ATOM      5  C   UNL     1       1.497   6.928  20.030  0.00  0.00    +0.000 C 
ATOM      6  C   UNL     1       1.701   5.976  21.216  0.00  0.00    +0.000 C 
ATOM      7  C   UNL     1       1.929   4.561  20.781  0.00  0.00    +0.000 C 
ATOM      8  C   UNL     1       2.250   4.188  19.527  0.00  0.00    +0.000 C 
ATOM      9  C   UNL     1       2.427   2.722  19.189  0.00  0.00    +0.000 C 
ATOM     10  C   UNL     1       3.753   2.454  18.473  0.00  0.00    +0.000 C 
ATOM     11  C   UNL     1       3.943   3.374  17.270  0.00  0.00    +0.000 C 
ATOM     12  C   UNL     1       3.808   4.843  17.666  0.00  0.00    +0.000 C 
ATOM     13  C   UNL     1       2.468   5.187  18.381  0.00  0.00    +0.000 C 
ATOM     14  C   UNL     1       1.296   5.039  17.379  0.00  0.00    +0.000 C 
ATOM     15  C   UNL     1       2.570   6.664  18.933  0.00  0.00    +0.000 C 
ATOM     16  C   UNL     1       2.601   7.746  17.815  0.00  0.00    +0.000 C 
ATOM     17  C   UNL     1       2.509   9.189  18.327  0.00  0.00    +0.000 C 
ATOM     18  C   UNL     1       1.305   9.367  19.266  0.00  0.00    +0.000 C 
ATOM     19  C   UNL     1      -0.018   9.063  18.513  0.00  0.00    +0.000 C 
ENDROOT
BRANCH   1  20
ATOM     20  C   UNL     1       0.695  11.965  19.329  0.00  0.00    +0.000 C 
ATOM     21  O   UNL     1       1.186  12.470  18.319  0.00  0.00    +0.000 OA
BRANCH  20  22
ATOM     22  C   UNL     1      -0.552  12.579  19.999  0.00  0.00    +0.000 C 
BRANCH  22  23
ATOM     23  O   UNL     1      -0.375  13.892  20.525  0.00  0.00    +0.000 OA
BRANCH  23  25
ATOM     24  C   UNL     1      -0.945  13.579  22.793  0.00  0.00    +0.000 C 
ATOM     25  C   UNL     1       0.119  13.887  21.793  0.00  0.00    +0.000 C 
ATOM     26  O   UNL     1       1.295  14.089  22.085  0.00  0.00    +0.000 OA
ENDBRANCH  23  25
ENDBRANCH  22  23
ENDBRANCH  20  22
ENDBRANCH   1  20
BRANCH  10  27
ATOM     27  O   UNL     1       3.805   1.096  18.040  0.00  0.00    +0.000 OA
ATOM     28  H   UNL     1       3.306   1.029  17.207  0.00  0.00    +0.000 HD
ENDBRANCH  10  27
TORSDOF 5
ENDMDL
MODEL 7
REMARK VINA RESULT:      -6.4      1.418      2.569
REMARK  Name = 
REMARK  8 active torsions:
REMARK  status: ('A' for Active; 'I' for Inactive)
REMARK    1  A    between atoms: C_1  and  C_2
REMARK    2  A    between atoms: C_2  and  O_4
REMARK    3  A    between atoms: O_4  and  C_5
REMARK    4  A    between atoms: C_5  and  C_6
REMARK    5  A    between atoms: C_6  and  C_8
REMARK    6  A    between atoms: C_17  and  O_18
REMARK    7  A    between atoms: C_21  and  C_22
REMARK    8  A    between atoms: C_26  and  C_27
REMARK                            x       y       z     vdW  Elec       q    Type
REMARK                         _______ _______ _______ _____ _____    ______ ____
ROOT
ATOM      1  C   UNL     1       1.096  10.999  19.571  0.00  0.00    +0.000 C 
ATOM      2  C   UNL     1       0.331  10.748  20.891  0.00  0.00    +0.000 C 
ATOM      3  C   UNL     1       0.381   9.236  21.159  0.00  0.00    +0.000 C 
ATOM      4  C   UNL     1       1.424   8.725  20.171  0.00  0.00    +0.000 C 
ATOM      5  C   UNL     1       1.444   7.222  19.847  0.00  0.00    +0.000 C 
ATOM      6  C   UNL     1       1.648   6.359  21.098  0.00  0.00    +0.000 C 
ATOM      7  C   UNL     1       1.938   4.927  20.766  0.00  0.00    +0.000 C 
ATOM      8  C   UNL     1       2.305   4.483  19.549  0.00  0.00    +0.000 C 
ATOM      9  C   UNL     1       2.543   3.006  19.315  0.00  0.00    +0.000 C 
ATOM     10  C   UNL     1       3.896   2.739  18.652  0.00  0.00    +0.000 C 
ATOM     11  C   UNL     1       4.087   3.583  17.395  0.00  0.00    +0.000 C 
ATOM     12  C   UNL     1       3.890   5.069  17.687  0.00  0.00    +0.000 C 
ATOM     13  C   UNL     1       2.521   5.411  18.344  0.00  0.00    +0.000 C 
ATOM     14  C   UNL     1       1.382   5.154  17.325  0.00  0.00    +0.000 C 
ATOM     15  C   UNL     1       2.556   6.924  18.797  0.00  0.00    +0.000 C 
ATOM     16  C   UNL     1       2.580   7.930  17.609  0.00  0.00    +0.000 C 
ATOM     17  C   UNL     1       2.424   9.399  18.021  0.00  0.00    +0.000 C 
ATOM     18  C   UNL     1       1.189   9.596  18.915  0.00  0.00    +0.000 C 
ATOM     19  C   UNL     1      -0.101   9.195  18.151  0.00  0.00    +0.000 C 
ENDROOT
BRANCH   1  20
ATOM     20  C   UNL     1       0.489  12.168  18.786  0.00  0.00    +0.000 C 
ATOM     21  O   UNL     1      -0.679  12.185  18.396  0.00  0.00    +0.000 OA
BRANCH  20  22
ATOM     22  C   UNL     1       1.447  13.339  18.479  0.00  0.00    +0.000 C 
BRANCH  22  23
ATOM     23  O   UNL     1       1.392  14.427  19.398  0.00  0.00    +0.000 OA
BRANCH  23  25
ATOM     24  C   UNL     1       3.621  14.423  20.170  0.00  0.00    +0.000 C 
ATOM     25  C   UNL     1       2.177  14.229  20.492  0.00  0.00    +0.000 C 
ATOM     26  O   UNL     1       1.757  13.949  21.612  0.00  0.00    +0.000 OA
ENDBRANCH  23  25
ENDBRANCH  22  23
ENDBRANCH  20  22
ENDBRANCH   1  20
BRANCH  10  27
ATOM     27  O   UNL     1       4.007   1.358  18.313  0.00  0.00    +0.000 OA
ATOM     28  H   UNL     1       3.246   0.893  18.702  0.00  0.00    +0.000 HD
ENDBRANCH  10  27
TORSDOF 5
ENDMDL
MODEL 8
REMARK VINA RESULT:      -6.3      3.299      8.742
REMARK  Name = 
REMARK  8 active torsions:
REMARK  status: ('A' for Active; 'I' for Inactive)
REMARK    1  A    between atoms: C_1  and  C_2
REMARK    2  A    between atoms: C_2  and  O_4
REMARK    3  A    between atoms: O_4  and  C_5
REMARK    4  A    between atoms: C_5  and  C_6
REMARK    5  A    between atoms: C_6  and  C_8
REMARK    6  A    between atoms: C_17  and  O_18
REMARK    7  A    between atoms: C_21  and  C_22
REMARK    8  A    between atoms: C_26  and  C_27
REMARK                            x       y       z     vdW  Elec       q    Type
REMARK                         _______ _______ _______ _____ _____    ______ ____
ROOT
ATOM      1  C   UNL     1       0.989   8.767  19.364  0.00  0.00    +0.000 C 
ATOM      2  C   UNL     1       1.604   8.416  20.738  0.00  0.00    +0.000 C 
ATOM      3  C   UNL     1       0.959   9.352  21.772  0.00  0.00    +0.000 C 
ATOM      4  C   UNL     1      -0.211   9.976  21.019  0.00  0.00    +0.000 C 
ATOM      5  C   UNL     1      -0.831  11.267  21.578  0.00  0.00    +0.000 C 
ATOM      6  C   UNL     1      -1.349  11.090  23.011  0.00  0.00    +0.000 C 
ATOM      7  C   UNL     1      -2.187  12.247  23.463  0.00  0.00    +0.000 C 
ATOM      8  C   UNL     1      -2.713  13.178  22.644  0.00  0.00    +0.000 C 
ATOM      9  C   UNL     1      -3.521  14.325  23.212  0.00  0.00    +0.000 C 
ATOM     10  C   UNL     1      -4.875  14.476  22.516  0.00  0.00    +0.000 C 
ATOM     11  C   UNL     1      -4.727  14.541  20.998  0.00  0.00    +0.000 C 
ATOM     12  C   UNL     1      -3.952  13.338  20.462  0.00  0.00    +0.000 C 
ATOM     13  C   UNL     1      -2.553  13.142  21.116  0.00  0.00    +0.000 C 
ATOM     14  C   UNL     1      -1.621  14.307  20.699  0.00  0.00    +0.000 C 
ATOM     15  C   UNL     1      -1.979  11.748  20.643  0.00  0.00    +0.000 C 
ATOM     16  C   UNL     1      -1.613  11.707  19.131  0.00  0.00    +0.000 C 
ATOM     17  C   UNL     1      -0.881  10.433  18.691  0.00  0.00    +0.000 C 
ATOM     18  C   UNL     1       0.339  10.158  19.585  0.00  0.00    +0.000 C 
ATOM     19  C   UNL     1       1.356  11.327  19.487  0.00  0.00    +0.000 C 
ENDROOT
BRANCH   1  20
ATOM     20  C   UNL     1       2.004   8.571  18.231  0.00  0.00    +0.000 C 
ATOM     21  O   UNL     1       2.104   9.340  17.274  0.00  0.00    +0.000 OA
BRANCH  20  22
ATOM     22  C   UNL     1       2.895   7.316  18.338  0.00  0.00    +0.000 C 
BRANCH  22  23
ATOM     23  O   UNL     1       2.249   6.083  18.031  0.00  0.00    +0.000 OA
BRANCH  23  25
ATOM     24  C   UNL     1       1.487   3.983  18.790  0.00  0.00    +0.000 C 
ATOM     25  C   UNL     1       2.363   5.167  19.031  0.00  0.00    +0.000 C 
ATOM     26  O   UNL     1       3.106   5.283  20.003  0.00  0.00    +0.000 OA
ENDBRANCH  23  25
ENDBRANCH  22  23
ENDBRANCH  20  22
ENDBRANCH   1  20
BRANCH  10  27
ATOM     27  O   UNL     1      -5.530  15.657  22.975  0.00  0.00    +0.000 OA
ATOM     28  H   UNL     1      -5.875  16.128  22.197  0.00  0.00    +0.000 HD
ENDBRANCH  10  27
TORSDOF 5
ENDMDL
MODEL 9
REMARK VINA RESULT:      -6.3      1.471      2.710
REMARK  Name = 
REMARK  8 active torsions:
REMARK  status: ('A' for Active; 'I' for Inactive)
REMARK    1  A    between atoms: C_1  and  C_2
REMARK    2  A    between atoms: C_2  and  O_4
REMARK    3  A    between atoms: O_4  and  C_5
REMARK    4  A    between atoms: C_5  and  C_6
REMARK    5  A    between atoms: C_6  and  C_8
REMARK    6  A    between atoms: C_17  and  O_18
REMARK    7  A    between atoms: C_21  and  C_22
REMARK    8  A    between atoms: C_26  and  C_27
REMARK                            x       y       z     vdW  Elec       q    Type
REMARK                         _______ _______ _______ _____ _____    ______ ____
ROOT
ATOM      1  C   UNL     1       1.081  11.040  19.563  0.00  0.00    +0.000 C 
ATOM      2  C   UNL     1       0.286  10.791  20.865  0.00  0.00    +0.000 C 
ATOM      3  C   UNL     1       0.331   9.280  21.138  0.00  0.00    +0.000 C 
ATOM      4  C   UNL     1       1.397   8.767  20.175  0.00  0.00    +0.000 C 
ATOM      5  C   UNL     1       1.426   7.264  19.855  0.00  0.00    +0.000 C 
ATOM      6  C   UNL     1       1.601   6.404  21.114  0.00  0.00    +0.000 C 
ATOM      7  C   UNL     1       1.899   4.971  20.791  0.00  0.00    +0.000 C 
ATOM      8  C   UNL     1       2.295   4.525  19.584  0.00  0.00    +0.000 C 
ATOM      9  C   UNL     1       2.539   3.047  19.360  0.00  0.00    +0.000 C 
ATOM     10  C   UNL     1       3.907   2.779  18.729  0.00  0.00    +0.000 C 
ATOM     11  C   UNL     1       4.127   3.620  17.475  0.00  0.00    +0.000 C 
ATOM     12  C   UNL     1       3.922   5.108  17.758  0.00  0.00    +0.000 C 
ATOM     13  C   UNL     1       2.537   5.450  18.382  0.00  0.00    +0.000 C 
ATOM     14  C   UNL     1       1.423   5.190  17.338  0.00  0.00    +0.000 C 
ATOM     15  C   UNL     1       2.561   6.965  18.833  0.00  0.00    +0.000 C 
ATOM     16  C   UNL     1       2.612   7.967  17.643  0.00  0.00    +0.000 C 
ATOM     17  C   UNL     1       2.446   9.437  18.047  0.00  0.00    +0.000 C 
ATOM     18  C   UNL     1       1.190   9.635  18.912  0.00  0.00    +0.000 C 
ATOM     19  C   UNL     1      -0.082   9.231  18.120  0.00  0.00    +0.000 C 
ENDROOT
BRANCH   1  20
ATOM     20  C   UNL     1       0.491  12.207  18.761  0.00  0.00    +0.000 C 
ATOM     21  O   UNL     1      -0.705  12.299  18.484  0.00  0.00    +0.000 OA
BRANCH  20  22
ATOM     22  C   UNL     1       1.502  13.271  18.283  0.00  0.00    +0.000 C 
BRANCH  22  23
ATOM     23  O   UNL     1       2.455  13.685  19.258  0.00  0.00    +0.000 OA
BRANCH  23  25
ATOM     24  C   UNL     1       4.388  14.932  19.785  0.00  0.00    +0.000 C 
ATOM     25  C   UNL     1       3.362  14.571  18.763  0.00  0.00    +0.000 C 
ATOM     26  O   UNL     1       3.357  15.007  17.614  0.00  0.00    +0.000 OA
ENDBRANCH  23  25
ENDBRANCH  22  23
ENDBRANCH  20  22
ENDBRANCH   1  20
BRANCH  10  27
ATOM     27  O   UNL     1       4.027   1.398  18.396  0.00  0.00    +0.000 OA
ATOM     28  H   UNL     1       4.955   1.138  18.528  0.00  0.00    +0.000 HD
ENDBRANCH  10  27
TORSDOF 5
ENDMDL
