MODEL 1
REMARK VINA RESULT:      -7.9      0.000      0.000
REMARK  Name = 
REMARK  9 active torsions:
REMARK  status: ('A' for Active; 'I' for Inactive)
REMARK    1  A    between atoms: C_1  and  C_2
REMARK    2  A    between atoms: C_5  and  C_6
REMARK    3  A    between atoms: C_7  and  N_8
REMARK    4  A    between atoms: C_9  and  C_10
REMARK    5  A    between atoms: C_12  and  C_13
REMARK    6  A    between atoms: C_13  and  N_14
REMARK    7  A    between atoms: N_14  and  C_15
REMARK    8  A    between atoms: C_15  and  C_16
REMARK    9  A    between atoms: C_22  and  C_23
REMARK                            x       y       z     vdW  Elec       q    Type
REMARK                         _______ _______ _______ _____ _____    ______ ____
ROOT
ATOM      1  N   UNL     1       2.539   6.348  19.277  0.00  0.00    +0.000 N 
ATOM      2  C   UNL     1       2.020   5.953  20.513  0.00  0.00    +0.000 A 
ATOM      3  C   UNL     1       2.189   4.638  21.184  0.00  0.00    +0.000 C 
ATOM      4  C   UNL     1       1.387   7.034  21.089  0.00  0.00    +0.000 A 
ATOM      5  C   UNL     1       1.518   8.147  20.238  0.00  0.00    +0.000 A 
ATOM      6  C   UNL     1       2.231   7.716  19.122  0.00  0.00    +0.000 A 
ATOM      7  C   UNL     1       2.532   8.535  17.907  0.00  0.00    +0.000 C 
ENDROOT
BRANCH   1  14
ATOM      8  C   UNL     1       6.909   5.832  17.038  0.00  0.00    +0.000 C 
ATOM      9  C   UNL     1       5.541   5.280  17.310  0.00  0.00    +0.000 A 
ATOM     10  C   UNL     1       5.087   4.134  16.669  0.00  0.00    +0.000 A 
ATOM     11  C   UNL     1       3.769   3.715  16.849  0.00  0.00    +0.000 A 
ATOM     12  C   UNL     1       2.856   4.448  17.641  0.00  0.00    +0.000 A 
ATOM     13  C   UNL     1       1.420   4.011  17.543  0.00  0.00    +0.000 C 
ATOM     14  C   UNL     1       3.337   5.559  18.371  0.00  0.00    +0.000 A 
ATOM     15  C   UNL     1       4.683   5.941  18.198  0.00  0.00    +0.000 A 
ENDBRANCH   1  14
BRANCH   5  16
ATOM     16  C   UNL     1       0.945   9.504  20.514  0.00  0.00    +0.000 C 
BRANCH  16  17
ATOM     17  N   UNL     1      -0.382   9.625  19.912  0.00  0.00    +0.000 NA
ATOM     18  H   UNL     1      -1.078   9.659  20.655  0.00  0.00    +0.000 HD
BRANCH  17  19
ATOM     19  C   UNL     1      -0.516  10.837  19.103  0.00  0.00    +0.000 C 
BRANCH  19  20
ATOM     20  C   UNL     1      -1.731  10.772  18.214  0.00  0.00    +0.000 A 
ATOM     21  C   UNL     1      -2.835  11.603  18.458  0.00  0.00    +0.000 A 
ATOM     22  C   UNL     1      -3.947  11.565  17.617  0.00  0.00    +0.000 A 
ATOM     23  C   UNL     1      -3.966  10.693  16.530  0.00  0.00    +0.000 A 
ATOM     24  C   UNL     1      -2.879   9.857  16.284  0.00  0.00    +0.000 A 
ATOM     25  C   UNL     1      -1.764   9.896  17.122  0.00  0.00    +0.000 A 
ENDBRANCH  19  20
ENDBRANCH  17  19
ENDBRANCH  16  17
ENDBRANCH   5  16
TORSDOF 5
ENDMDL
MODEL 2
REMARK VINA RESULT:      -7.8      2.619      3.892
REMARK  Name = 
REMARK  9 active torsions:
REMARK  status: ('A' for Active; 'I' for Inactive)
REMARK    1  A    between atoms: C_1  and  C_2
REMARK    2  A    between atoms: C_5  and  C_6
REMARK    3  A    between atoms: C_7  and  N_8
REMARK    4  A    between atoms: C_9  and  C_10
REMARK    5  A    between atoms: C_12  and  C_13
REMARK    6  A    between atoms: C_13  and  N_14
REMARK    7  A    between atoms: N_14  and  C_15
REMARK    8  A    between atoms: C_15  and  C_16
REMARK    9  A    between atoms: C_22  and  C_23
REMARK                            x       y       z     vdW  Elec       q    Type
REMARK                         _______ _______ _______ _____ _____    ______ ____
ROOT
ATOM      1  N   UNL     1       4.054   4.905  18.632  0.00  0.00    +0.000 N 
ATOM      2  C   UNL     1       3.735   3.907  19.557  0.00  0.00    +0.000 A 
ATOM      3  C   UNL     1       4.451   2.625  19.783  0.00  0.00    +0.000 C 
ATOM      4  C   UNL     1       2.678   4.344  20.327  0.00  0.00    +0.000 A 
ATOM      5  C   UNL     1       2.324   5.644  19.922  0.00  0.00    +0.000 A 
ATOM      6  C   UNL     1       3.178   5.984  18.876  0.00  0.00    +0.000 A 
ATOM      7  C   UNL     1       3.114   7.242  18.069  0.00  0.00    +0.000 C 
ENDROOT
BRANCH   1  14
ATOM      8  C   UNL     1       5.467   3.829  14.026  0.00  0.00    +0.000 C 
ATOM      9  C   UNL     1       5.811   4.418  15.361  0.00  0.00    +0.000 A 
ATOM     10  C   UNL     1       7.099   4.853  15.646  0.00  0.00    +0.000 A 
ATOM     11  C   UNL     1       7.417   5.282  16.934  0.00  0.00    +0.000 A 
ATOM     12  C   UNL     1       6.472   5.252  17.984  0.00  0.00    +0.000 A 
ATOM     13  C   UNL     1       7.026   5.510  19.359  0.00  0.00    +0.000 C 
ATOM     14  C   UNL     1       5.137   4.902  17.680  0.00  0.00    +0.000 A 
ATOM     15  C   UNL     1       4.833   4.505  16.361  0.00  0.00    +0.000 A 
ENDBRANCH   1  14
BRANCH   5  16
ATOM     16  C   UNL     1       1.206   6.447  20.514  0.00  0.00    +0.000 C 
BRANCH  16  17
ATOM     17  N   UNL     1       1.728   7.673  21.116  0.00  0.00    +0.000 NA
ATOM     18  H   UNL     1       2.746   7.640  21.100  0.00  0.00    +0.000 HD
BRANCH  17  19
ATOM     19  C   UNL     1       1.296   8.872  20.396  0.00  0.00    +0.000 C 
BRANCH  19  20
ATOM     20  C   UNL     1       0.371   9.714  21.237  0.00  0.00    +0.000 A 
ATOM     21  C   UNL     1       0.062   9.333  22.552  0.00  0.00    +0.000 A 
ATOM     22  C   UNL     1      -0.770  10.128  23.340  0.00  0.00    +0.000 A 
ATOM     23  C   UNL     1      -1.303  11.305  22.819  0.00  0.00    +0.000 A 
ATOM     24  C   UNL     1      -1.010  11.688  21.512  0.00  0.00    +0.000 A 
ATOM     25  C   UNL     1      -0.176  10.896  20.722  0.00  0.00    +0.000 A 
ENDBRANCH  19  20
ENDBRANCH  17  19
ENDBRANCH  16  17
ENDBRANCH   5  16
TORSDOF 5
ENDMDL
MODEL 3
REMARK VINA RESULT:      -7.7      2.222      7.748
REMARK  Name = 
REMARK  9 active torsions:
REMARK  status: ('A' for Active; 'I' for Inactive)
REMARK    1  A    between atoms: C_1  and  C_2
REMARK    2  A    between atoms: C_5  and  C_6
REMARK    3  A    between atoms: C_7  and  N_8
REMARK    4  A    between atoms: C_9  and  C_10
REMARK    5  A    between atoms: C_12  and  C_13
REMARK    6  A    between atoms: C_13  and  N_14
REMARK    7  A    between atoms: N_14  and  C_15
REMARK    8  A    between atoms: C_15  and  C_16
REMARK    9  A    between atoms: C_22  and  C_23
REMARK                            x       y       z     vdW  Elec       q    Type
REMARK                         _______ _______ _______ _____ _____    ______ ____
ROOT
ATOM      1  N   UNL     1       0.863  10.001  20.006  0.00  0.00    +0.000 N 
ATOM      2  C   UNL     1       0.628   9.508  21.292  0.00  0.00    +0.000 A 
ATOM      3  C   UNL     1      -0.152  10.155  22.378  0.00  0.00    +0.000 C 
ATOM      4  C   UNL     1       1.161   8.239  21.379  0.00  0.00    +0.000 A 
ATOM      5  C   UNL     1       1.722   7.892  20.136  0.00  0.00    +0.000 A 
ATOM      6  C   UNL     1       1.533   8.985  19.293  0.00  0.00    +0.000 A 
ATOM      7  C   UNL     1       2.047   9.108  17.893  0.00  0.00    +0.000 C 
ENDROOT
BRANCH   1  14
ATOM      8  C   UNL     1       1.580  14.881  19.808  0.00  0.00    +0.000 C 
ATOM      9  C   UNL     1       0.826  13.682  19.317  0.00  0.00    +0.000 A 
ATOM     10  C   UNL     1      -0.257  13.814  18.456  0.00  0.00    +0.000 A 
ATOM     11  C   UNL     1      -1.013  12.694  18.116  0.00  0.00    +0.000 A 
ATOM     12  C   UNL     1      -0.738  11.417  18.656  0.00  0.00    +0.000 A 
ATOM     13  C   UNL     1      -1.780  10.365  18.390  0.00  0.00    +0.000 C 
ATOM     14  C   UNL     1       0.417  11.258  19.456  0.00  0.00    +0.000 A 
ATOM     15  C   UNL     1       1.185  12.401  19.756  0.00  0.00    +0.000 A 
ENDBRANCH   1  14
BRANCH   5  16
ATOM     16  C   UNL     1       2.411   6.594  19.844  0.00  0.00    +0.000 C 
BRANCH  16  17
ATOM     17  N   UNL     1       2.161   5.635  20.918  0.00  0.00    +0.000 NA
ATOM     18  H   UNL     1       1.706   6.118  21.691  0.00  0.00    +0.000 HD
BRANCH  17  19
ATOM     19  C   UNL     1       1.294   4.537  20.491  0.00  0.00    +0.000 C 
BRANCH  19  20
ATOM     20  C   UNL     1       2.060   3.509  19.697  0.00  0.00    +0.000 A 
ATOM     21  C   UNL     1       1.598   3.096  18.438  0.00  0.00    +0.000 A 
ATOM     22  C   UNL     1       2.322   2.167  17.690  0.00  0.00    +0.000 A 
ATOM     23  C   UNL     1       3.509   1.643  18.197  0.00  0.00    +0.000 A 
ATOM     24  C   UNL     1       3.972   2.040  19.450  0.00  0.00    +0.000 A 
ATOM     25  C   UNL     1       3.251   2.970  20.198  0.00  0.00    +0.000 A 
ENDBRANCH  19  20
ENDBRANCH  17  19
ENDBRANCH  16  17
ENDBRANCH   5  16
TORSDOF 5
ENDMDL
MODEL 4
REMARK VINA RESULT:      -7.5      2.127      3.509
REMARK  Name = 
REMARK  9 active torsions:
REMARK  status: ('A' for Active; 'I' for Inactive)
REMARK    1  A    between atoms: C_1  and  C_2
REMARK    2  A    between atoms: C_5  and  C_6
REMARK    3  A    between atoms: C_7  and  N_8
REMARK    4  A    between atoms: C_9  and  C_10
REMARK    5  A    between atoms: C_12  and  C_13
REMARK    6  A    between atoms: C_13  and  N_14
REMARK    7  A    between atoms: N_14  and  C_15
REMARK    8  A    between atoms: C_15  and  C_16
REMARK    9  A    between atoms: C_22  and  C_23
REMARK                            x       y       z     vdW  Elec       q    Type
REMARK                         _______ _______ _______ _____ _____    ______ ____
ROOT
ATOM      1  N   UNL     1       4.096   4.914  18.589  0.00  0.00    +0.000 N 
ATOM      2  C   UNL     1       3.771   3.906  19.501  0.00  0.00    +0.000 A 
ATOM      3  C   UNL     1       4.466   2.607  19.697  0.00  0.00    +0.000 C 
ATOM      4  C   UNL     1       2.734   4.350  20.293  0.00  0.00    +0.000 A 
ATOM      5  C   UNL     1       2.398   5.663  19.915  0.00  0.00    +0.000 A 
ATOM      6  C   UNL     1       3.244   6.004  18.863  0.00  0.00    +0.000 A 
ATOM      7  C   UNL     1       3.193   7.277  18.077  0.00  0.00    +0.000 C 
ENDROOT
BRANCH   1  14
ATOM      8  C   UNL     1       5.439   3.832  13.963  0.00  0.00    +0.000 C 
ATOM      9  C   UNL     1       5.804   4.419  15.293  0.00  0.00    +0.000 A 
ATOM     10  C   UNL     1       7.099   4.848  15.560  0.00  0.00    +0.000 A 
ATOM     11  C   UNL     1       7.436   5.277  16.843  0.00  0.00    +0.000 A 
ATOM     12  C   UNL     1       6.506   5.250  17.906  0.00  0.00    +0.000 A 
ATOM     13  C   UNL     1       7.080   5.506  19.274  0.00  0.00    +0.000 C 
ATOM     14  C   UNL     1       5.165   4.906  17.621  0.00  0.00    +0.000 A 
ATOM     15  C   UNL     1       4.841   4.511  16.307  0.00  0.00    +0.000 A 
ENDBRANCH   1  14
BRANCH   5  16
ATOM     16  C   UNL     1       1.304   6.477  20.536  0.00  0.00    +0.000 C 
BRANCH  16  17
ATOM     17  N   UNL     1       1.833   7.754  21.015  0.00  0.00    +0.000 NA
ATOM     18  H   UNL     1       2.198   8.276  20.221  0.00  0.00    +0.000 HD
BRANCH  17  19
ATOM     19  C   UNL     1       0.809   8.568  21.668  0.00  0.00    +0.000 C 
BRANCH  19  20
ATOM     20  C   UNL     1       0.346   9.690  20.774  0.00  0.00    +0.000 A 
ATOM     21  C   UNL     1       0.716   9.718  19.421  0.00  0.00    +0.000 A 
ATOM     22  C   UNL     1       0.264  10.740  18.586  0.00  0.00    +0.000 A 
ATOM     23  C   UNL     1      -0.556  11.743  19.098  0.00  0.00    +0.000 A 
ATOM     24  C   UNL     1      -0.921  11.731  20.443  0.00  0.00    +0.000 A 
ATOM     25  C   UNL     1      -0.473  10.708  21.279  0.00  0.00    +0.000 A 
ENDBRANCH  19  20
ENDBRANCH  17  19
ENDBRANCH  16  17
ENDBRANCH   5  16
TORSDOF 5
ENDMDL
MODEL 5
REMARK VINA RESULT:      -7.5      2.452      3.567
REMARK  Name = 
REMARK  9 active torsions:
REMARK  status: ('A' for Active; 'I' for Inactive)
REMARK    1  A    between atoms: C_1  and  C_2
REMARK    2  A    between atoms: C_5  and  C_6
REMARK    3  A    between atoms: C_7  and  N_8
REMARK    4  A    between atoms: C_9  and  C_10
REMARK    5  A    between atoms: C_12  and  C_13
REMARK    6  A    between atoms: C_13  and  N_14
REMARK    7  A    between atoms: N_14  and  C_15
REMARK    8  A    between atoms: C_15  and  C_16
REMARK    9  A    between atoms: C_22  and  C_23
REMARK                            x       y       z     vdW  Elec       q    Type
REMARK                         _______ _______ _______ _____ _____    ______ ____
ROOT
ATOM      1  N   UNL     1       4.071   4.888  18.612  0.00  0.00    +0.000 N 
ATOM      2  C   UNL     1       3.770   3.874  19.525  0.00  0.00    +0.000 A 
ATOM      3  C   UNL     1       4.486   2.585  19.710  0.00  0.00    +0.000 C 
ATOM      4  C   UNL     1       2.734   4.299  20.328  0.00  0.00    +0.000 A 
ATOM      5  C   UNL     1       2.375   5.608  19.956  0.00  0.00    +0.000 A 
ATOM      6  C   UNL     1       3.206   5.965  18.897  0.00  0.00    +0.000 A 
ATOM      7  C   UNL     1       3.128   7.239  18.115  0.00  0.00    +0.000 C 
ENDROOT
BRANCH   1  14
ATOM      8  C   UNL     1       5.384   3.847  13.968  0.00  0.00    +0.000 C 
ATOM      9  C   UNL     1       5.754   4.433  15.298  0.00  0.00    +0.000 A 
ATOM     10  C   UNL     1       7.046   4.877  15.554  0.00  0.00    +0.000 A 
ATOM     11  C   UNL     1       7.390   5.303  16.836  0.00  0.00    +0.000 A 
ATOM     12  C   UNL     1       6.471   5.259  17.908  0.00  0.00    +0.000 A 
ATOM     13  C   UNL     1       7.054   5.515  19.271  0.00  0.00    +0.000 C 
ATOM     14  C   UNL     1       5.132   4.899  17.634  0.00  0.00    +0.000 A 
ATOM     15  C   UNL     1       4.800   4.506  16.321  0.00  0.00    +0.000 A 
ENDBRANCH   1  14
BRANCH   5  16
ATOM     16  C   UNL     1       1.275   6.404  20.590  0.00  0.00    +0.000 C 
BRANCH  16  17
ATOM     17  N   UNL     1       1.809   7.640  21.161  0.00  0.00    +0.000 NA
ATOM     18  H   UNL     1       2.348   8.126  20.446  0.00  0.00    +0.000 HD
BRANCH  17  19
ATOM     19  C   UNL     1       0.752   8.537  21.629  0.00  0.00    +0.000 C 
BRANCH  19  20
ATOM     20  C   UNL     1       0.664   9.775  20.773  0.00  0.00    +0.000 A 
ATOM     21  C   UNL     1       0.374  11.019  21.353  0.00  0.00    +0.000 A 
ATOM     22  C   UNL     1       0.322  12.170  20.565  0.00  0.00    +0.000 A 
ATOM     23  C   UNL     1       0.554  12.084  19.194  0.00  0.00    +0.000 A 
ATOM     24  C   UNL     1       0.834  10.851  18.607  0.00  0.00    +0.000 A 
ATOM     25  C   UNL     1       0.890   9.700  19.393  0.00  0.00    +0.000 A 
ENDBRANCH  19  20
ENDBRANCH  17  19
ENDBRANCH  16  17
ENDBRANCH   5  16
TORSDOF 5
ENDMDL
MODEL 6
REMARK VINA RESULT:      -7.5      4.291      8.680
REMARK  Name = 
REMARK  9 active torsions:
REMARK  status: ('A' for Active; 'I' for Inactive)
REMARK    1  A    between atoms: C_1  and  C_2
REMARK    2  A    between atoms: C_5  and  C_6
REMARK    3  A    between atoms: C_7  and  N_8
REMARK    4  A    between atoms: C_9  and  C_10
REMARK    5  A    between atoms: C_12  and  C_13
REMARK    6  A    between atoms: C_13  and  N_14
REMARK    7  A    between atoms: N_14  and  C_15
REMARK    8  A    between atoms: C_15  and  C_16
REMARK    9  A    between atoms: C_22  and  C_23
REMARK                            x       y       z     vdW  Elec       q    Type
REMARK                         _______ _______ _______ _____ _____    ______ ____
ROOT
ATOM      1  N   UNL     1       5.226   4.938  18.088  0.00  0.00    +0.000 N 
ATOM      2  C   UNL     1       6.563   5.204  18.395  0.00  0.00    +0.000 A 
ATOM      3  C   UNL     1       7.121   5.620  19.708  0.00  0.00    +0.000 C 
ATOM      4  C   UNL     1       7.332   4.919  17.288  0.00  0.00    +0.000 A 
ATOM      5  C   UNL     1       6.498   4.438  16.262  0.00  0.00    +0.000 A 
ATOM      6  C   UNL     1       5.199   4.451  16.765  0.00  0.00    +0.000 A 
ATOM      7  C   UNL     1       3.961   4.108  15.997  0.00  0.00    +0.000 C 
ENDROOT
BRANCH   1  14
ATOM      8  C   UNL     1       2.460   2.631  21.465  0.00  0.00    +0.000 C 
ATOM      9  C   UNL     1       2.758   3.887  20.702  0.00  0.00    +0.000 A 
ATOM     10  C   UNL     1       1.942   5.006  20.810  0.00  0.00    +0.000 A 
ATOM     11  C   UNL     1       2.174   6.114  19.997  0.00  0.00    +0.000 A 
ATOM     12  C   UNL     1       3.199   6.123  19.024  0.00  0.00    +0.000 A 
ATOM     13  C   UNL     1       3.169   7.282  18.064  0.00  0.00    +0.000 C 
ATOM     14  C   UNL     1       4.090   5.027  18.973  0.00  0.00    +0.000 A 
ATOM     15  C   UNL     1       3.855   3.934  19.832  0.00  0.00    +0.000 A 
ENDBRANCH   1  14
BRANCH   5  16
ATOM     16  C   UNL     1       6.968   4.037  14.898  0.00  0.00    +0.000 C 
BRANCH  16  17
ATOM     17  N   UNL     1       7.052   5.209  14.027  0.00  0.00    +0.000 NA
ATOM     18  H   UNL     1       7.694   5.881  14.443  0.00  0.00    +0.000 HD
BRANCH  17  19
ATOM     19  C   UNL     1       7.542   4.872  12.690  0.00  0.00    +0.000 C 
BRANCH  19  20
ATOM     20  C   UNL     1       6.817   3.678  12.124  0.00  0.00    +0.000 A 
ATOM     21  C   UNL     1       5.414   3.651  12.086  0.00  0.00    +0.000 A 
ATOM     22  C   UNL     1       4.744   2.560  11.535  0.00  0.00    +0.000 A 
ATOM     23  C   UNL     1       5.469   1.486  11.022  0.00  0.00    +0.000 A 
ATOM     24  C   UNL     1       6.862   1.499  11.063  0.00  0.00    +0.000 A 
ATOM     25  C   UNL     1       7.535   2.590  11.611  0.00  0.00    +0.000 A 
ENDBRANCH  19  20
ENDBRANCH  17  19
ENDBRANCH  16  17
ENDBRANCH   5  16
TORSDOF 5
ENDMDL
MODEL 7
REMARK VINA RESULT:      -7.4      3.179      8.229
REMARK  Name = 
REMARK  9 active torsions:
REMARK  status: ('A' for Active; 'I' for Inactive)
REMARK    1  A    between atoms: C_1  and  C_2
REMARK    2  A    between atoms: C_5  and  C_6
REMARK    3  A    between atoms: C_7  and  N_8
REMARK    4  A    between atoms: C_9  and  C_10
REMARK    5  A    between atoms: C_12  and  C_13
REMARK    6  A    between atoms: C_13  and  N_14
REMARK    7  A    between atoms: N_14  and  C_15
REMARK    8  A    between atoms: C_15  and  C_16
REMARK    9  A    between atoms: C_22  and  C_23
REMARK                            x       y       z     vdW  Elec       q    Type
REMARK                         _______ _______ _______ _____ _____    ______ ____
ROOT
ATOM      1  N   UNL     1       3.734   5.502  17.719  0.00  0.00    +0.000 N 
ATOM      2  C   UNL     1       3.350   4.239  17.261  0.00  0.00    +0.000 A 
ATOM      3  C   UNL     1       2.039   3.568  17.459  0.00  0.00    +0.000 C 
ATOM      4  C   UNL     1       4.366   3.727  16.483  0.00  0.00    +0.000 A 
ATOM      5  C   UNL     1       5.407   4.671  16.410  0.00  0.00    +0.000 A 
ATOM      6  C   UNL     1       5.009   5.765  17.176  0.00  0.00    +0.000 A 
ATOM      7  C   UNL     1       5.837   6.978  17.464  0.00  0.00    +0.000 C 
ENDROOT
BRANCH   1  14
ATOM      8  C   UNL     1       1.816  10.042  18.017  0.00  0.00    +0.000 C 
ATOM      9  C   UNL     1       1.947   8.670  18.610  0.00  0.00    +0.000 A 
ATOM     10  C   UNL     1       1.402   8.368  19.852  0.00  0.00    +0.000 A 
ATOM     11  C   UNL     1       1.645   7.122  20.430  0.00  0.00    +0.000 A 
ATOM     12  C   UNL     1       2.471   6.160  19.808  0.00  0.00    +0.000 A 
ATOM     13  C   UNL     1       2.835   4.973  20.659  0.00  0.00    +0.000 C 
ATOM     14  C   UNL     1       2.950   6.424  18.504  0.00  0.00    +0.000 A 
ATOM     15  C   UNL     1       2.661   7.677  17.926  0.00  0.00    +0.000 A 
ENDBRANCH   1  14
BRANCH   5  16
ATOM     16  C   UNL     1       6.692   4.469  15.667  0.00  0.00    +0.000 C 
BRANCH  16  17
ATOM     17  N   UNL     1       6.714   5.295  14.460  0.00  0.00    +0.000 NA
ATOM     18  H   UNL     1       7.178   6.176  14.674  0.00  0.00    +0.000 HD
BRANCH  17  19
ATOM     19  C   UNL     1       7.435   4.653  13.361  0.00  0.00    +0.000 C 
BRANCH  19  20
ATOM     20  C   UNL     1       6.530   3.746  12.567  0.00  0.00    +0.000 A 
ATOM     21  C   UNL     1       5.153   4.005  12.493  0.00  0.00    +0.000 A 
ATOM     22  C   UNL     1       4.320   3.183  11.733  0.00  0.00    +0.000 A 
ATOM     23  C   UNL     1       4.856   2.096  11.047  0.00  0.00    +0.000 A 
ATOM     24  C   UNL     1       6.221   1.825  11.120  0.00  0.00    +0.000 A 
ATOM     25  C   UNL     1       7.056   2.646  11.877  0.00  0.00    +0.000 A 
ENDBRANCH  19  20
ENDBRANCH  17  19
ENDBRANCH  16  17
ENDBRANCH   5  16
TORSDOF 5
ENDMDL
MODEL 8
REMARK VINA RESULT:      -7.4      1.629      7.684
REMARK  Name = 
REMARK  9 active torsions:
REMARK  status: ('A' for Active; 'I' for Inactive)
REMARK    1  A    between atoms: C_1  and  C_2
REMARK    2  A    between atoms: C_5  and  C_6
REMARK    3  A    between atoms: C_7  and  N_8
REMARK    4  A    between atoms: C_9  and  C_10
REMARK    5  A    between atoms: C_12  and  C_13
REMARK    6  A    between atoms: C_13  and  N_14
REMARK    7  A    between atoms: N_14  and  C_15
REMARK    8  A    between atoms: C_15  and  C_16
REMARK    9  A    between atoms: C_22  and  C_23
REMARK                            x       y       z     vdW  Elec       q    Type
REMARK                         _______ _______ _______ _____ _____    ______ ____
ROOT
ATOM      1  N   UNL     1       0.729   9.318  19.818  0.00  0.00    +0.000 N 
ATOM      2  C   UNL     1       0.689   8.473  20.930  0.00  0.00    +0.000 A 
ATOM      3  C   UNL     1      -0.230   8.558  22.094  0.00  0.00    +0.000 C 
ATOM      4  C   UNL     1       1.593   7.451  20.737  0.00  0.00    +0.000 A 
ATOM      5  C   UNL     1       2.207   7.614  19.481  0.00  0.00    +0.000 A 
ATOM      6  C   UNL     1       1.667   8.769  18.919  0.00  0.00    +0.000 A 
ATOM      7  C   UNL     1       2.086   9.388  17.623  0.00  0.00    +0.000 C 
ENDROOT
BRANCH   1  14
ATOM      8  C   UNL     1      -3.223  11.095  17.452  0.00  0.00    +0.000 C 
ATOM      9  C   UNL     1      -2.109  11.328  18.428  0.00  0.00    +0.000 A 
ATOM     10  C   UNL     1      -1.880  12.585  18.973  0.00  0.00    +0.000 A 
ATOM     11  C   UNL     1      -0.765  12.798  19.782  0.00  0.00    +0.000 A 
ATOM     12  C   UNL     1       0.176  11.775  20.036  0.00  0.00    +0.000 A 
ATOM     13  C   UNL     1       1.444  12.218  20.717  0.00  0.00    +0.000 C 
ATOM     14  C   UNL     1      -0.100  10.472  19.565  0.00  0.00    +0.000 A 
ATOM     15  C   UNL     1      -1.253  10.275  18.779  0.00  0.00    +0.000 A 
ENDBRANCH   1  14
BRANCH   5  16
ATOM     16  C   UNL     1       3.261   6.707  18.922  0.00  0.00    +0.000 C 
BRANCH  16  17
ATOM     17  N   UNL     1       2.696   5.861  17.872  0.00  0.00    +0.000 NA
ATOM     18  H   UNL     1       2.986   6.224  16.966  0.00  0.00    +0.000 HD
BRANCH  17  19
ATOM     19  C   UNL     1       3.147   4.473  17.975  0.00  0.00    +0.000 C 
BRANCH  19  20
ATOM     20  C   UNL     1       2.604   3.810  19.216  0.00  0.00    +0.000 A 
ATOM     21  C   UNL     1       3.472   3.189  20.126  0.00  0.00    +0.000 A 
ATOM     22  C   UNL     1       2.973   2.602  21.289  0.00  0.00    +0.000 A 
ATOM     23  C   UNL     1       1.604   2.627  21.548  0.00  0.00    +0.000 A 
ATOM     24  C   UNL     1       0.732   3.234  20.646  0.00  0.00    +0.000 A 
ATOM     25  C   UNL     1       1.229   3.824  19.484  0.00  0.00    +0.000 A 
ENDBRANCH  19  20
ENDBRANCH  17  19
ENDBRANCH  16  17
ENDBRANCH   5  16
TORSDOF 5
ENDMDL
MODEL 9
REMARK VINA RESULT:      -7.3      1.781      7.600
REMARK  Name = 
REMARK  9 active torsions:
REMARK  status: ('A' for Active; 'I' for Inactive)
REMARK    1  A    between atoms: C_1  and  C_2
REMARK    2  A    between atoms: C_5  and  C_6
REMARK    3  A    between atoms: C_7  and  N_8
REMARK    4  A    between atoms: C_9  and  C_10
REMARK    5  A    between atoms: C_12  and  C_13
REMARK    6  A    between atoms: C_13  and  N_14
REMARK    7  A    between atoms: N_14  and  C_15
REMARK    8  A    between atoms: C_15  and  C_16
REMARK    9  A    between atoms: C_22  and  C_23
REMARK                            x       y       z     vdW  Elec       q    Type
REMARK                         _______ _______ _______ _____ _____    ______ ____
ROOT
ATOM      1  N   UNL     1       0.896   9.815  20.033  0.00  0.00    +0.000 N 
ATOM      2  C   UNL     1       0.667   9.351  21.331  0.00  0.00    +0.000 A 
ATOM      3  C   UNL     1      -0.028  10.063  22.435  0.00  0.00    +0.000 C 
ATOM      4  C   UNL     1       1.108   8.048  21.415  0.00  0.00    +0.000 A 
ATOM      5  C   UNL     1       1.601   7.650  20.159  0.00  0.00    +0.000 A 
ATOM      6  C   UNL     1       1.466   8.747  19.311  0.00  0.00    +0.000 A 
ATOM      7  C   UNL     1       1.942   8.820  17.894  0.00  0.00    +0.000 C 
ENDROOT
BRANCH   1  14
ATOM      8  C   UNL     1       1.962  14.628  19.761  0.00  0.00    +0.000 C 
ATOM      9  C   UNL     1       1.106  13.483  19.308  0.00  0.00    +0.000 A 
ATOM     10  C   UNL     1       0.008  13.688  18.481  0.00  0.00    +0.000 A 
ATOM     11  C   UNL     1      -0.838  12.623  18.176  0.00  0.00    +0.000 A 
ATOM     12  C   UNL     1      -0.640  11.335  18.721  0.00  0.00    +0.000 A 
ATOM     13  C   UNL     1      -1.765  10.360  18.501  0.00  0.00    +0.000 C 
ATOM     14  C   UNL     1       0.525  11.097  19.485  0.00  0.00    +0.000 A 
ATOM     15  C   UNL     1       1.385  12.183  19.749  0.00  0.00    +0.000 A 
ENDBRANCH   1  14
BRANCH   5  16
ATOM     16  C   UNL     1       2.184   6.303  19.858  0.00  0.00    +0.000 C 
BRANCH  16  17
ATOM     17  N   UNL     1       3.632   6.406  19.682  0.00  0.00    +0.000 NA
ATOM     18  H   UNL     1       4.052   6.686  20.566  0.00  0.00    +0.000 HD
BRANCH  17  19
ATOM     19  C   UNL     1       4.233   5.137  19.271  0.00  0.00    +0.000 C 
BRANCH  19  20
ATOM     20  C   UNL     1       4.712   5.193  17.842  0.00  0.00    +0.000 A 
ATOM     21  C   UNL     1       5.055   4.015  17.161  0.00  0.00    +0.000 A 
ATOM     22  C   UNL     1       5.470   4.064  15.830  0.00  0.00    +0.000 A 
ATOM     23  C   UNL     1       5.549   5.290  15.173  0.00  0.00    +0.000 A 
ATOM     24  C   UNL     1       5.219   6.467  15.842  0.00  0.00    +0.000 A 
ATOM     25  C   UNL     1       4.801   6.420  17.172  0.00  0.00    +0.000 A 
ENDBRANCH  19  20
ENDBRANCH  17  19
ENDBRANCH  16  17
ENDBRANCH   5  16
TORSDOF 5
ENDMDL
