MODEL 1
REMARK VINA RESULT:      -9.8      0.000      0.000
REMARK  Name = 
REMARK  7 active torsions:
REMARK  status: ('A' for Active; 'I' for Inactive)
REMARK    1  A    between atoms: C_1  and  C_2
REMARK    2  A    between atoms: C_4  and  C_5
REMARK    3  A    between atoms: C_7  and  C_8
REMARK    4  A    between atoms: C_11  and  O_12
REMARK    5  A    between atoms: O_12  and  C_13
REMARK    6  A    between atoms: C_17  and  C_18
REMARK    7  A    between atoms: C_26  and  C_27
REMARK                            x       y       z     vdW  Elec       q    Type
REMARK                         _______ _______ _______ _____ _____    ______ ____
ROOT
ATOM      1  C   UNL     1       4.254   5.374  18.492  0.00  0.00    +0.000 A 
ATOM      2  N   UNL     1       3.726   6.641  18.494  0.00  0.00    +0.000 NA
ATOM      3  C   UNL     1       2.678   6.627  19.300  0.00  0.00    +0.000 A 
ATOM      4  N   UNL     1       2.475   5.333  19.764  0.00  0.00    +0.000 N 
ATOM      5  C   UNL     1       3.550   4.561  19.362  0.00  0.00    +0.000 A 
ATOM      6  C   UNL     1       3.790   3.137  19.775  0.00  0.00    +0.000 C 
ATOM      7  C   UNL     1       3.118   2.736  21.076  0.00  0.00    +0.000 C 
ATOM      8  O   UNL     1       1.736   2.424  20.919  0.00  0.00    +0.000 OA
ATOM      9  C   UNL     1       0.902   3.401  20.290  0.00  0.00    +0.000 C 
ATOM     10  C   UNL     1       0.632   3.034  18.831  0.00  0.00    +0.000 C 
ATOM     11  C   UNL     1       1.314   4.865  20.503  0.00  0.00    +0.000 C 
ENDROOT
BRANCH   1  15
ATOM     12  C   UNL     1       6.255   3.986  14.137  0.00  0.00    +0.000 C 
ATOM     13  C   UNL     1       6.372   4.342  15.588  0.00  0.00    +0.000 A 
ATOM     14  C   UNL     1       5.250   4.681  16.340  0.00  0.00    +0.000 A 
ATOM     15  C   UNL     1       5.410   4.996  17.691  0.00  0.00    +0.000 A 
ATOM     16  C   UNL     1       6.689   4.907  18.243  0.00  0.00    +0.000 A 
ATOM     17  C   UNL     1       7.750   4.581  17.420  0.00  0.00    +0.000 A 
ATOM     18  N   UNL     1       7.621   4.305  16.109  0.00  0.00    +0.000 NA
ENDBRANCH   1  15
BRANCH   3  19
ATOM     19  C   UNL     1       1.839   7.811  19.576  0.00  0.00    +0.000 A 
ATOM     20  C   UNL     1       1.433   8.704  18.580  0.00  0.00    +0.000 A 
ATOM     21  C   UNL     1       0.681   9.841  18.897  0.00  0.00    +0.000 A 
ATOM     22  C   UNL     1       0.281  10.101  20.214  0.00  0.00    +0.000 A 
ATOM     23  C   UNL     1       0.670   9.211  21.226  0.00  0.00    +0.000 A 
ATOM     24  C   UNL     1       1.419   8.064  20.891  0.00  0.00    +0.000 A 
BRANCH  23  25
ATOM     25  C   UNL     1       0.418   9.449  22.617  0.00  0.00    +0.000 C 
ATOM     26  N   UNL     1       0.216   9.641  23.746  0.00  0.00    +0.000 NA
ENDBRANCH  23  25
BRANCH  22  27
ATOM     27  O   UNL     1      -0.314  11.318  20.381  0.00  0.00    +0.000 OA
BRANCH  27  28
ATOM     28  C   UNL     1       0.482  12.442  20.746  0.00  0.00    +0.000 C 
ATOM     29  F   UNL     1       1.805  12.198  20.726  0.00  0.00    +0.000 F 
ATOM     30  F   UNL     1       0.199  13.455  19.902  0.00  0.00    +0.000 F 
ATOM     31  F   UNL     1       0.146  12.830  21.996  0.00  0.00    +0.000 F 
ENDBRANCH  27  28
ENDBRANCH  22  27
ENDBRANCH   3  19
TORSDOF 5
ENDMDL
MODEL 2
REMARK VINA RESULT:      -9.8      1.021      1.232
REMARK  Name = 
REMARK  7 active torsions:
REMARK  status: ('A' for Active; 'I' for Inactive)
REMARK    1  A    between atoms: C_1  and  C_2
REMARK    2  A    between atoms: C_4  and  C_5
REMARK    3  A    between atoms: C_7  and  C_8
REMARK    4  A    between atoms: C_11  and  O_12
REMARK    5  A    between atoms: O_12  and  C_13
REMARK    6  A    between atoms: C_17  and  C_18
REMARK    7  A    between atoms: C_26  and  C_27
REMARK                            x       y       z     vdW  Elec       q    Type
REMARK                         _______ _______ _______ _____ _____    ______ ____
ROOT
ATOM      1  C   UNL     1       4.273   5.388  18.438  0.00  0.00    +0.000 A 
ATOM      2  N   UNL     1       3.758   6.661  18.426  0.00  0.00    +0.000 NA
ATOM      3  C   UNL     1       2.713   6.667  19.238  0.00  0.00    +0.000 A 
ATOM      4  N   UNL     1       2.502   5.382  19.721  0.00  0.00    +0.000 N 
ATOM      5  C   UNL     1       3.567   4.594  19.323  0.00  0.00    +0.000 A 
ATOM      6  C   UNL     1       3.797   3.174  19.754  0.00  0.00    +0.000 C 
ATOM      7  C   UNL     1       3.129   2.797  21.065  0.00  0.00    +0.000 C 
ATOM      8  O   UNL     1       1.743   2.495  20.920  0.00  0.00    +0.000 OA
ATOM      9  C   UNL     1       0.915   3.471  20.283  0.00  0.00    +0.000 C 
ATOM     10  C   UNL     1       0.632   3.086  18.830  0.00  0.00    +0.000 C 
ATOM     11  C   UNL     1       1.341   4.934  20.472  0.00  0.00    +0.000 C 
ENDROOT
BRANCH   1  15
ATOM     12  C   UNL     1       6.243   3.966  14.080  0.00  0.00    +0.000 C 
ATOM     13  C   UNL     1       6.368   4.318  15.531  0.00  0.00    +0.000 A 
ATOM     14  C   UNL     1       5.255   4.678  16.285  0.00  0.00    +0.000 A 
ATOM     15  C   UNL     1       5.421   4.989  17.636  0.00  0.00    +0.000 A 
ATOM     16  C   UNL     1       6.699   4.876  18.186  0.00  0.00    +0.000 A 
ATOM     17  C   UNL     1       7.753   4.529  17.362  0.00  0.00    +0.000 A 
ATOM     18  N   UNL     1       7.617   4.257  16.051  0.00  0.00    +0.000 NA
ENDBRANCH   1  15
BRANCH   3  19
ATOM     19  C   UNL     1       1.888   7.862  19.502  0.00  0.00    +0.000 A 
ATOM     20  C   UNL     1       1.526   8.773  18.505  0.00  0.00    +0.000 A 
ATOM     21  C   UNL     1       0.784   9.919  18.813  0.00  0.00    +0.000 A 
ATOM     22  C   UNL     1       0.350  10.172  20.120  0.00  0.00    +0.000 A 
ATOM     23  C   UNL     1       0.694   9.265  21.133  0.00  0.00    +0.000 A 
ATOM     24  C   UNL     1       1.434   8.109  20.808  0.00  0.00    +0.000 A 
BRANCH  23  25
ATOM     25  C   UNL     1       0.406   9.492  22.519  0.00  0.00    +0.000 C 
ATOM     26  N   UNL     1       0.172   9.681  23.642  0.00  0.00    +0.000 NA
ENDBRANCH  23  25
BRANCH  22  27
ATOM     27  O   UNL     1      -0.228  11.397  20.283  0.00  0.00    +0.000 OA
BRANCH  27  28
ATOM     28  C   UNL     1      -1.445  11.694  19.603  0.00  0.00    +0.000 C 
ATOM     29  F   UNL     1      -2.047  10.612  19.076  0.00  0.00    +0.000 F 
ATOM     30  F   UNL     1      -2.282  12.295  20.472  0.00  0.00    +0.000 F 
ATOM     31  F   UNL     1      -1.186  12.561  18.599  0.00  0.00    +0.000 F 
ENDBRANCH  27  28
ENDBRANCH  22  27
ENDBRANCH   3  19
TORSDOF 5
ENDMDL
MODEL 3
REMARK VINA RESULT:      -8.8      1.468      1.874
REMARK  Name = 
REMARK  7 active torsions:
REMARK  status: ('A' for Active; 'I' for Inactive)
REMARK    1  A    between atoms: C_1  and  C_2
REMARK    2  A    between atoms: C_4  and  C_5
REMARK    3  A    between atoms: C_7  and  C_8
REMARK    4  A    between atoms: C_11  and  O_12
REMARK    5  A    between atoms: O_12  and  C_13
REMARK    6  A    between atoms: C_17  and  C_18
REMARK    7  A    between atoms: C_26  and  C_27
REMARK                            x       y       z     vdW  Elec       q    Type
REMARK                         _______ _______ _______ _____ _____    ______ ____
ROOT
ATOM      1  C   UNL     1       4.067   5.906  18.428  0.00  0.00    +0.000 A 
ATOM      2  N   UNL     1       3.471   7.112  18.700  0.00  0.00    +0.000 NA
ATOM      3  C   UNL     1       2.520   6.885  19.591  0.00  0.00    +0.000 A 
ATOM      4  N   UNL     1       2.446   5.521  19.845  0.00  0.00    +0.000 N 
ATOM      5  C   UNL     1       3.512   4.909  19.212  0.00  0.00    +0.000 A 
ATOM      6  C   UNL     1       3.879   3.460  19.348  0.00  0.00    +0.000 C 
ATOM      7  C   UNL     1       3.379   2.800  20.621  0.00  0.00    +0.000 C 
ATOM      8  O   UNL     1       2.009   2.414  20.550  0.00  0.00    +0.000 OA
ATOM      9  C   UNL     1       1.055   3.414  20.184  0.00  0.00    +0.000 C 
ATOM     10  C   UNL     1       0.648   3.273  18.717  0.00  0.00    +0.000 C 
ATOM     11  C   UNL     1       1.402   4.851  20.603  0.00  0.00    +0.000 C 
ENDROOT
BRANCH   1  15
ATOM     12  C   UNL     1       5.807   4.152  14.094  0.00  0.00    +0.000 C 
ATOM     13  C   UNL     1       5.978   4.919  15.369  0.00  0.00    +0.000 A 
ATOM     14  C   UNL     1       4.937   5.036  16.286  0.00  0.00    +0.000 A 
ATOM     15  C   UNL     1       5.148   5.754  17.465  0.00  0.00    +0.000 A 
ATOM     16  C   UNL     1       6.418   6.284  17.695  0.00  0.00    +0.000 A 
ATOM     17  C   UNL     1       7.390   6.138  16.723  0.00  0.00    +0.000 A 
ATOM     18  N   UNL     1       7.196   5.477  15.567  0.00  0.00    +0.000 NA
ENDBRANCH   1  15
BRANCH   3  19
ATOM     19  C   UNL     1       1.649   7.940  20.148  0.00  0.00    +0.000 A 
ATOM     20  C   UNL     1       1.458   8.123  21.521  0.00  0.00    +0.000 A 
ATOM     21  C   UNL     1       0.583   9.104  22.001  0.00  0.00    +0.000 A 
ATOM     22  C   UNL     1      -0.100   9.957  21.124  0.00  0.00    +0.000 A 
ATOM     23  C   UNL     1       0.087   9.797  19.744  0.00  0.00    +0.000 A 
ATOM     24  C   UNL     1       0.979   8.810  19.273  0.00  0.00    +0.000 A 
BRANCH  23  25
ATOM     25  C   UNL     1      -0.655  10.534  18.763  0.00  0.00    +0.000 C 
ATOM     26  N   UNL     1      -1.254  11.132  17.966  0.00  0.00    +0.000 NA
ENDBRANCH  23  25
BRANCH  22  27
ATOM     27  O   UNL     1      -1.024  10.754  21.737  0.00  0.00    +0.000 OA
BRANCH  27  28
ATOM     28  C   UNL     1      -0.730  12.132  21.948  0.00  0.00    +0.000 C 
ATOM     29  F   UNL     1       0.535  12.469  21.638  0.00  0.00    +0.000 F 
ATOM     30  F   UNL     1      -1.585  12.867  21.207  0.00  0.00    +0.000 F 
ATOM     31  F   UNL     1      -0.937  12.430  23.249  0.00  0.00    +0.000 F 
ENDBRANCH  27  28
ENDBRANCH  22  27
ENDBRANCH   3  19
TORSDOF 5
ENDMDL
MODEL 4
REMARK VINA RESULT:      -8.7      1.597      2.159
REMARK  Name = 
REMARK  7 active torsions:
REMARK  status: ('A' for Active; 'I' for Inactive)
REMARK    1  A    between atoms: C_1  and  C_2
REMARK    2  A    between atoms: C_4  and  C_5
REMARK    3  A    between atoms: C_7  and  C_8
REMARK    4  A    between atoms: C_11  and  O_12
REMARK    5  A    between atoms: O_12  and  C_13
REMARK    6  A    between atoms: C_17  and  C_18
REMARK    7  A    between atoms: C_26  and  C_27
REMARK                            x       y       z     vdW  Elec       q    Type
REMARK                         _______ _______ _______ _____ _____    ______ ____
ROOT
ATOM      1  C   UNL     1       4.049   5.805  18.428  0.00  0.00    +0.000 A 
ATOM      2  N   UNL     1       3.423   6.998  18.693  0.00  0.00    +0.000 NA
ATOM      3  C   UNL     1       2.476   6.753  19.583  0.00  0.00    +0.000 A 
ATOM      4  N   UNL     1       2.434   5.389  19.843  0.00  0.00    +0.000 N 
ATOM      5  C   UNL     1       3.516   4.799  19.215  0.00  0.00    +0.000 A 
ATOM      6  C   UNL     1       3.917   3.360  19.359  0.00  0.00    +0.000 C 
ATOM      7  C   UNL     1       3.429   2.694  20.634  0.00  0.00    +0.000 C 
ATOM      8  O   UNL     1       2.069   2.276  20.562  0.00  0.00    +0.000 OA
ATOM      9  C   UNL     1       1.093   3.252  20.189  0.00  0.00    +0.000 C 
ATOM     10  C   UNL     1       0.691   3.094  18.722  0.00  0.00    +0.000 C 
ATOM     11  C   UNL     1       1.405   4.698  20.602  0.00  0.00    +0.000 C 
ENDROOT
BRANCH   1  15
ATOM     12  C   UNL     1       5.814   4.138  14.069  0.00  0.00    +0.000 C 
ATOM     13  C   UNL     1       5.977   4.882  15.359  0.00  0.00    +0.000 A 
ATOM     14  C   UNL     1       4.931   4.978  16.274  0.00  0.00    +0.000 A 
ATOM     15  C   UNL     1       5.135   5.674  17.467  0.00  0.00    +0.000 A 
ATOM     16  C   UNL     1       6.403   6.203  17.714  0.00  0.00    +0.000 A 
ATOM     17  C   UNL     1       7.380   6.077  16.744  0.00  0.00    +0.000 A 
ATOM     18  N   UNL     1       7.192   5.439  15.574  0.00  0.00    +0.000 NA
ENDBRANCH   1  15
BRANCH   3  19
ATOM     19  C   UNL     1       1.580   7.790  20.133  0.00  0.00    +0.000 A 
ATOM     20  C   UNL     1       0.713   7.556  21.205  0.00  0.00    +0.000 A 
ATOM     21  C   UNL     1      -0.155   8.554  21.659  0.00  0.00    +0.000 A 
ATOM     22  C   UNL     1      -0.157   9.830  21.081  0.00  0.00    +0.000 A 
ATOM     23  C   UNL     1       0.713  10.088  20.011  0.00  0.00    +0.000 A 
ATOM     24  C   UNL     1       1.589   9.076  19.569  0.00  0.00    +0.000 A 
BRANCH  23  25
ATOM     25  C   UNL     1       0.702  11.317  19.273  0.00  0.00    +0.000 C 
ATOM     26  N   UNL     1       0.689  12.314  18.675  0.00  0.00    +0.000 NA
ENDBRANCH  23  25
BRANCH  22  27
ATOM     27  O   UNL     1      -1.160  10.640  21.532  0.00  0.00    +0.000 OA
BRANCH  27  28
ATOM     28  C   UNL     1      -1.108  11.140  22.865  0.00  0.00    +0.000 C 
ATOM     29  F   UNL     1      -2.316  11.256  23.446  0.00  0.00    +0.000 F 
ATOM     30  F   UNL     1      -0.333  10.316  23.600  0.00  0.00    +0.000 F 
ATOM     31  F   UNL     1      -0.530  12.362  22.853  0.00  0.00    +0.000 F 
ENDBRANCH  27  28
ENDBRANCH  22  27
ENDBRANCH   3  19
TORSDOF 5
ENDMDL
MODEL 5
REMARK VINA RESULT:      -8.0      1.592      2.099
REMARK  Name = 
REMARK  7 active torsions:
REMARK  status: ('A' for Active; 'I' for Inactive)
REMARK    1  A    between atoms: C_1  and  C_2
REMARK    2  A    between atoms: C_4  and  C_5
REMARK    3  A    between atoms: C_7  and  C_8
REMARK    4  A    between atoms: C_11  and  O_12
REMARK    5  A    between atoms: O_12  and  C_13
REMARK    6  A    between atoms: C_17  and  C_18
REMARK    7  A    between atoms: C_26  and  C_27
REMARK                            x       y       z     vdW  Elec       q    Type
REMARK                         _______ _______ _______ _____ _____    ______ ____
ROOT
ATOM      1  C   UNL     1       4.220   5.365  18.580  0.00  0.00    +0.000 A 
ATOM      2  N   UNL     1       3.723   6.643  18.645  0.00  0.00    +0.000 NA
ATOM      3  C   UNL     1       2.692   6.620  19.474  0.00  0.00    +0.000 A 
ATOM      4  N   UNL     1       2.469   5.313  19.890  0.00  0.00    +0.000 N 
ATOM      5  C   UNL     1       3.516   4.533  19.433  0.00  0.00    +0.000 A 
ATOM      6  C   UNL     1       3.732   3.089  19.782  0.00  0.00    +0.000 C 
ATOM      7  C   UNL     1       3.079   2.650  21.081  0.00  0.00    +0.000 C 
ATOM      8  O   UNL     1       1.687   2.376  20.943  0.00  0.00    +0.000 OA
ATOM      9  C   UNL     1       0.863   3.397  20.374  0.00  0.00    +0.000 C 
ATOM     10  C   UNL     1       0.552   3.096  18.907  0.00  0.00    +0.000 C 
ATOM     11  C   UNL     1       1.313   4.841  20.636  0.00  0.00    +0.000 C 
ENDROOT
BRANCH   1  15
ATOM     12  C   UNL     1       6.077   4.017  14.150  0.00  0.00    +0.000 C 
ATOM     13  C   UNL     1       6.241   4.359  15.599  0.00  0.00    +0.000 A 
ATOM     14  C   UNL     1       5.145   4.692  16.391  0.00  0.00    +0.000 A 
ATOM     15  C   UNL     1       5.349   4.994  17.739  0.00  0.00    +0.000 A 
ATOM     16  C   UNL     1       6.645   4.899  18.248  0.00  0.00    +0.000 A 
ATOM     17  C   UNL     1       7.679   4.579  17.388  0.00  0.00    +0.000 A 
ATOM     18  N   UNL     1       7.506   4.317  16.079  0.00  0.00    +0.000 NA
ENDBRANCH   1  15
BRANCH   3  19
ATOM     19  C   UNL     1       1.888   7.810  19.817  0.00  0.00    +0.000 A 
ATOM     20  C   UNL     1       0.869   7.790  20.774  0.00  0.00    +0.000 A 
ATOM     21  C   UNL     1       0.099   8.930  21.029  0.00  0.00    +0.000 A 
ATOM     22  C   UNL     1       0.348  10.136  20.361  0.00  0.00    +0.000 A 
ATOM     23  C   UNL     1       1.373  10.179  19.405  0.00  0.00    +0.000 A 
ATOM     24  C   UNL     1       2.147   9.025  19.164  0.00  0.00    +0.000 A 
BRANCH  23  25
ATOM     25  C   UNL     1       1.627  11.326  18.582  0.00  0.00    +0.000 C 
ATOM     26  N   UNL     1       1.836  12.253  17.913  0.00  0.00    +0.000 NA
ENDBRANCH  23  25
BRANCH  22  27
ATOM     27  O   UNL     1      -0.580  11.106  20.610  0.00  0.00    +0.000 OA
BRANCH  27  28
ATOM     28  C   UNL     1      -1.593  11.370  19.644  0.00  0.00    +0.000 C 
ATOM     29  F   UNL     1      -1.850  10.329  18.831  0.00  0.00    +0.000 F 
ATOM     30  F   UNL     1      -2.720  11.722  20.295  0.00  0.00    +0.000 F 
ATOM     31  F   UNL     1      -1.207  12.414  18.877  0.00  0.00    +0.000 F 
ENDBRANCH  27  28
ENDBRANCH  22  27
ENDBRANCH   3  19
TORSDOF 5
ENDMDL
MODEL 6
REMARK VINA RESULT:      -7.9      1.994      2.400
REMARK  Name = 
REMARK  7 active torsions:
REMARK  status: ('A' for Active; 'I' for Inactive)
REMARK    1  A    between atoms: C_1  and  C_2
REMARK    2  A    between atoms: C_4  and  C_5
REMARK    3  A    between atoms: C_7  and  C_8
REMARK    4  A    between atoms: C_11  and  O_12
REMARK    5  A    between atoms: O_12  and  C_13
REMARK    6  A    between atoms: C_17  and  C_18
REMARK    7  A    between atoms: C_26  and  C_27
REMARK                            x       y       z     vdW  Elec       q    Type
REMARK                         _______ _______ _______ _____ _____    ______ ____
ROOT
ATOM      1  C   UNL     1       4.286   5.480  17.738  0.00  0.00    +0.000 A 
ATOM      2  N   UNL     1       3.754   6.696  18.091  0.00  0.00    +0.000 NA
ATOM      3  C   UNL     1       2.927   6.482  19.101  0.00  0.00    +0.000 A 
ATOM      4  N   UNL     1       2.862   5.118  19.358  0.00  0.00    +0.000 N 
ATOM      5  C   UNL     1       3.822   4.490  18.586  0.00  0.00    +0.000 A 
ATOM      6  C   UNL     1       4.177   3.033  18.668  0.00  0.00    +0.000 C 
ATOM      7  C   UNL     1       3.839   2.376  19.995  0.00  0.00    +0.000 C 
ATOM      8  O   UNL     1       2.465   2.015  20.107  0.00  0.00    +0.000 OA
ATOM      9  C   UNL     1       1.490   3.035  19.875  0.00  0.00    +0.000 C 
ATOM     10  C   UNL     1       0.887   2.909  18.475  0.00  0.00    +0.000 C 
ATOM     11  C   UNL     1       1.916   4.462  20.247  0.00  0.00    +0.000 C 
ENDROOT
BRANCH   1  15
ATOM     12  C   UNL     1       5.388   3.736  13.196  0.00  0.00    +0.000 C 
ATOM     13  C   UNL     1       5.747   4.484  14.443  0.00  0.00    +0.000 A 
ATOM     14  C   UNL     1       4.840   4.614  15.492  0.00  0.00    +0.000 A 
ATOM     15  C   UNL     1       5.225   5.313  16.638  0.00  0.00    +0.000 A 
ATOM     16  C   UNL     1       6.527   5.811  16.701  0.00  0.00    +0.000 A 
ATOM     17  C   UNL     1       7.357   5.653  15.607  0.00  0.00    +0.000 A 
ATOM     18  N   UNL     1       6.994   5.010  14.482  0.00  0.00    +0.000 NA
ENDBRANCH   1  15
BRANCH   3  19
ATOM     19  C   UNL     1       2.159   7.549  19.772  0.00  0.00    +0.000 A 
ATOM     20  C   UNL     1       2.061   7.656  21.163  0.00  0.00    +0.000 A 
ATOM     21  C   UNL     1       1.279   8.655  21.754  0.00  0.00    +0.000 A 
ATOM     22  C   UNL     1       0.601   9.601  20.974  0.00  0.00    +0.000 A 
ATOM     23  C   UNL     1       0.696   9.517  19.577  0.00  0.00    +0.000 A 
ATOM     24  C   UNL     1       1.494   8.511  18.995  0.00  0.00    +0.000 A 
BRANCH  23  25
ATOM     25  C   UNL     1      -0.055  10.357  18.690  0.00  0.00    +0.000 C 
ATOM     26  N   UNL     1      -0.664  11.035  17.969  0.00  0.00    +0.000 NA
ENDBRANCH  23  25
BRANCH  22  27
ATOM     27  O   UNL     1      -0.233  10.411  21.689  0.00  0.00    +0.000 OA
BRANCH  27  28
ATOM     28  C   UNL     1      -0.756   9.954  22.933  0.00  0.00    +0.000 C 
ATOM     29  F   UNL     1       0.150   9.936  23.927  0.00  0.00    +0.000 F 
ATOM     30  F   UNL     1      -1.787  10.752  23.279  0.00  0.00    +0.000 F 
ATOM     31  F   UNL     1      -1.230   8.699  22.774  0.00  0.00    +0.000 F 
ENDBRANCH  27  28
ENDBRANCH  22  27
ENDBRANCH   3  19
TORSDOF 5
ENDMDL
MODEL 7
REMARK VINA RESULT:      -7.5      0.390      1.243
REMARK  Name = 
REMARK  7 active torsions:
REMARK  status: ('A' for Active; 'I' for Inactive)
REMARK    1  A    between atoms: C_1  and  C_2
REMARK    2  A    between atoms: C_4  and  C_5
REMARK    3  A    between atoms: C_7  and  C_8
REMARK    4  A    between atoms: C_11  and  O_12
REMARK    5  A    between atoms: O_12  and  C_13
REMARK    6  A    between atoms: C_17  and  C_18
REMARK    7  A    between atoms: C_26  and  C_27
REMARK                            x       y       z     vdW  Elec       q    Type
REMARK                         _______ _______ _______ _____ _____    ______ ____
ROOT
ATOM      1  C   UNL     1       4.145   5.522  18.566  0.00  0.00    +0.000 A 
ATOM      2  N   UNL     1       3.612   6.787  18.596  0.00  0.00    +0.000 NA
ATOM      3  C   UNL     1       2.545   6.743  19.376  0.00  0.00    +0.000 A 
ATOM      4  N   UNL     1       2.338   5.434  19.795  0.00  0.00    +0.000 N 
ATOM      5  C   UNL     1       3.425   4.679  19.393  0.00  0.00    +0.000 A 
ATOM      6  C   UNL     1       3.663   3.244  19.767  0.00  0.00    +0.000 C 
ATOM      7  C   UNL     1       2.962   2.799  21.039  0.00  0.00    +0.000 C 
ATOM      8  O   UNL     1       1.586   2.487  20.840  0.00  0.00    +0.000 OA
ATOM      9  C   UNL     1       0.762   3.480  20.223  0.00  0.00    +0.000 C 
ATOM     10  C   UNL     1       0.528   3.158  18.747  0.00  0.00    +0.000 C 
ATOM     11  C   UNL     1       1.162   4.938  20.491  0.00  0.00    +0.000 C 
ENDROOT
BRANCH   1  15
ATOM     12  C   UNL     1       8.963   4.255  18.288  0.00  0.00    +0.000 C 
ATOM     13  C   UNL     1       7.639   4.549  17.653  0.00  0.00    +0.000 A 
ATOM     14  C   UNL     1       6.531   4.900  18.421  0.00  0.00    +0.000 A 
ATOM     15  C   UNL     1       5.321   5.174  17.781  0.00  0.00    +0.000 A 
ATOM     16  C   UNL     1       5.288   5.134  16.386  0.00  0.00    +0.000 A 
ATOM     17  C   UNL     1       6.429   4.760  15.701  0.00  0.00    +0.000 A 
ATOM     18  N   UNL     1       7.595   4.460  16.302  0.00  0.00    +0.000 NA
ENDBRANCH   1  15
BRANCH   3  19
ATOM     19  C   UNL     1       1.695   7.914  19.670  0.00  0.00    +0.000 A 
ATOM     20  C   UNL     1       1.261   8.806  18.684  0.00  0.00    +0.000 A 
ATOM     21  C   UNL     1       0.499   9.931  19.017  0.00  0.00    +0.000 A 
ATOM     22  C   UNL     1       0.115  10.180  20.341  0.00  0.00    +0.000 A 
ATOM     23  C   UNL     1       0.532   9.291  21.343  0.00  0.00    +0.000 A 
ATOM     24  C   UNL     1       1.292   8.156  20.992  0.00  0.00    +0.000 A 
BRANCH  23  25
ATOM     25  C   UNL     1       0.297   9.520  22.739  0.00  0.00    +0.000 C 
ATOM     26  N   UNL     1       0.106   9.709  23.870  0.00  0.00    +0.000 NA
ENDBRANCH  23  25
BRANCH  22  27
ATOM     27  O   UNL     1      -0.493  11.388  20.522  0.00  0.00    +0.000 OA
BRANCH  27  28
ATOM     28  C   UNL     1       0.303  12.543  20.772  0.00  0.00    +0.000 C 
ATOM     29  F   UNL     1       1.622  12.286  20.842  0.00  0.00    +0.000 F 
ATOM     30  F   UNL     1       0.071  13.440  19.792  0.00  0.00    +0.000 F 
ATOM     31  F   UNL     1      -0.079  13.093  21.946  0.00  0.00    +0.000 F 
ENDBRANCH  27  28
ENDBRANCH  22  27
ENDBRANCH   3  19
TORSDOF 5
ENDMDL
MODEL 8
REMARK VINA RESULT:      -7.5      1.157      1.813
REMARK  Name = 
REMARK  7 active torsions:
REMARK  status: ('A' for Active; 'I' for Inactive)
REMARK    1  A    between atoms: C_1  and  C_2
REMARK    2  A    between atoms: C_4  and  C_5
REMARK    3  A    between atoms: C_7  and  C_8
REMARK    4  A    between atoms: C_11  and  O_12
REMARK    5  A    between atoms: O_12  and  C_13
REMARK    6  A    between atoms: C_17  and  C_18
REMARK    7  A    between atoms: C_26  and  C_27
REMARK                            x       y       z     vdW  Elec       q    Type
REMARK                         _______ _______ _______ _____ _____    ______ ____
ROOT
ATOM      1  C   UNL     1       4.139   5.520  18.554  0.00  0.00    +0.000 A 
ATOM      2  N   UNL     1       3.614   6.788  18.515  0.00  0.00    +0.000 NA
ATOM      3  C   UNL     1       2.537   6.790  19.282  0.00  0.00    +0.000 A 
ATOM      4  N   UNL     1       2.316   5.505  19.763  0.00  0.00    +0.000 N 
ATOM      5  C   UNL     1       3.402   4.724  19.413  0.00  0.00    +0.000 A 
ATOM      6  C   UNL     1       3.625   3.308  19.860  0.00  0.00    +0.000 C 
ATOM      7  C   UNL     1       2.906   2.931  21.144  0.00  0.00    +0.000 C 
ATOM      8  O   UNL     1       1.530   2.619  20.943  0.00  0.00    +0.000 OA
ATOM      9  C   UNL     1       0.721   3.585  20.267  0.00  0.00    +0.000 C 
ATOM     10  C   UNL     1       0.502   3.191  18.806  0.00  0.00    +0.000 C 
ATOM     11  C   UNL     1       1.128   5.052  20.468  0.00  0.00    +0.000 C 
ENDROOT
BRANCH   1  15
ATOM     12  C   UNL     1       8.983   4.338  18.385  0.00  0.00    +0.000 C 
ATOM     13  C   UNL     1       7.652   4.543  17.728  0.00  0.00    +0.000 A 
ATOM     14  C   UNL     1       6.538   4.939  18.462  0.00  0.00    +0.000 A 
ATOM     15  C   UNL     1       5.321   5.126  17.802  0.00  0.00    +0.000 A 
ATOM     16  C   UNL     1       5.289   4.955  16.418  0.00  0.00    +0.000 A 
ATOM     17  C   UNL     1       6.438   4.543  15.768  0.00  0.00    +0.000 A 
ATOM     18  N   UNL     1       7.610   4.326  16.392  0.00  0.00    +0.000 NA
ENDBRANCH   1  15
BRANCH   3  19
ATOM     19  C   UNL     1       1.692   7.980  19.507  0.00  0.00    +0.000 A 
ATOM     20  C   UNL     1       1.317   8.851  18.480  0.00  0.00    +0.000 A 
ATOM     21  C   UNL     1       0.557   9.995  18.749  0.00  0.00    +0.000 A 
ATOM     22  C   UNL     1       0.117  10.284  20.047  0.00  0.00    +0.000 A 
ATOM     23  C   UNL     1       0.475   9.416  21.089  0.00  0.00    +0.000 A 
ATOM     24  C   UNL     1       1.233   8.262  20.803  0.00  0.00    +0.000 A 
BRANCH  23  25
ATOM     25  C   UNL     1       0.181   9.685  22.467  0.00  0.00    +0.000 C 
ATOM     26  N   UNL     1      -0.054   9.905  23.584  0.00  0.00    +0.000 NA
ENDBRANCH  23  25
BRANCH  22  27
ATOM     27  O   UNL     1      -0.481  11.505  20.169  0.00  0.00    +0.000 OA
BRANCH  27  28
ATOM     28  C   UNL     1      -1.635  11.800  19.388  0.00  0.00    +0.000 C 
ATOM     29  F   UNL     1      -2.281  10.707  18.942  0.00  0.00    +0.000 F 
ATOM     30  F   UNL     1      -2.475  12.546  20.135  0.00  0.00    +0.000 F 
ATOM     31  F   UNL     1      -1.263  12.533  18.315  0.00  0.00    +0.000 F 
ENDBRANCH  27  28
ENDBRANCH  22  27
ENDBRANCH   3  19
TORSDOF 5
ENDMDL
MODEL 9
REMARK VINA RESULT:      -7.4      4.500      8.301
REMARK  Name = 
REMARK  7 active torsions:
REMARK  status: ('A' for Active; 'I' for Inactive)
REMARK    1  A    between atoms: C_1  and  C_2
REMARK    2  A    between atoms: C_4  and  C_5
REMARK    3  A    between atoms: C_7  and  C_8
REMARK    4  A    between atoms: C_11  and  O_12
REMARK    5  A    between atoms: O_12  and  C_13
REMARK    6  A    between atoms: C_17  and  C_18
REMARK    7  A    between atoms: C_26  and  C_27
REMARK                            x       y       z     vdW  Elec       q    Type
REMARK                         _______ _______ _______ _____ _____    ______ ____
ROOT
ATOM      1  C   UNL     1       2.600   6.268  18.788  0.00  0.00    +0.000 A 
ATOM      2  N   UNL     1       3.642   6.440  17.910  0.00  0.00    +0.000 NA
ATOM      3  C   UNL     1       3.987   5.240  17.473  0.00  0.00    +0.000 A 
ATOM      4  N   UNL     1       3.222   4.279  18.123  0.00  0.00    +0.000 N 
ATOM      5  C   UNL     1       2.249   4.931  18.859  0.00  0.00    +0.000 A 
ATOM      6  C   UNL     1       1.129   4.257  19.596  0.00  0.00    +0.000 C 
ATOM      7  C   UNL     1       0.769   2.878  19.072  0.00  0.00    +0.000 C 
ATOM      8  O   UNL     1       1.648   1.856  19.535  0.00  0.00    +0.000 OA
ATOM      9  C   UNL     1       3.050   2.041  19.326  0.00  0.00    +0.000 C 
ATOM     10  C   UNL     1       3.739   2.512  20.607  0.00  0.00    +0.000 C 
ATOM     11  C   UNL     1       3.437   2.842  18.074  0.00  0.00    +0.000 C 
ENDROOT
BRANCH   1  15
ATOM     12  C   UNL     1       0.771  10.909  18.853  0.00  0.00    +0.000 C 
ATOM     13  C   UNL     1       1.075   9.603  19.521  0.00  0.00    +0.000 A 
ATOM     14  C   UNL     1       1.698   8.567  18.829  0.00  0.00    +0.000 A 
ATOM     15  C   UNL     1       1.969   7.372  19.498  0.00  0.00    +0.000 A 
ATOM     16  C   UNL     1       1.648   7.286  20.853  0.00  0.00    +0.000 A 
ATOM     17  C   UNL     1       1.015   8.356  21.459  0.00  0.00    +0.000 A 
ATOM     18  N   UNL     1       0.716   9.503  20.822  0.00  0.00    +0.000 NA
ENDBRANCH   1  15
BRANCH   3  19
ATOM     19  C   UNL     1       5.072   5.002  16.501  0.00  0.00    +0.000 A 
ATOM     20  C   UNL     1       6.400   5.367  16.738  0.00  0.00    +0.000 A 
ATOM     21  C   UNL     1       7.386   5.168  15.765  0.00  0.00    +0.000 A 
ATOM     22  C   UNL     1       7.081   4.564  14.538  0.00  0.00    +0.000 A 
ATOM     23  C   UNL     1       5.756   4.182  14.285  0.00  0.00    +0.000 A 
ATOM     24  C   UNL     1       4.774   4.380  15.278  0.00  0.00    +0.000 A 
BRANCH  23  25
ATOM     25  C   UNL     1       5.318   3.671  13.019  0.00  0.00    +0.000 C 
ATOM     26  N   UNL     1       4.965   3.254  11.993  0.00  0.00    +0.000 NA
ENDBRANCH  23  25
BRANCH  22  27
ATOM     27  O   UNL     1       8.113   4.578  13.645  0.00  0.00    +0.000 OA
BRANCH  27  28
ATOM     28  C   UNL     1       8.145   5.575  12.628  0.00  0.00    +0.000 C 
ATOM     29  F   UNL     1       9.330   6.205  12.525  0.00  0.00    +0.000 F 
ATOM     30  F   UNL     1       7.843   4.991  11.450  0.00  0.00    +0.000 F 
ATOM     31  F   UNL     1       7.199   6.503  12.892  0.00  0.00    +0.000 F 
ENDBRANCH  27  28
ENDBRANCH  22  27
ENDBRANCH   3  19
TORSDOF 5
ENDMDL
