MODEL 1
REMARK VINA RESULT:      -5.5      0.000      0.000
REMARK  Name = 
REMARK  4 active torsions:
REMARK  status: ('A' for Active; 'I' for Inactive)
REMARK    1  A    between atoms: C_1  and  C_2
REMARK    2  A    between atoms: C_3  and  C_4
REMARK    3  A    between atoms: C_6  and  O_7
REMARK    4  A    between atoms: C_9  and  O_10
REMARK                            x       y       z     vdW  Elec       q    Type
REMARK                         _______ _______ _______ _____ _____    ______ ____
ROOT
ATOM      1  C   UNL     1       6.380   5.048  17.509  0.00  0.00    +0.000 A 
ATOM      2  C   UNL     1       6.700   6.237  16.886  0.00  0.00    +0.000 A 
ATOM      3  C   UNL     1       7.516   7.079  17.606  0.00  0.00    +0.000 A 
ATOM      4  N   UNL     1       8.009   6.801  18.818  0.00  0.00    +0.000 NA
ATOM      5  C   UNL     1       7.640   5.620  19.299  0.00  0.00    +0.000 A 
ATOM      6  N   UNL     1       6.854   4.717  18.722  0.00  0.00    +0.000 NA
ENDROOT
BRANCH   1   9
ATOM      7  C   UNL     1       3.287   4.944  17.718  0.00  0.00    +0.000 C 
ATOM      8  C   UNL     1       4.163   4.006  16.949  0.00  0.00    +0.000 C 
ATOM      9  C   UNL     1       5.502   4.074  16.841  0.00  0.00    +0.000 C 
ENDBRANCH   1   9
BRANCH   3  10
ATOM     10  O   UNL     1       7.880   8.299  17.116  0.00  0.00    +0.000 OA
ATOM     11  H   UNL     1       8.839   8.400  17.212  0.00  0.00    +0.000 HD
ENDBRANCH   3  10
BRANCH   5  12
ATOM     12  O   UNL     1       8.133   5.327  20.532  0.00  0.00    +0.000 OA
ATOM     13  H   UNL     1       8.927   5.885  20.507  0.00  0.00    +0.000 HD
ENDBRANCH   5  12
TORSDOF 3
ENDMDL
MODEL 2
REMARK VINA RESULT:      -5.5      1.780      2.206
REMARK  Name = 
REMARK  4 active torsions:
REMARK  status: ('A' for Active; 'I' for Inactive)
REMARK    1  A    between atoms: C_1  and  C_2
REMARK    2  A    between atoms: C_3  and  C_4
REMARK    3  A    between atoms: C_6  and  O_7
REMARK    4  A    between atoms: C_9  and  O_10
REMARK                            x       y       z     vdW  Elec       q    Type
REMARK                         _______ _______ _______ _____ _____    ______ ____
ROOT
ATOM      1  C   UNL     1       5.176   4.923  18.511  0.00  0.00    +0.000 A 
ATOM      2  C   UNL     1       5.771   4.645  17.298  0.00  0.00    +0.000 A 
ATOM      3  C   UNL     1       7.146   4.698  17.289  0.00  0.00    +0.000 A 
ATOM      4  N   UNL     1       7.899   4.972  18.360  0.00  0.00    +0.000 NA
ATOM      5  C   UNL     1       7.207   5.204  19.469  0.00  0.00    +0.000 A 
ATOM      6  N   UNL     1       5.886   5.196  19.619  0.00  0.00    +0.000 NA
ENDROOT
BRANCH   1   9
ATOM      7  C   UNL     1       3.273   7.280  17.849  0.00  0.00    +0.000 C 
ATOM      8  C   UNL     1       2.881   5.937  18.379  0.00  0.00    +0.000 C 
ATOM      9  C   UNL     1       3.710   4.910  18.639  0.00  0.00    +0.000 C 
ENDBRANCH   1   9
BRANCH   3  10
ATOM     10  O   UNL     1       7.854   4.475  16.145  0.00  0.00    +0.000 OA
ATOM     11  H   UNL     1       7.249   4.145  15.464  0.00  0.00    +0.000 HD
ENDBRANCH   3  10
BRANCH   5  12
ATOM     12  O   UNL     1       7.961   5.486  20.564  0.00  0.00    +0.000 OA
ATOM     13  H   UNL     1       8.444   6.253  20.214  0.00  0.00    +0.000 HD
ENDBRANCH   5  12
TORSDOF 3
ENDMDL
MODEL 3
REMARK VINA RESULT:      -5.4      1.951      2.283
REMARK  Name = 
REMARK  4 active torsions:
REMARK  status: ('A' for Active; 'I' for Inactive)
REMARK    1  A    between atoms: C_1  and  C_2
REMARK    2  A    between atoms: C_3  and  C_4
REMARK    3  A    between atoms: C_6  and  O_7
REMARK    4  A    between atoms: C_9  and  O_10
REMARK                            x       y       z     vdW  Elec       q    Type
REMARK                         _______ _______ _______ _____ _____    ______ ____
ROOT
ATOM      1  C   UNL     1       5.079   4.202  16.953  0.00  0.00    +0.000 A 
ATOM      2  C   UNL     1       5.553   4.489  15.688  0.00  0.00    +0.000 A 
ATOM      3  C   UNL     1       6.861   4.912  15.631  0.00  0.00    +0.000 A 
ATOM      4  N   UNL     1       7.665   5.032  16.694  0.00  0.00    +0.000 NA
ATOM      5  C   UNL     1       7.094   4.710  17.849  0.00  0.00    +0.000 A 
ATOM      6  N   UNL     1       5.846   4.299  18.051  0.00  0.00    +0.000 NA
ENDROOT
BRANCH   1   9
ATOM      7  C   UNL     1       2.755   5.911  18.093  0.00  0.00    +0.000 C 
ATOM      8  C   UNL     1       2.684   4.481  17.659  0.00  0.00    +0.000 C 
ATOM      9  C   UNL     1       3.690   3.755  17.140  0.00  0.00    +0.000 C 
ENDBRANCH   1   9
BRANCH   3  10
ATOM     10  O   UNL     1       7.440   5.258  14.445  0.00  0.00    +0.000 OA
ATOM     11  H   UNL     1       8.269   4.767  14.349  0.00  0.00    +0.000 HD
ENDBRANCH   3  10
BRANCH   5  12
ATOM     12  O   UNL     1       7.900   4.830  18.936  0.00  0.00    +0.000 OA
ATOM     13  H   UNL     1       8.112   5.775  18.857  0.00  0.00    +0.000 HD
ENDBRANCH   5  12
TORSDOF 3
ENDMDL
MODEL 4
REMARK VINA RESULT:      -5.4      2.142      2.490
REMARK  Name = 
REMARK  4 active torsions:
REMARK  status: ('A' for Active; 'I' for Inactive)
REMARK    1  A    between atoms: C_1  and  C_2
REMARK    2  A    between atoms: C_3  and  C_4
REMARK    3  A    between atoms: C_6  and  O_7
REMARK    4  A    between atoms: C_9  and  O_10
REMARK                            x       y       z     vdW  Elec       q    Type
REMARK                         _______ _______ _______ _____ _____    ______ ____
ROOT
ATOM      1  C   UNL     1       5.062   5.318  17.111  0.00  0.00    +0.000 A 
ATOM      2  C   UNL     1       5.336   5.426  15.763  0.00  0.00    +0.000 A 
ATOM      3  C   UNL     1       6.638   5.165  15.403  0.00  0.00    +0.000 A 
ATOM      4  N   UNL     1       7.602   4.807  16.259  0.00  0.00    +0.000 NA
ATOM      5  C   UNL     1       7.206   4.723  17.523  0.00  0.00    +0.000 A 
ATOM      6  N   UNL     1       5.991   4.955  18.011  0.00  0.00    +0.000 NA
ENDROOT
BRANCH   1   9
ATOM      7  C   UNL     1       2.763   3.249  17.346  0.00  0.00    +0.000 C 
ATOM      8  C   UNL     1       2.697   4.703  17.695  0.00  0.00    +0.000 C 
ATOM      9  C   UNL     1       3.706   5.588  17.616  0.00  0.00    +0.000 C 
ENDBRANCH   1   9
BRANCH   3  10
ATOM     10  O   UNL     1       7.047   5.269  14.106  0.00  0.00    +0.000 OA
ATOM     11  H   UNL     1       7.501   4.450  13.856  0.00  0.00    +0.000 HD
ENDBRANCH   3  10
BRANCH   5  12
ATOM     12  O   UNL     1       8.177   4.362  18.402  0.00  0.00    +0.000 OA
ATOM     13  H   UNL     1       8.886   4.944  18.083  0.00  0.00    +0.000 HD
ENDBRANCH   5  12
TORSDOF 3
ENDMDL
MODEL 5
REMARK VINA RESULT:      -5.3      1.470      1.741
REMARK  Name = 
REMARK  4 active torsions:
REMARK  status: ('A' for Active; 'I' for Inactive)
REMARK    1  A    between atoms: C_1  and  C_2
REMARK    2  A    between atoms: C_3  and  C_4
REMARK    3  A    between atoms: C_6  and  O_7
REMARK    4  A    between atoms: C_9  and  O_10
REMARK                            x       y       z     vdW  Elec       q    Type
REMARK                         _______ _______ _______ _____ _____    ______ ____
ROOT
ATOM      1  C   UNL     1       5.151   4.138  17.675  0.00  0.00    +0.000 A 
ATOM      2  C   UNL     1       5.723   4.576  16.498  0.00  0.00    +0.000 A 
ATOM      3  C   UNL     1       6.868   5.326  16.641  0.00  0.00    +0.000 A 
ATOM      4  N   UNL     1       7.438   5.619  17.816  0.00  0.00    +0.000 NA
ATOM      5  C   UNL     1       6.800   5.125  18.870  0.00  0.00    +0.000 A 
ATOM      6  N   UNL     1       5.687   4.398  18.879  0.00  0.00    +0.000 NA
ENDROOT
BRANCH   1   9
ATOM      7  C   UNL     1       2.267   5.237  17.985  0.00  0.00    +0.000 C 
ATOM      8  C   UNL     1       2.664   3.806  17.808  0.00  0.00    +0.000 C 
ATOM      9  C   UNL     1       3.915   3.340  17.647  0.00  0.00    +0.000 C 
ENDBRANCH   1   9
BRANCH   3  10
ATOM     10  O   UNL     1       7.512   5.846  15.557  0.00  0.00    +0.000 OA
ATOM     11  H   UNL     1       8.228   6.421  15.866  0.00  0.00    +0.000 HD
ENDBRANCH   3  10
BRANCH   5  12
ATOM     12  O   UNL     1       7.369   5.417  20.069  0.00  0.00    +0.000 OA
ATOM     13  H   UNL     1       6.908   6.253  20.249  0.00  0.00    +0.000 HD
ENDBRANCH   5  12
TORSDOF 3
ENDMDL
MODEL 6
REMARK VINA RESULT:      -5.3      1.575      2.815
REMARK  Name = 
REMARK  4 active torsions:
REMARK  status: ('A' for Active; 'I' for Inactive)
REMARK    1  A    between atoms: C_1  and  C_2
REMARK    2  A    between atoms: C_3  and  C_4
REMARK    3  A    between atoms: C_6  and  O_7
REMARK    4  A    between atoms: C_9  and  O_10
REMARK                            x       y       z     vdW  Elec       q    Type
REMARK                         _______ _______ _______ _____ _____    ______ ____
ROOT
ATOM      1  C   UNL     1       4.975   5.144  18.026  0.00  0.00    +0.000 A 
ATOM      2  C   UNL     1       5.630   5.167  19.240  0.00  0.00    +0.000 A 
ATOM      3  C   UNL     1       6.960   5.517  19.186  0.00  0.00    +0.000 A 
ATOM      4  N   UNL     1       7.611   5.843  18.064  0.00  0.00    +0.000 NA
ATOM      5  C   UNL     1       6.865   5.798  16.967  0.00  0.00    +0.000 A 
ATOM      6  N   UNL     1       5.580   5.470  16.871  0.00  0.00    +0.000 NA
ENDROOT
BRANCH   1   9
ATOM      7  C   UNL     1       2.569   7.095  18.201  0.00  0.00    +0.000 C 
ATOM      8  C   UNL     1       2.505   5.607  18.060  0.00  0.00    +0.000 C 
ATOM      9  C   UNL     1       3.553   4.770  17.957  0.00  0.00    +0.000 C 
ENDBRANCH   1   9
BRANCH   3  10
ATOM     10  O   UNL     1       7.728   5.546  20.312  0.00  0.00    +0.000 OA
ATOM     11  H   UNL     1       8.531   6.057  20.129  0.00  0.00    +0.000 HD
ENDBRANCH   3  10
BRANCH   5  12
ATOM     12  O   UNL     1       7.516   6.125  15.820  0.00  0.00    +0.000 OA
ATOM     13  H   UNL     1       8.347   5.649  15.983  0.00  0.00    +0.000 HD
ENDBRANCH   5  12
TORSDOF 3
ENDMDL
MODEL 7
REMARK VINA RESULT:      -5.3      1.574      2.801
REMARK  Name = 
REMARK  4 active torsions:
REMARK  status: ('A' for Active; 'I' for Inactive)
REMARK    1  A    between atoms: C_1  and  C_2
REMARK    2  A    between atoms: C_3  and  C_4
REMARK    3  A    between atoms: C_6  and  O_7
REMARK    4  A    between atoms: C_9  and  O_10
REMARK                            x       y       z     vdW  Elec       q    Type
REMARK                         _______ _______ _______ _____ _____    ______ ____
ROOT
ATOM      1  C   UNL     1       4.860   5.503  17.995  0.00  0.00    +0.000 A 
ATOM      2  C   UNL     1       5.519   5.437  19.206  0.00  0.00    +0.000 A 
ATOM      3  C   UNL     1       6.890   5.527  19.137  0.00  0.00    +0.000 A 
ATOM      4  N   UNL     1       7.582   5.688  18.003  0.00  0.00    +0.000 NA
ATOM      5  C   UNL     1       6.831   5.753  16.910  0.00  0.00    +0.000 A 
ATOM      6  N   UNL     1       5.506   5.672  16.829  0.00  0.00    +0.000 NA
ENDROOT
BRANCH   1   9
ATOM      7  C   UNL     1       3.226   2.898  17.589  0.00  0.00    +0.000 C 
ATOM      8  C   UNL     1       2.679   4.282  17.739  0.00  0.00    +0.000 C 
ATOM      9  C   UNL     1       3.393   5.403  17.942  0.00  0.00    +0.000 C 
ENDBRANCH   1   9
BRANCH   3  10
ATOM     10  O   UNL     1       7.661   5.443  20.259  0.00  0.00    +0.000 OA
ATOM     11  H   UNL     1       7.999   6.325  20.471  0.00  0.00    +0.000 HD
ENDBRANCH   3  10
BRANCH   5  12
ATOM     12  O   UNL     1       7.522   5.916  15.751  0.00  0.00    +0.000 OA
ATOM     13  H   UNL     1       8.250   6.461  16.092  0.00  0.00    +0.000 HD
ENDBRANCH   5  12
TORSDOF 3
ENDMDL
MODEL 8
REMARK VINA RESULT:      -5.3      4.545      5.759
REMARK  Name = 
REMARK  4 active torsions:
REMARK  status: ('A' for Active; 'I' for Inactive)
REMARK    1  A    between atoms: C_1  and  C_2
REMARK    2  A    between atoms: C_3  and  C_4
REMARK    3  A    between atoms: C_6  and  O_7
REMARK    4  A    between atoms: C_9  and  O_10
REMARK                            x       y       z     vdW  Elec       q    Type
REMARK                         _______ _______ _______ _____ _____    ______ ____
ROOT
ATOM      1  C   UNL     1       2.402   3.727  19.222  0.00  0.00    +0.000 A 
ATOM      2  C   UNL     1       1.577   3.577  20.319  0.00  0.00    +0.000 A 
ATOM      3  C   UNL     1       2.088   2.809  21.340  0.00  0.00    +0.000 A 
ATOM      4  N   UNL     1       3.301   2.244  21.328  0.00  0.00    +0.000 NA
ATOM      5  C   UNL     1       4.001   2.478  20.225  0.00  0.00    +0.000 A 
ATOM      6  N   UNL     1       3.631   3.187  19.163  0.00  0.00    +0.000 NA
ENDROOT
BRANCH   1   9
ATOM      7  C   UNL     1       2.899   6.757  18.783  0.00  0.00    +0.000 C 
ATOM      8  C   UNL     1       2.145   5.834  17.878  0.00  0.00    +0.000 C 
ATOM      9  C   UNL     1       1.957   4.515  18.062  0.00  0.00    +0.000 C 
ENDBRANCH   1   9
BRANCH   3  10
ATOM     10  O   UNL     1       1.360   2.556  22.466  0.00  0.00    +0.000 OA
ATOM     11  H   UNL     1       1.944   2.623  23.236  0.00  0.00    +0.000 HD
ENDBRANCH   3  10
BRANCH   5  12
ATOM     12  O   UNL     1       5.234   1.908  20.200  0.00  0.00    +0.000 OA
ATOM     13  H   UNL     1       5.145   1.402  19.376  0.00  0.00    +0.000 HD
ENDBRANCH   5  12
TORSDOF 3
ENDMDL
MODEL 9
REMARK VINA RESULT:      -5.2      1.580      2.022
REMARK  Name = 
REMARK  4 active torsions:
REMARK  status: ('A' for Active; 'I' for Inactive)
REMARK    1  A    between atoms: C_1  and  C_2
REMARK    2  A    between atoms: C_3  and  C_4
REMARK    3  A    between atoms: C_6  and  O_7
REMARK    4  A    between atoms: C_9  and  O_10
REMARK                            x       y       z     vdW  Elec       q    Type
REMARK                         _______ _______ _______ _____ _____    ______ ____
ROOT
ATOM      1  C   UNL     1       4.590   5.340  17.706  0.00  0.00    +0.000 A 
ATOM      2  C   UNL     1       5.265   5.462  16.508  0.00  0.00    +0.000 A 
ATOM      3  C   UNL     1       6.633   5.565  16.610  0.00  0.00    +0.000 A 
ATOM      4  N   UNL     1       7.311   5.531  17.763  0.00  0.00    +0.000 NA
ATOM      5  C   UNL     1       6.547   5.393  18.841  0.00  0.00    +0.000 A 
ATOM      6  N   UNL     1       5.222   5.293  18.890  0.00  0.00    +0.000 NA
ENDROOT
BRANCH   1   9
ATOM      7  C   UNL     1       2.950   2.707  17.661  0.00  0.00    +0.000 C 
ATOM      8  C   UNL     1       2.405   4.100  17.676  0.00  0.00    +0.000 C 
ATOM      9  C   UNL     1       3.122   5.237  17.723  0.00  0.00    +0.000 C 
ENDBRANCH   1   9
BRANCH   3  10
ATOM     10  O   UNL     1       7.414   5.724  15.503  0.00  0.00    +0.000 OA
ATOM     11  H   UNL     1       6.943   5.364  14.736  0.00  0.00    +0.000 HD
ENDBRANCH   3  10
BRANCH   5  12
ATOM     12  O   UNL     1       7.224   5.359  20.019  0.00  0.00    +0.000 OA
ATOM     13  H   UNL     1       6.870   4.524  20.366  0.00  0.00    +0.000 HD
ENDBRANCH   5  12
TORSDOF 3
ENDMDL
