MODEL 1
REMARK VINA RESULT:      -6.4      0.000      0.000
REMARK  Name = 
REMARK  5 active torsions:
REMARK  status: ('A' for Active; 'I' for Inactive)
REMARK    1  A    between atoms: O_1  and  C_2
REMARK    2  A    between atoms: C_10  and  O_11
REMARK    3  A    between atoms: O_11  and  C_12
REMARK    4  A    between atoms: C_12  and  C_13
REMARK    5  A    between atoms: C_20  and  C_21
REMARK                            x       y       z     vdW  Elec       q    Type
REMARK                         _______ _______ _______ _____ _____    ______ ____
ROOT
ATOM      1  C   UNL     1       3.073  15.885  18.177  0.00  0.00    +0.000 A 
ATOM      2  C   UNL     1       1.856  15.835  18.847  0.00  0.00    +0.000 A 
ATOM      3  C   UNL     1       1.798  15.353  20.156  0.00  0.00    +0.000 A 
ATOM      4  C   UNL     1       3.007  14.981  20.747  0.00  0.00    +0.000 A 
ATOM      5  O   UNL     1       3.128  14.506  22.007  0.00  0.00    +0.000 OA
ATOM      6  C   UNL     1       4.448  14.302  22.239  0.00  0.00    +0.000 A 
ATOM      7  N   UNL     1       4.881  13.846  23.426  0.00  0.00    +0.000 NA
ATOM      8  C   UNL     1       6.220  13.765  23.510  0.00  0.00    +0.000 A 
ATOM      9  C   UNL     1       7.117  14.084  22.497  0.00  0.00    +0.000 A 
ATOM     10  C   UNL     1       6.640  14.579  21.255  0.00  0.00    +0.000 A 
ATOM     11  C   UNL     1       5.217  14.662  21.123  0.00  0.00    +0.000 A 
ATOM     12  C   UNL     1       4.250  15.050  20.126  0.00  0.00    +0.000 A 
ATOM     13  C   UNL     1       4.266  15.472  18.780  0.00  0.00    +0.000 A 
ENDROOT
BRANCH  10  14
ATOM     14  C   UNL     1       7.555  15.033  20.174  0.00  0.00    +0.000 A 
ATOM     15  C   UNL     1       7.732  14.285  18.991  0.00  0.00    +0.000 A 
ATOM     16  C   UNL     1       8.626  14.679  17.987  0.00  0.00    +0.000 A 
ATOM     17  C   UNL     1       9.323  15.872  18.116  0.00  0.00    +0.000 A 
ATOM     18 CL   UNL     1      10.383  16.388  16.865  0.00  0.00    +0.000 Cl
ATOM     19  C   UNL     1       9.168  16.643  19.260  0.00  0.00    +0.000 A 
ATOM     20  C   UNL     1       8.332  16.199  20.294  0.00  0.00    +0.000 A 
ENDBRANCH  10  14
BRANCH   1  21
ATOM     21  O   UNL     1       3.158  16.356  16.898  0.00  0.00    +0.000 OA
ATOM     22  H   UNL     1       3.117  17.326  16.915  0.00  0.00    +0.000 HD
ENDBRANCH   1  21
BRANCH   9  23
ATOM     23  O   UNL     1       8.472  14.068  22.701  0.00  0.00    +0.000 OA
BRANCH  23  24
ATOM     24  C   UNL     1       9.111  12.799  22.855  0.00  0.00    +0.000 C 
BRANCH  24  25
ATOM     25  C   UNL     1       9.626  12.389  21.501  0.00  0.00    +0.000 A 
ATOM     26  C   UNL     1      10.689  13.098  20.915  0.00  0.00    +0.000 A 
ATOM     27  C   UNL     1      11.207  12.709  19.679  0.00  0.00    +0.000 A 
ATOM     28  C   UNL     1      10.668  11.613  19.013  0.00  0.00    +0.000 A 
ATOM     29  C   UNL     1       9.609  10.909  19.584  0.00  0.00    +0.000 A 
ATOM     30 CL   UNL     1       8.945   9.551  18.762  0.00  0.00    +0.000 Cl
ATOM     31  C   UNL     1       9.086  11.290  20.821  0.00  0.00    +0.000 A 
ENDBRANCH  24  25
ENDBRANCH  23  24
ENDBRANCH   9  23
TORSDOF 5
ENDMDL
MODEL 2
REMARK VINA RESULT:      -6.4      8.241     10.652
REMARK  Name = 
REMARK  5 active torsions:
REMARK  status: ('A' for Active; 'I' for Inactive)
REMARK    1  A    between atoms: O_1  and  C_2
REMARK    2  A    between atoms: C_10  and  O_11
REMARK    3  A    between atoms: O_11  and  C_12
REMARK    4  A    between atoms: C_12  and  C_13
REMARK    5  A    between atoms: C_20  and  C_21
REMARK                            x       y       z     vdW  Elec       q    Type
REMARK                         _______ _______ _______ _____ _____    ______ ____
ROOT
ATOM      1  C   UNL     1       8.041   5.335  13.113  0.00  0.00    +0.000 A 
ATOM      2  C   UNL     1       7.386   4.502  12.214  0.00  0.00    +0.000 A 
ATOM      3  C   UNL     1       6.281   3.756  12.629  0.00  0.00    +0.000 A 
ATOM      4  C   UNL     1       5.862   3.929  13.950  0.00  0.00    +0.000 A 
ATOM      5  O   UNL     1       4.807   3.292  14.507  0.00  0.00    +0.000 OA
ATOM      6  C   UNL     1       4.682   3.749  15.777  0.00  0.00    +0.000 A 
ATOM      7  N   UNL     1       3.699   3.307  16.579  0.00  0.00    +0.000 NA
ATOM      8  C   UNL     1       3.678   3.909  17.779  0.00  0.00    +0.000 A 
ATOM      9  C   UNL     1       4.572   4.882  18.214  0.00  0.00    +0.000 A 
ATOM     10  C   UNL     1       5.594   5.347  17.346  0.00  0.00    +0.000 A 
ATOM     11  C   UNL     1       5.658   4.714  16.064  0.00  0.00    +0.000 A 
ATOM     12  C   UNL     1       6.466   4.778  14.871  0.00  0.00    +0.000 A 
ATOM     13  C   UNL     1       7.622   5.463  14.442  0.00  0.00    +0.000 A 
ENDROOT
BRANCH  10  14
ATOM     14  C   UNL     1       6.513   6.457  17.719  0.00  0.00    +0.000 A 
ATOM     15  C   UNL     1       6.355   7.756  17.192  0.00  0.00    +0.000 A 
ATOM     16  C   UNL     1       7.241   8.797  17.500  0.00  0.00    +0.000 A 
ATOM     17  C   UNL     1       8.276   8.576  18.397  0.00  0.00    +0.000 A 
ATOM     18 CL   UNL     1       9.337   9.861  18.819  0.00  0.00    +0.000 Cl
ATOM     19  C   UNL     1       8.459   7.314  18.946  0.00  0.00    +0.000 A 
ATOM     20  C   UNL     1       7.614   6.260  18.570  0.00  0.00    +0.000 A 
ENDBRANCH  10  14
BRANCH   1  21
ATOM     21  O   UNL     1       9.121   6.079  12.731  0.00  0.00    +0.000 OA
ATOM     22  H   UNL     1       9.929   5.560  12.877  0.00  0.00    +0.000 HD
ENDBRANCH   1  21
BRANCH   9  23
ATOM     23  O   UNL     1       4.418   5.518  19.418  0.00  0.00    +0.000 OA
BRANCH  23  24
ATOM     24  C   UNL     1       3.099   5.610  19.963  0.00  0.00    +0.000 C 
BRANCH  24  25
ATOM     25  C   UNL     1       2.529   6.935  19.532  0.00  0.00    +0.000 A 
ATOM     26  C   UNL     1       2.729   7.385  18.216  0.00  0.00    +0.000 A 
ATOM     27  C   UNL     1       2.174   8.592  17.786  0.00  0.00    +0.000 A 
ATOM     28  C   UNL     1       1.417   9.361  18.664  0.00  0.00    +0.000 A 
ATOM     29  C   UNL     1       1.219   8.924  19.972  0.00  0.00    +0.000 A 
ATOM     30 CL   UNL     1       0.279   9.873  21.056  0.00  0.00    +0.000 Cl
ATOM     31  C   UNL     1       1.769   7.718  20.410  0.00  0.00    +0.000 A 
ENDBRANCH  24  25
ENDBRANCH  23  24
ENDBRANCH   9  23
TORSDOF 5
ENDMDL
MODEL 3
REMARK VINA RESULT:      -6.4      8.614     10.490
REMARK  Name = 
REMARK  5 active torsions:
REMARK  status: ('A' for Active; 'I' for Inactive)
REMARK    1  A    between atoms: O_1  and  C_2
REMARK    2  A    between atoms: C_10  and  O_11
REMARK    3  A    between atoms: O_11  and  C_12
REMARK    4  A    between atoms: C_12  and  C_13
REMARK    5  A    between atoms: C_20  and  C_21
REMARK                            x       y       z     vdW  Elec       q    Type
REMARK                         _______ _______ _______ _____ _____    ______ ____
ROOT
ATOM      1  C   UNL     1      -0.106   8.957  21.597  0.00  0.00    +0.000 A 
ATOM      2  C   UNL     1      -0.212  10.212  21.010  0.00  0.00    +0.000 A 
ATOM      3  C   UNL     1       0.522  10.511  19.860  0.00  0.00    +0.000 A 
ATOM      4  C   UNL     1       1.309   9.487  19.329  0.00  0.00    +0.000 A 
ATOM      5  O   UNL     1       2.072   9.606  18.219  0.00  0.00    +0.000 OA
ATOM      6  C   UNL     1       2.647   8.400  17.990  0.00  0.00    +0.000 A 
ATOM      7  N   UNL     1       3.453   8.205  16.934  0.00  0.00    +0.000 NA
ATOM      8  C   UNL     1       3.885   6.938  16.818  0.00  0.00    +0.000 A 
ATOM      9  C   UNL     1       3.581   5.895  17.686  0.00  0.00    +0.000 A 
ATOM     10  C   UNL     1       2.715   6.118  18.788  0.00  0.00    +0.000 A 
ATOM     11  C   UNL     1       2.250   7.462  18.954  0.00  0.00    +0.000 A 
ATOM     12  C   UNL     1       1.416   8.208  19.864  0.00  0.00    +0.000 A 
ATOM     13  C   UNL     1       0.719   7.960  21.065  0.00  0.00    +0.000 A 
ENDROOT
BRANCH  10  14
ATOM     14  C   UNL     1       2.273   5.019  19.689  0.00  0.00    +0.000 A 
ATOM     15  C   UNL     1       1.216   4.153  19.337  0.00  0.00    +0.000 A 
ATOM     16  C   UNL     1       0.761   3.145  20.196  0.00  0.00    +0.000 A 
ATOM     17  C   UNL     1       1.399   2.938  21.411  0.00  0.00    +0.000 A 
ATOM     18 CL   UNL     1       0.879   1.670  22.450  0.00  0.00    +0.000 Cl
ATOM     19  C   UNL     1       2.450   3.762  21.790  0.00  0.00    +0.000 A 
ATOM     20  C   UNL     1       2.845   4.818  20.958  0.00  0.00    +0.000 A 
ENDBRANCH  10  14
BRANCH   1  21
ATOM     21  O   UNL     1      -0.817   8.638  22.719  0.00  0.00    +0.000 OA
ATOM     22  H   UNL     1      -1.577   9.238  22.792  0.00  0.00    +0.000 HD
ENDBRANCH   1  21
BRANCH   9  23
ATOM     23  O   UNL     1       3.981   4.609  17.438  0.00  0.00    +0.000 OA
BRANCH  23  24
ATOM     24  C   UNL     1       5.379   4.317  17.511  0.00  0.00    +0.000 C 
BRANCH  24  25
ATOM     25  C   UNL     1       5.942   4.471  16.123  0.00  0.00    +0.000 A 
ATOM     26  C   UNL     1       7.144   5.174  15.932  0.00  0.00    +0.000 A 
ATOM     27  C   UNL     1       7.702   5.292  14.658  0.00  0.00    +0.000 A 
ATOM     28  C   UNL     1       7.067   4.714  13.564  0.00  0.00    +0.000 A 
ATOM     29  C   UNL     1       5.871   4.021  13.745  0.00  0.00    +0.000 A 
ATOM     30 CL   UNL     1       5.088   3.304  12.391  0.00  0.00    +0.000 Cl
ATOM     31  C   UNL     1       5.307   3.896  15.015  0.00  0.00    +0.000 A 
ENDBRANCH  24  25
ENDBRANCH  23  24
ENDBRANCH   9  23
TORSDOF 5
ENDMDL
MODEL 4
REMARK VINA RESULT:      -6.3      7.698      9.709
REMARK  Name = 
REMARK  5 active torsions:
REMARK  status: ('A' for Active; 'I' for Inactive)
REMARK    1  A    between atoms: O_1  and  C_2
REMARK    2  A    between atoms: C_10  and  O_11
REMARK    3  A    between atoms: O_11  and  C_12
REMARK    4  A    between atoms: C_12  and  C_13
REMARK    5  A    between atoms: C_20  and  C_21
REMARK                            x       y       z     vdW  Elec       q    Type
REMARK                         _______ _______ _______ _____ _____    ______ ____
ROOT
ATOM      1  C   UNL     1      -0.302   9.140  22.023  0.00  0.00    +0.000 A 
ATOM      2  C   UNL     1      -0.518  10.425  21.540  0.00  0.00    +0.000 A 
ATOM      3  C   UNL     1       0.114  10.848  20.369  0.00  0.00    +0.000 A 
ATOM      4  C   UNL     1       0.915   9.914  19.710  0.00  0.00    +0.000 A 
ATOM      5  O   UNL     1       1.587  10.157  18.562  0.00  0.00    +0.000 OA
ATOM      6  C   UNL     1       2.209   9.007  18.204  0.00  0.00    +0.000 A 
ATOM      7  N   UNL     1       2.946   8.936  17.084  0.00  0.00    +0.000 NA
ATOM      8  C   UNL     1       3.436   7.709  16.843  0.00  0.00    +0.000 A 
ATOM      9  C   UNL     1       3.252   6.590  17.649  0.00  0.00    +0.000 A 
ATOM     10  C   UNL     1       2.458   6.682  18.821  0.00  0.00    +0.000 A 
ATOM     11  C   UNL     1       1.934   7.980  19.119  0.00  0.00    +0.000 A 
ATOM     12  C   UNL     1       1.129   8.608  20.138  0.00  0.00    +0.000 A 
ATOM     13  C   UNL     1       0.535   8.234  21.362  0.00  0.00    +0.000 A 
ENDROOT
BRANCH  10  14
ATOM     14  C   UNL     1       2.142   5.497  19.664  0.00  0.00    +0.000 A 
ATOM     15  C   UNL     1       2.792   5.271  20.896  0.00  0.00    +0.000 A 
ATOM     16  C   UNL     1       2.536   4.135  21.675  0.00  0.00    +0.000 A 
ATOM     17  C   UNL     1       1.572   3.224  21.268  0.00  0.00    +0.000 A 
ATOM     18 CL   UNL     1       1.217   1.854  22.244  0.00  0.00    +0.000 Cl
ATOM     19  C   UNL     1       0.902   3.416  20.067  0.00  0.00    +0.000 A 
ATOM     20  C   UNL     1       1.223   4.514  19.257  0.00  0.00    +0.000 A 
ENDBRANCH  10  14
BRANCH   1  21
ATOM     21  O   UNL     1      -0.911   8.700  23.163  0.00  0.00    +0.000 OA
ATOM     22  H   UNL     1      -0.329   8.060  23.604  0.00  0.00    +0.000 HD
ENDBRANCH   1  21
BRANCH   9  23
ATOM     23  O   UNL     1       3.703   5.350  17.277  0.00  0.00    +0.000 OA
BRANCH  23  24
ATOM     24  C   UNL     1       4.907   5.278  16.509  0.00  0.00    +0.000 C 
BRANCH  24  25
ATOM     25  C   UNL     1       6.029   5.756  17.391  0.00  0.00    +0.000 A 
ATOM     26  C   UNL     1       6.528   4.915  18.401  0.00  0.00    +0.000 A 
ATOM     27  C   UNL     1       7.595   5.324  19.203  0.00  0.00    +0.000 A 
ATOM     28  C   UNL     1       8.173   6.575  19.007  0.00  0.00    +0.000 A 
ATOM     29  C   UNL     1       7.680   7.416  18.011  0.00  0.00    +0.000 A 
ATOM     30 CL   UNL     1       8.397   8.961  17.767  0.00  0.00    +0.000 Cl
ATOM     31  C   UNL     1       6.614   7.015  17.204  0.00  0.00    +0.000 A 
ENDBRANCH  24  25
ENDBRANCH  23  24
ENDBRANCH   9  23
TORSDOF 5
ENDMDL
MODEL 5
REMARK VINA RESULT:      -6.3      8.075     10.111
REMARK  Name = 
REMARK  5 active torsions:
REMARK  status: ('A' for Active; 'I' for Inactive)
REMARK    1  A    between atoms: O_1  and  C_2
REMARK    2  A    between atoms: C_10  and  O_11
REMARK    3  A    between atoms: O_11  and  C_12
REMARK    4  A    between atoms: C_12  and  C_13
REMARK    5  A    between atoms: C_20  and  C_21
REMARK                            x       y       z     vdW  Elec       q    Type
REMARK                         _______ _______ _______ _____ _____    ______ ____
ROOT
ATOM      1  C   UNL     1      -6.734  13.457  19.800  0.00  0.00    +0.000 A 
ATOM      2  C   UNL     1      -7.548  12.826  18.867  0.00  0.00    +0.000 A 
ATOM      3  C   UNL     1      -6.992  11.951  17.931  0.00  0.00    +0.000 A 
ATOM      4  C   UNL     1      -5.618  11.722  18.019  0.00  0.00    +0.000 A 
ATOM      5  O   UNL     1      -4.926  10.899  17.200  0.00  0.00    +0.000 OA
ATOM      6  C   UNL     1      -3.637  10.897  17.620  0.00  0.00    +0.000 A 
ATOM      7  N   UNL     1      -2.708  10.148  17.004  0.00  0.00    +0.000 NA
ATOM      8  C   UNL     1      -1.499  10.211  17.587  0.00  0.00    +0.000 A 
ATOM      9  C   UNL     1      -1.176  10.974  18.703  0.00  0.00    +0.000 A 
ATOM     10  C   UNL     1      -2.176  11.747  19.349  0.00  0.00    +0.000 A 
ATOM     11  C   UNL     1      -3.473  11.719  18.744  0.00  0.00    +0.000 A 
ATOM     12  C   UNL     1      -4.773  12.303  18.959  0.00  0.00    +0.000 A 
ATOM     13  C   UNL     1      -5.353  13.237  19.844  0.00  0.00    +0.000 A 
ENDROOT
BRANCH  10  14
ATOM     14  C   UNL     1      -1.913  12.500  20.605  0.00  0.00    +0.000 A 
ATOM     15  C   UNL     1      -2.054  11.898  21.873  0.00  0.00    +0.000 A 
ATOM     16  C   UNL     1      -1.854  12.610  23.062  0.00  0.00    +0.000 A 
ATOM     17  C   UNL     1      -1.445  13.935  23.010  0.00  0.00    +0.000 A 
ATOM     18 CL   UNL     1      -1.149  14.801  24.465  0.00  0.00    +0.000 Cl
ATOM     19  C   UNL     1      -1.284  14.561  21.782  0.00  0.00    +0.000 A 
ATOM     20  C   UNL     1      -1.564  13.862  20.599  0.00  0.00    +0.000 A 
ENDBRANCH  10  14
BRANCH   1  21
ATOM     21  O   UNL     1      -7.254  14.313  20.729  0.00  0.00    +0.000 OA
ATOM     22  H   UNL     1      -8.032  14.754  20.350  0.00  0.00    +0.000 HD
ENDBRANCH   1  21
BRANCH   9  23
ATOM     23  O   UNL     1       0.058  10.902  19.295  0.00  0.00    +0.000 OA
BRANCH  23  24
ATOM     24  C   UNL     1       1.159  10.462  18.496  0.00  0.00    +0.000 C 
BRANCH  24  25
ATOM     25  C   UNL     1       1.569   9.107  19.007  0.00  0.00    +0.000 A 
ATOM     26  C   UNL     1       1.248   8.731  20.323  0.00  0.00    +0.000 A 
ATOM     27  C   UNL     1       1.584   7.463  20.801  0.00  0.00    +0.000 A 
ATOM     28  C   UNL     1       2.246   6.561  19.975  0.00  0.00    +0.000 A 
ATOM     29  C   UNL     1       2.573   6.929  18.671  0.00  0.00    +0.000 A 
ATOM     30 CL   UNL     1       3.388   5.811  17.649  0.00  0.00    +0.000 Cl
ATOM     31  C   UNL     1       2.240   8.193  18.184  0.00  0.00    +0.000 A 
ENDBRANCH  24  25
ENDBRANCH  23  24
ENDBRANCH   9  23
TORSDOF 5
ENDMDL
MODEL 6
REMARK VINA RESULT:      -6.3      6.747     10.033
REMARK  Name = 
REMARK  5 active torsions:
REMARK  status: ('A' for Active; 'I' for Inactive)
REMARK    1  A    between atoms: O_1  and  C_2
REMARK    2  A    between atoms: C_10  and  O_11
REMARK    3  A    between atoms: O_11  and  C_12
REMARK    4  A    between atoms: C_12  and  C_13
REMARK    5  A    between atoms: C_20  and  C_21
REMARK                            x       y       z     vdW  Elec       q    Type
REMARK                         _______ _______ _______ _____ _____    ______ ____
ROOT
ATOM      1  C   UNL     1      -6.650  13.062  19.899  0.00  0.00    +0.000 A 
ATOM      2  C   UNL     1      -7.406  12.334  18.988  0.00  0.00    +0.000 A 
ATOM      3  C   UNL     1      -6.775  11.491  18.070  0.00  0.00    +0.000 A 
ATOM      4  C   UNL     1      -5.384  11.395  18.153  0.00  0.00    +0.000 A 
ATOM      5  O   UNL     1      -4.622  10.620  17.349  0.00  0.00    +0.000 OA
ATOM      6  C   UNL     1      -3.337  10.750  17.759  0.00  0.00    +0.000 A 
ATOM      7  N   UNL     1      -2.345  10.076  17.155  0.00  0.00    +0.000 NA
ATOM      8  C   UNL     1      -1.144  10.267  17.726  0.00  0.00    +0.000 A 
ATOM      9  C   UNL     1      -0.888  11.086  18.821  0.00  0.00    +0.000 A 
ATOM     10  C   UNL     1      -1.953  11.778  19.455  0.00  0.00    +0.000 A 
ATOM     11  C   UNL     1      -3.245  11.612  18.861  0.00  0.00    +0.000 A 
ATOM     12  C   UNL     1      -4.593  12.077  19.072  0.00  0.00    +0.000 A 
ATOM     13  C   UNL     1      -5.254  12.974  19.937  0.00  0.00    +0.000 A 
ENDROOT
BRANCH  10  14
ATOM     14  C   UNL     1      -1.756  12.584  20.690  0.00  0.00    +0.000 A 
ATOM     15  C   UNL     1      -1.780  13.995  20.664  0.00  0.00    +0.000 A 
ATOM     16  C   UNL     1      -1.550  14.765  21.811  0.00  0.00    +0.000 A 
ATOM     17  C   UNL     1      -1.350  14.136  23.032  0.00  0.00    +0.000 A 
ATOM     18 CL   UNL     1      -1.116  15.074  24.454  0.00  0.00    +0.000 Cl
ATOM     19  C   UNL     1      -1.329  12.750  23.102  0.00  0.00    +0.000 A 
ATOM     20  C   UNL     1      -1.481  11.990  21.934  0.00  0.00    +0.000 A 
ENDBRANCH  10  14
BRANCH   1  21
ATOM     21  O   UNL     1      -7.243  13.889  20.810  0.00  0.00    +0.000 OA
ATOM     22  H   UNL     1      -7.538  13.361  21.570  0.00  0.00    +0.000 HD
ENDBRANCH   1  21
BRANCH   9  23
ATOM     23  O   UNL     1       0.350  11.145  19.405  0.00  0.00    +0.000 OA
BRANCH  23  24
ATOM     24  C   UNL     1       1.381  11.857  18.716  0.00  0.00    +0.000 C 
BRANCH  24  25
ATOM     25  C   UNL     1       1.542  13.187  19.401  0.00  0.00    +0.000 A 
ATOM     26  C   UNL     1       1.914  13.233  20.756  0.00  0.00    +0.000 A 
ATOM     27  C   UNL     1       2.107  14.458  21.399  0.00  0.00    +0.000 A 
ATOM     28  C   UNL     1       1.928  15.646  20.698  0.00  0.00    +0.000 A 
ATOM     29  C   UNL     1       1.553  15.608  19.356  0.00  0.00    +0.000 A 
ATOM     30 CL   UNL     1       1.336  17.079  18.490  0.00  0.00    +0.000 Cl
ATOM     31  C   UNL     1       1.360  14.389  18.705  0.00  0.00    +0.000 A 
ENDBRANCH  24  25
ENDBRANCH  23  24
ENDBRANCH   9  23
TORSDOF 5
ENDMDL
MODEL 7
REMARK VINA RESULT:      -6.1      7.696     10.481
REMARK  Name = 
REMARK  5 active torsions:
REMARK  status: ('A' for Active; 'I' for Inactive)
REMARK    1  A    between atoms: O_1  and  C_2
REMARK    2  A    between atoms: C_10  and  O_11
REMARK    3  A    between atoms: O_11  and  C_12
REMARK    4  A    between atoms: C_12  and  C_13
REMARK    5  A    between atoms: C_20  and  C_21
REMARK                            x       y       z     vdW  Elec       q    Type
REMARK                         _______ _______ _______ _____ _____    ______ ____
ROOT
ATOM      1  C   UNL     1      -7.108  11.914  20.813  0.00  0.00    +0.000 A 
ATOM      2  C   UNL     1      -7.663  11.135  19.806  0.00  0.00    +0.000 A 
ATOM      3  C   UNL     1      -6.903  10.795  18.685  0.00  0.00    +0.000 A 
ATOM      4  C   UNL     1      -5.578  11.234  18.663  0.00  0.00    +0.000 A 
ATOM      5  O   UNL     1      -4.706  10.985  17.660  0.00  0.00    +0.000 OA
ATOM      6  C   UNL     1      -3.515  11.526  18.013  0.00  0.00    +0.000 A 
ATOM      7  N   UNL     1      -2.441  11.420  17.214  0.00  0.00    +0.000 NA
ATOM      8  C   UNL     1      -1.327  11.952  17.744  0.00  0.00    +0.000 A 
ATOM      9  C   UNL     1      -1.238  12.583  18.979  0.00  0.00    +0.000 A 
ATOM     10  C   UNL     1      -2.382  12.672  19.816  0.00  0.00    +0.000 A 
ATOM     11  C   UNL     1      -3.592  12.131  19.276  0.00  0.00    +0.000 A 
ATOM     12  C   UNL     1      -4.972  11.984  19.665  0.00  0.00    +0.000 A 
ATOM     13  C   UNL     1      -5.787  12.372  20.749  0.00  0.00    +0.000 A 
ENDROOT
BRANCH  10  14
ATOM     14  C   UNL     1      -2.323  13.243  21.188  0.00  0.00    +0.000 A 
ATOM     15  C   UNL     1      -2.338  12.420  22.334  0.00  0.00    +0.000 A 
ATOM     16  C   UNL     1      -2.330  12.949  23.631  0.00  0.00    +0.000 A 
ATOM     17  C   UNL     1      -2.241  14.322  23.814  0.00  0.00    +0.000 A 
ATOM     18 CL   UNL     1      -2.180  14.975  25.402  0.00  0.00    +0.000 Cl
ATOM     19  C   UNL     1      -2.213  15.166  22.712  0.00  0.00    +0.000 A 
ATOM     20  C   UNL     1      -2.302  14.630  21.419  0.00  0.00    +0.000 A 
ENDBRANCH  10  14
BRANCH   1  21
ATOM     21  O   UNL     1      -7.828  12.256  21.922  0.00  0.00    +0.000 OA
ATOM     22  H   UNL     1      -8.775  12.190  21.716  0.00  0.00    +0.000 HD
ENDBRANCH   1  21
BRANCH   9  23
ATOM     23  O   UNL     1      -0.039  13.010  19.488  0.00  0.00    +0.000 OA
BRANCH  23  24
ATOM     24  C   UNL     1       1.133  12.263  19.156  0.00  0.00    +0.000 C 
BRANCH  24  25
ATOM     25  C   UNL     1       1.034  10.937  19.862  0.00  0.00    +0.000 A 
ATOM     26  C   UNL     1       1.389   9.757  19.184  0.00  0.00    +0.000 A 
ATOM     27  C   UNL     1       1.342   8.523  19.835  0.00  0.00    +0.000 A 
ATOM     28  C   UNL     1       0.939   8.453  21.165  0.00  0.00    +0.000 A 
ATOM     29  C   UNL     1       0.580   9.618  21.841  0.00  0.00    +0.000 A 
ATOM     30 CL   UNL     1       0.086   9.530  23.487  0.00  0.00    +0.000 Cl
ATOM     31  C   UNL     1       0.626  10.856  21.199  0.00  0.00    +0.000 A 
ENDBRANCH  24  25
ENDBRANCH  23  24
ENDBRANCH   9  23
TORSDOF 5
ENDMDL
MODEL 8
REMARK VINA RESULT:      -5.9      6.827     11.201
REMARK  Name = 
REMARK  5 active torsions:
REMARK  status: ('A' for Active; 'I' for Inactive)
REMARK    1  A    between atoms: O_1  and  C_2
REMARK    2  A    between atoms: C_10  and  O_11
REMARK    3  A    between atoms: O_11  and  C_12
REMARK    4  A    between atoms: C_12  and  C_13
REMARK    5  A    between atoms: C_20  and  C_21
REMARK                            x       y       z     vdW  Elec       q    Type
REMARK                         _______ _______ _______ _____ _____    ______ ____
ROOT
ATOM      1  C   UNL     1       2.525  13.708  18.733  0.00  0.00    +0.000 A 
ATOM      2  C   UNL     1       3.397  14.330  19.619  0.00  0.00    +0.000 A 
ATOM      3  C   UNL     1       2.963  14.675  20.901  0.00  0.00    +0.000 A 
ATOM      4  C   UNL     1       1.655  14.325  21.241  0.00  0.00    +0.000 A 
ATOM      5  O   UNL     1       1.084  14.576  22.441  0.00  0.00    +0.000 OA
ATOM      6  C   UNL     1      -0.166  14.052  22.413  0.00  0.00    +0.000 A 
ATOM      7  N   UNL     1      -0.975  14.131  23.482  0.00  0.00    +0.000 NA
ATOM      8  C   UNL     1      -2.150  13.504  23.310  0.00  0.00    +0.000 A 
ATOM      9  C   UNL     1      -2.555  12.843  22.155  0.00  0.00    +0.000 A 
ATOM     10  C   UNL     1      -1.679  12.758  21.041  0.00  0.00    +0.000 A 
ATOM     11  C   UNL     1      -0.424  13.431  21.183  0.00  0.00    +0.000 A 
ATOM     12  C   UNL     1       0.762  13.671  20.399  0.00  0.00    +0.000 A 
ATOM     13  C   UNL     1       1.206  13.402  19.087  0.00  0.00    +0.000 A 
ENDROOT
BRANCH  10  14
ATOM     14  C   UNL     1      -2.017  11.977  19.820  0.00  0.00    +0.000 A 
ATOM     15  C   UNL     1      -1.272  10.842  19.438  0.00  0.00    +0.000 A 
ATOM     16  C   UNL     1      -1.552  10.127  18.266  0.00  0.00    +0.000 A 
ATOM     17  C   UNL     1      -2.631  10.496  17.477  0.00  0.00    +0.000 A 
ATOM     18 CL   UNL     1      -3.012   9.594  16.064  0.00  0.00    +0.000 Cl
ATOM     19  C   UNL     1      -3.396  11.602  17.824  0.00  0.00    +0.000 A 
ATOM     20  C   UNL     1      -3.058  12.357  18.956  0.00  0.00    +0.000 A 
ENDBRANCH  10  14
BRANCH   1  21
ATOM     21  O   UNL     1       2.925  13.357  17.476  0.00  0.00    +0.000 OA
ATOM     22  H   UNL     1       3.683  12.753  17.543  0.00  0.00    +0.000 HD
ENDBRANCH   1  21
BRANCH   9  23
ATOM     23  O   UNL     1      -3.731  12.142  22.099  0.00  0.00    +0.000 OA
BRANCH  23  24
ATOM     24  C   UNL     1      -4.945  12.849  22.363  0.00  0.00    +0.000 C 
BRANCH  24  25
ATOM     25  C   UNL     1      -5.737  12.873  21.083  0.00  0.00    +0.000 A 
ATOM     26  C   UNL     1      -6.416  11.715  20.662  0.00  0.00    +0.000 A 
ATOM     27  C   UNL     1      -7.189  11.729  19.499  0.00  0.00    +0.000 A 
ATOM     28  C   UNL     1      -7.289  12.893  18.744  0.00  0.00    +0.000 A 
ATOM     29  C   UNL     1      -6.614  14.042  19.152  0.00  0.00    +0.000 A 
ATOM     30 CL   UNL     1      -6.742  15.482  18.220  0.00  0.00    +0.000 Cl
ATOM     31  C   UNL     1      -5.841  14.038  20.314  0.00  0.00    +0.000 A 
ENDBRANCH  24  25
ENDBRANCH  23  24
ENDBRANCH   9  23
TORSDOF 5
ENDMDL
MODEL 9
REMARK VINA RESULT:      -5.9      8.066      9.284
REMARK  Name = 
REMARK  5 active torsions:
REMARK  status: ('A' for Active; 'I' for Inactive)
REMARK    1  A    between atoms: O_1  and  C_2
REMARK    2  A    between atoms: C_10  and  O_11
REMARK    3  A    between atoms: O_11  and  C_12
REMARK    4  A    between atoms: C_12  and  C_13
REMARK    5  A    between atoms: C_20  and  C_21
REMARK                            x       y       z     vdW  Elec       q    Type
REMARK                         _______ _______ _______ _____ _____    ______ ____
ROOT
ATOM      1  C   UNL     1      -4.222  14.317  20.831  0.00  0.00    +0.000 A 
ATOM      2  C   UNL     1      -3.820  14.962  21.994  0.00  0.00    +0.000 A 
ATOM      3  C   UNL     1      -2.731  14.478  22.722  0.00  0.00    +0.000 A 
ATOM      4  C   UNL     1      -2.064  13.368  22.199  0.00  0.00    +0.000 A 
ATOM      5  O   UNL     1      -0.989  12.782  22.771  0.00  0.00    +0.000 OA
ATOM      6  C   UNL     1      -0.593  11.774  21.956  0.00  0.00    +0.000 A 
ATOM      7  N   UNL     1       0.474  11.016  22.257  0.00  0.00    +0.000 NA
ATOM      8  C   UNL     1       0.768  10.108  21.313  0.00  0.00    +0.000 A 
ATOM      9  C   UNL     1       0.061   9.908  20.132  0.00  0.00    +0.000 A 
ATOM     10  C   UNL     1      -1.055  10.730  19.824  0.00  0.00    +0.000 A 
ATOM     11  C   UNL     1      -1.409  11.698  20.818  0.00  0.00    +0.000 A 
ATOM     12  C   UNL     1      -2.410  12.715  21.021  0.00  0.00    +0.000 A 
ATOM     13  C   UNL     1      -3.558  13.183  20.347  0.00  0.00    +0.000 A 
ENDROOT
BRANCH  10  14
ATOM     14  C   UNL     1      -1.785  10.631  18.532  0.00  0.00    +0.000 A 
ATOM     15  C   UNL     1      -2.662   9.561  18.256  0.00  0.00    +0.000 A 
ATOM     16  C   UNL     1      -3.318   9.433  17.025  0.00  0.00    +0.000 A 
ATOM     17  C   UNL     1      -3.161  10.414  16.057  0.00  0.00    +0.000 A 
ATOM     18 CL   UNL     1      -4.002  10.291  14.563  0.00  0.00    +0.000 Cl
ATOM     19  C   UNL     1      -2.315  11.490  16.293  0.00  0.00    +0.000 A 
ATOM     20  C   UNL     1      -1.601  11.566  17.497  0.00  0.00    +0.000 A 
ENDBRANCH  10  14
BRANCH   1  21
ATOM     21  O   UNL     1      -5.281  14.773  20.098  0.00  0.00    +0.000 OA
ATOM     22  H   UNL     1      -4.953  15.119  19.252  0.00  0.00    +0.000 HD
ENDBRANCH   1  21
BRANCH   9  23
ATOM     23  O   UNL     1       0.489   9.027  19.174  0.00  0.00    +0.000 OA
BRANCH  23  24
ATOM     24  C   UNL     1       1.779   9.239  18.596  0.00  0.00    +0.000 C 
BRANCH  24  25
ATOM     25  C   UNL     1       2.492   7.914  18.595  0.00  0.00    +0.000 A 
ATOM     26  C   UNL     1       3.437   7.632  17.593  0.00  0.00    +0.000 A 
ATOM     27  C   UNL     1       4.138   6.424  17.597  0.00  0.00    +0.000 A 
ATOM     28  C   UNL     1       3.902   5.487  18.597  0.00  0.00    +0.000 A 
ATOM     29  C   UNL     1       2.963   5.757  19.591  0.00  0.00    +0.000 A 
ATOM     30 CL   UNL     1       2.674   4.599  20.829  0.00  0.00    +0.000 Cl
ATOM     31  C   UNL     1       2.258   6.962  19.595  0.00  0.00    +0.000 A 
ENDBRANCH  24  25
ENDBRANCH  23  24
ENDBRANCH   9  23
TORSDOF 5
ENDMDL
