MODEL 1
REMARK VINA RESULT:      -6.8      0.000      0.000
REMARK  Name = 
REMARK  6 active torsions:
REMARK  status: ('A' for Active; 'I' for Inactive)
REMARK    1  A    between atoms: C_2  and  C_3
REMARK    2  A    between atoms: C_3  and  O_4
REMARK    3  A    between atoms: O_4  and  C_5
REMARK    4  A    between atoms: C_5  and  C_7
REMARK    5  A    between atoms: N_14  and  C_15
REMARK    6  A    between atoms: C_15  and  C_16
REMARK                            x       y       z     vdW  Elec       q    Type
REMARK                         _______ _______ _______ _____ _____    ______ ____
ROOT
ATOM      1  C   UNL     1       3.329   1.485  18.536  0.00  0.00    +0.000 C 
ENDROOT
BRANCH   1   3
ATOM      2  O   UNL     1       4.878   1.736  20.366  0.00  0.00    +0.000 OA
ATOM      3  C   UNL     1       4.405   2.212  19.330  0.00  0.00    +0.000 C 
ATOM      4  N   UNL     1       4.819   3.440  18.859  0.00  0.00    +0.000 N 
ATOM      5  H   UNL     1       4.444   3.725  17.967  0.00  0.00    +0.000 HD
BRANCH   4   6
ATOM      6  C   UNL     1       5.837   4.262  19.472  0.00  0.00    +0.000 C 
BRANCH   6   7
ATOM      7  C   UNL     1       6.196   5.387  18.539  0.00  0.00    +0.000 A 
ATOM      8  C   UNL     1       5.449   5.915  17.500  0.00  0.00    +0.000 A 
ATOM      9  C   UNL     1       6.129   6.957  16.804  0.00  0.00    +0.000 A 
ATOM     10  C   UNL     1       7.377   7.198  17.332  0.00  0.00    +0.000 A 
ATOM     11  S   UNL     1       7.713   6.185  18.669  0.00  0.00    +0.000 S 
ENDBRANCH   6   7
ENDBRANCH   4   6
ENDBRANCH   1   3
BRANCH   1  12
ATOM     12  O   UNL     1       2.565   2.372  17.710  0.00  0.00    +0.000 OA
BRANCH  12  13
ATOM     13  C   UNL     1       1.447   2.856  18.299  0.00  0.00    +0.000 C 
ATOM     14  O   UNL     1       0.395   2.245  18.411  0.00  0.00    +0.000 OA
BRANCH  13  15
ATOM     15  C   UNL     1       1.646   4.206  18.890  0.00  0.00    +0.000 A 
ATOM     16  C   UNL     1       1.927   5.253  17.987  0.00  0.00    +0.000 A 
ATOM     17  C   UNL     1       2.177   6.549  18.446  0.00  0.00    +0.000 A 
ATOM     18  C   UNL     1       2.151   6.820  19.811  0.00  0.00    +0.000 A 
ATOM     19  C   UNL     1       1.882   5.790  20.714  0.00  0.00    +0.000 A 
ATOM     20  C   UNL     1       1.636   4.484  20.263  0.00  0.00    +0.000 A 
ATOM     21 CL   UNL     1       1.418   3.276  21.480  0.00  0.00    +0.000 Cl
ENDBRANCH  13  15
ENDBRANCH  12  13
ENDBRANCH   1  12
TORSDOF 6
ENDMDL
MODEL 2
REMARK VINA RESULT:      -6.6      0.876      1.067
REMARK  Name = 
REMARK  6 active torsions:
REMARK  status: ('A' for Active; 'I' for Inactive)
REMARK    1  A    between atoms: C_2  and  C_3
REMARK    2  A    between atoms: C_3  and  O_4
REMARK    3  A    between atoms: O_4  and  C_5
REMARK    4  A    between atoms: C_5  and  C_7
REMARK    5  A    between atoms: N_14  and  C_15
REMARK    6  A    between atoms: C_15  and  C_16
REMARK                            x       y       z     vdW  Elec       q    Type
REMARK                         _______ _______ _______ _____ _____    ______ ____
ROOT
ATOM      1  C   UNL     1       3.491   1.718  18.529  0.00  0.00    +0.000 C 
ENDROOT
BRANCH   1   3
ATOM      2  O   UNL     1       4.969   1.918  20.423  0.00  0.00    +0.000 OA
ATOM      3  C   UNL     1       4.589   2.384  19.345  0.00  0.00    +0.000 C 
ATOM      4  N   UNL     1       5.134   3.548  18.844  0.00  0.00    +0.000 N 
ATOM      5  H   UNL     1       4.828   3.822  17.922  0.00  0.00    +0.000 HD
BRANCH   4   6
ATOM      6  C   UNL     1       6.191   4.306  19.472  0.00  0.00    +0.000 C 
BRANCH   6   7
ATOM      7  C   UNL     1       6.579   5.453  18.578  0.00  0.00    +0.000 A 
ATOM      8  C   UNL     1       7.673   6.294  18.683  0.00  0.00    +0.000 A 
ATOM      9  C   UNL     1       7.697   7.299  17.671  0.00  0.00    +0.000 A 
ATOM     10  C   UNL     1       6.621   7.196  16.819  0.00  0.00    +0.000 A 
ATOM     11  S   UNL     1       5.603   5.884  17.230  0.00  0.00    +0.000 S 
ENDBRANCH   6   7
ENDBRANCH   4   6
ENDBRANCH   1   3
BRANCH   1  12
ATOM     12  O   UNL     1       2.254   1.630  19.245  0.00  0.00    +0.000 OA
BRANCH  12  13
ATOM     13  C   UNL     1       1.302   2.493  18.819  0.00  0.00    +0.000 C 
ATOM     14  O   UNL     1       0.241   2.167  18.308  0.00  0.00    +0.000 OA
BRANCH  13  15
ATOM     15  C   UNL     1       1.636   3.911  19.117  0.00  0.00    +0.000 A 
ATOM     16  C   UNL     1       1.780   4.769  18.007  0.00  0.00    +0.000 A 
ATOM     17  C   UNL     1       2.139   6.109  18.177  0.00  0.00    +0.000 A 
ATOM     18  C   UNL     1       2.361   6.612  19.455  0.00  0.00    +0.000 A 
ATOM     19  C   UNL     1       2.229   5.769  20.560  0.00  0.00    +0.000 A 
ATOM     20  C   UNL     1       1.875   4.421  20.399  0.00  0.00    +0.000 A 
ATOM     21 CL   UNL     1       1.844   3.455  21.832  0.00  0.00    +0.000 Cl
ENDBRANCH  13  15
ENDBRANCH  12  13
ENDBRANCH   1  12
TORSDOF 6
ENDMDL
MODEL 3
REMARK VINA RESULT:      -6.5      2.790      4.690
REMARK  Name = 
REMARK  6 active torsions:
REMARK  status: ('A' for Active; 'I' for Inactive)
REMARK    1  A    between atoms: C_2  and  C_3
REMARK    2  A    between atoms: C_3  and  O_4
REMARK    3  A    between atoms: O_4  and  C_5
REMARK    4  A    between atoms: C_5  and  C_7
REMARK    5  A    between atoms: N_14  and  C_15
REMARK    6  A    between atoms: C_15  and  C_16
REMARK                            x       y       z     vdW  Elec       q    Type
REMARK                         _______ _______ _______ _____ _____    ______ ____
ROOT
ATOM      1  C   UNL     1       5.908   5.164  17.910  0.00  0.00    +0.000 C 
ENDROOT
BRANCH   1   3
ATOM      2  O   UNL     1       4.783   6.230  16.063  0.00  0.00    +0.000 OA
ATOM      3  C   UNL     1       4.876   6.093  17.286  0.00  0.00    +0.000 C 
ATOM      4  N   UNL     1       4.058   6.799  18.144  0.00  0.00    +0.000 N 
ATOM      5  H   UNL     1       4.141   6.575  19.124  0.00  0.00    +0.000 HD
BRANCH   4   6
ATOM      6  C   UNL     1       3.016   7.712  17.733  0.00  0.00    +0.000 C 
BRANCH   6   7
ATOM      7  C   UNL     1       2.185   8.089  18.928  0.00  0.00    +0.000 A 
ATOM      8  C   UNL     1       2.059   7.421  20.135  0.00  0.00    +0.000 A 
ATOM      9  C   UNL     1       1.148   8.058  21.027  0.00  0.00    +0.000 A 
ATOM     10  C   UNL     1       0.604   9.197  20.479  0.00  0.00    +0.000 A 
ATOM     11  S   UNL     1       1.205   9.502  18.907  0.00  0.00    +0.000 S 
ENDBRANCH   6   7
ENDBRANCH   4   6
ENDBRANCH   1   3
BRANCH   1  12
ATOM     12  O   UNL     1       5.334   4.286  18.885  0.00  0.00    +0.000 OA
BRANCH  12  13
ATOM     13  C   UNL     1       4.331   3.509  18.413  0.00  0.00    +0.000 C 
ATOM     14  O   UNL     1       4.363   2.887  17.362  0.00  0.00    +0.000 OA
BRANCH  13  15
ATOM     15  C   UNL     1       3.187   3.410  19.358  0.00  0.00    +0.000 A 
ATOM     16  C   UNL     1       3.456   2.819  20.610  0.00  0.00    +0.000 A 
ATOM     17  C   UNL     1       2.438   2.635  21.551  0.00  0.00    +0.000 A 
ATOM     18  C   UNL     1       1.139   3.037  21.256  0.00  0.00    +0.000 A 
ATOM     19  C   UNL     1       0.860   3.616  20.016  0.00  0.00    +0.000 A 
ATOM     20  C   UNL     1       1.874   3.799  19.063  0.00  0.00    +0.000 A 
ATOM     21 CL   UNL     1       1.386   4.430  17.530  0.00  0.00    +0.000 Cl
ENDBRANCH  13  15
ENDBRANCH  12  13
ENDBRANCH   1  12
TORSDOF 6
ENDMDL
MODEL 4
REMARK VINA RESULT:      -6.4      3.889      5.225
REMARK  Name = 
REMARK  6 active torsions:
REMARK  status: ('A' for Active; 'I' for Inactive)
REMARK    1  A    between atoms: C_2  and  C_3
REMARK    2  A    between atoms: C_3  and  O_4
REMARK    3  A    between atoms: O_4  and  C_5
REMARK    4  A    between atoms: C_5  and  C_7
REMARK    5  A    between atoms: N_14  and  C_15
REMARK    6  A    between atoms: C_15  and  C_16
REMARK                            x       y       z     vdW  Elec       q    Type
REMARK                         _______ _______ _______ _____ _____    ______ ____
ROOT
ATOM      1  C   UNL     1       7.711   6.054  18.532  0.00  0.00    +0.000 C 
ENDROOT
BRANCH   1   3
ATOM      2  O   UNL     1       6.871   7.540  16.828  0.00  0.00    +0.000 OA
ATOM      3  C   UNL     1       7.575   7.400  17.833  0.00  0.00    +0.000 C 
ATOM      4  N   UNL     1       8.289   8.459  18.353  0.00  0.00    +0.000 N 
ATOM      5  H   UNL     1       8.777   8.285  19.218  0.00  0.00    +0.000 HD
BRANCH   4   6
ATOM      6  C   UNL     1       8.271   9.807  17.832  0.00  0.00    +0.000 C 
BRANCH   6   7
ATOM      7  C   UNL     1       9.369  10.604  18.479  0.00  0.00    +0.000 A 
ATOM      8  C   UNL     1      10.440  11.242  17.877  0.00  0.00    +0.000 A 
ATOM      9  C   UNL     1      11.307  11.875  18.817  0.00  0.00    +0.000 A 
ATOM     10  C   UNL     1      10.873  11.705  20.111  0.00  0.00    +0.000 A 
ATOM     11  S   UNL     1       9.420  10.804  20.187  0.00  0.00    +0.000 S 
ENDBRANCH   6   7
ENDBRANCH   4   6
ENDBRANCH   1   3
BRANCH   1  12
ATOM     12  O   UNL     1       6.539   5.705  19.278  0.00  0.00    +0.000 OA
BRANCH  12  13
ATOM     13  C   UNL     1       5.654   4.939  18.599  0.00  0.00    +0.000 C 
ATOM     14  O   UNL     1       5.921   4.269  17.613  0.00  0.00    +0.000 OA
BRANCH  13  15
ATOM     15  C   UNL     1       4.308   4.917  19.231  0.00  0.00    +0.000 A 
ATOM     16  C   UNL     1       3.595   6.134  19.233  0.00  0.00    +0.000 A 
ATOM     17  C   UNL     1       2.342   6.231  19.844  0.00  0.00    +0.000 A 
ATOM     18  C   UNL     1       1.782   5.117  20.461  0.00  0.00    +0.000 A 
ATOM     19  C   UNL     1       2.482   3.910  20.472  0.00  0.00    +0.000 A 
ATOM     20  C   UNL     1       3.744   3.804  19.866  0.00  0.00    +0.000 A 
ATOM     21 CL   UNL     1       4.556   2.288  20.036  0.00  0.00    +0.000 Cl
ENDBRANCH  13  15
ENDBRANCH  12  13
ENDBRANCH   1  12
TORSDOF 6
ENDMDL
MODEL 5
REMARK VINA RESULT:      -6.3      4.520      6.724
REMARK  Name = 
REMARK  6 active torsions:
REMARK  status: ('A' for Active; 'I' for Inactive)
REMARK    1  A    between atoms: C_2  and  C_3
REMARK    2  A    between atoms: C_3  and  O_4
REMARK    3  A    between atoms: O_4  and  C_5
REMARK    4  A    between atoms: C_5  and  C_7
REMARK    5  A    between atoms: N_14  and  C_15
REMARK    6  A    between atoms: C_15  and  C_16
REMARK                            x       y       z     vdW  Elec       q    Type
REMARK                         _______ _______ _______ _____ _____    ______ ____
ROOT
ATOM      1  C   UNL     1       7.567   4.746  17.909  0.00  0.00    +0.000 C 
ENDROOT
BRANCH   1   3
ATOM      2  O   UNL     1       6.445   4.998  20.027  0.00  0.00    +0.000 OA
ATOM      3  C   UNL     1       6.377   5.078  18.797  0.00  0.00    +0.000 C 
ATOM      4  N   UNL     1       5.206   5.454  18.174  0.00  0.00    +0.000 N 
ATOM      5  H   UNL     1       5.252   5.572  17.173  0.00  0.00    +0.000 HD
BRANCH   4   6
ATOM      6  C   UNL     1       3.984   5.819  18.854  0.00  0.00    +0.000 C 
BRANCH   6   7
ATOM      7  C   UNL     1       3.033   4.654  18.825  0.00  0.00    +0.000 A 
ATOM      8  C   UNL     1       2.030   4.384  17.909  0.00  0.00    +0.000 A 
ATOM      9  C   UNL     1       1.299   3.200  18.222  0.00  0.00    +0.000 A 
ATOM     10  C   UNL     1       1.765   2.597  19.368  0.00  0.00    +0.000 A 
ATOM     11  S   UNL     1       3.086   3.446  20.048  0.00  0.00    +0.000 S 
ENDBRANCH   6   7
ENDBRANCH   4   6
ENDBRANCH   1   3
BRANCH   1  12
ATOM     12  O   UNL     1       7.170   4.286  16.612  0.00  0.00    +0.000 OA
BRANCH  12  13
ATOM     13  C   UNL     1       7.144   5.250  15.663  0.00  0.00    +0.000 C 
ATOM     14  O   UNL     1       7.439   6.421  15.847  0.00  0.00    +0.000 OA
BRANCH  13  15
ATOM     15  C   UNL     1       6.794   4.723  14.316  0.00  0.00    +0.000 A 
ATOM     16  C   UNL     1       5.666   3.880  14.245  0.00  0.00    +0.000 A 
ATOM     17  C   UNL     1       5.283   3.295  13.034  0.00  0.00    +0.000 A 
ATOM     18  C   UNL     1       6.019   3.542  11.880  0.00  0.00    +0.000 A 
ATOM     19  C   UNL     1       7.143   4.368  11.941  0.00  0.00    +0.000 A 
ATOM     20  C   UNL     1       7.539   4.955  13.153  0.00  0.00    +0.000 A 
ATOM     21 CL   UNL     1       9.003   5.873  13.122  0.00  0.00    +0.000 Cl
ENDBRANCH  13  15
ENDBRANCH  12  13
ENDBRANCH   1  12
TORSDOF 6
ENDMDL
MODEL 6
REMARK VINA RESULT:      -6.3      4.586      6.914
REMARK  Name = 
REMARK  6 active torsions:
REMARK  status: ('A' for Active; 'I' for Inactive)
REMARK    1  A    between atoms: C_2  and  C_3
REMARK    2  A    between atoms: C_3  and  O_4
REMARK    3  A    between atoms: O_4  and  C_5
REMARK    4  A    between atoms: C_5  and  C_7
REMARK    5  A    between atoms: N_14  and  C_15
REMARK    6  A    between atoms: C_15  and  C_16
REMARK                            x       y       z     vdW  Elec       q    Type
REMARK                         _______ _______ _______ _____ _____    ______ ____
ROOT
ATOM      1  C   UNL     1       5.115   6.020  16.561  0.00  0.00    +0.000 C 
ENDROOT
BRANCH   1   3
ATOM      2  O   UNL     1       5.742   5.669  18.862  0.00  0.00    +0.000 OA
ATOM      3  C   UNL     1       5.166   5.231  17.861  0.00  0.00    +0.000 C 
ATOM      4  N   UNL     1       4.562   3.992  17.875  0.00  0.00    +0.000 N 
ATOM      5  H   UNL     1       4.047   3.739  17.046  0.00  0.00    +0.000 HD
BRANCH   4   6
ATOM      6  C   UNL     1       4.499   3.113  19.020  0.00  0.00    +0.000 C 
BRANCH   6   7
ATOM      7  C   UNL     1       3.137   3.215  19.650  0.00  0.00    +0.000 A 
ATOM      8  C   UNL     1       2.781   3.007  20.972  0.00  0.00    +0.000 A 
ATOM      9  C   UNL     1       1.381   3.157  21.199  0.00  0.00    +0.000 A 
ATOM     10  C   UNL     1       0.706   3.478  20.044  0.00  0.00    +0.000 A 
ATOM     11  S   UNL     1       1.759   3.614  18.702  0.00  0.00    +0.000 S 
ENDBRANCH   6   7
ENDBRANCH   4   6
ENDBRANCH   1   3
BRANCH   1  12
ATOM     12  O   UNL     1       6.418   6.273  16.022  0.00  0.00    +0.000 OA
BRANCH  12  13
ATOM     13  C   UNL     1       7.110   5.158  15.693  0.00  0.00    +0.000 C 
ATOM     14  O   UNL     1       7.862   4.554  16.444  0.00  0.00    +0.000 OA
BRANCH  13  15
ATOM     15  C   UNL     1       6.798   4.670  14.323  0.00  0.00    +0.000 A 
ATOM     16  C   UNL     1       5.706   3.787  14.204  0.00  0.00    +0.000 A 
ATOM     17  C   UNL     1       5.360   3.234  12.967  0.00  0.00    +0.000 A 
ATOM     18  C   UNL     1       6.100   3.554  11.833  0.00  0.00    +0.000 A 
ATOM     19  C   UNL     1       7.189   4.421  11.941  0.00  0.00    +0.000 A 
ATOM     20  C   UNL     1       7.547   4.975  13.180  0.00  0.00    +0.000 A 
ATOM     21 CL   UNL     1       8.973   5.950  13.204  0.00  0.00    +0.000 Cl
ENDBRANCH  13  15
ENDBRANCH  12  13
ENDBRANCH   1  12
TORSDOF 6
ENDMDL
MODEL 7
REMARK VINA RESULT:      -6.3      3.830      6.039
REMARK  Name = 
REMARK  6 active torsions:
REMARK  status: ('A' for Active; 'I' for Inactive)
REMARK    1  A    between atoms: C_2  and  C_3
REMARK    2  A    between atoms: C_3  and  O_4
REMARK    3  A    between atoms: O_4  and  C_5
REMARK    4  A    between atoms: C_5  and  C_7
REMARK    5  A    between atoms: N_14  and  C_15
REMARK    6  A    between atoms: C_15  and  C_16
REMARK                            x       y       z     vdW  Elec       q    Type
REMARK                         _______ _______ _______ _____ _____    ______ ____
ROOT
ATOM      1  C   UNL     1       7.297   5.111  18.536  0.00  0.00    +0.000 C 
ENDROOT
BRANCH   1   3
ATOM      2  O   UNL     1       5.566   3.653  19.366  0.00  0.00    +0.000 OA
ATOM      3  C   UNL     1       5.885   4.789  19.002  0.00  0.00    +0.000 C 
ATOM      4  N   UNL     1       4.961   5.813  18.980  0.00  0.00    +0.000 N 
ATOM      5  H   UNL     1       5.316   6.727  18.746  0.00  0.00    +0.000 HD
BRANCH   4   6
ATOM      6  C   UNL     1       3.583   5.695  19.399  0.00  0.00    +0.000 C 
BRANCH   6   7
ATOM      7  C   UNL     1       2.840   6.947  19.021  0.00  0.00    +0.000 A 
ATOM      8  C   UNL     1       2.875   7.640  17.823  0.00  0.00    +0.000 A 
ATOM      9  C   UNL     1       2.063   8.813  17.839  0.00  0.00    +0.000 A 
ATOM     10  C   UNL     1       1.428   8.982  19.048  0.00  0.00    +0.000 A 
ATOM     11  S   UNL     1       1.797   7.723  20.146  0.00  0.00    +0.000 S 
ENDBRANCH   6   7
ENDBRANCH   4   6
ENDBRANCH   1   3
BRANCH   1  12
ATOM     12  O   UNL     1       7.563   4.625  17.216  0.00  0.00    +0.000 OA
BRANCH  12  13
ATOM     13  C   UNL     1       7.321   5.523  16.232  0.00  0.00    +0.000 C 
ATOM     14  O   UNL     1       7.483   6.730  16.332  0.00  0.00    +0.000 OA
BRANCH  13  15
ATOM     15  C   UNL     1       6.910   4.881  14.955  0.00  0.00    +0.000 A 
ATOM     16  C   UNL     1       7.750   5.099  13.843  0.00  0.00    +0.000 A 
ATOM     17  C   UNL     1       7.427   4.579  12.587  0.00  0.00    +0.000 A 
ATOM     18  C   UNL     1       6.262   3.836  12.421  0.00  0.00    +0.000 A 
ATOM     19  C   UNL     1       5.420   3.621  13.513  0.00  0.00    +0.000 A 
ATOM     20  C   UNL     1       5.733   4.144  14.777  0.00  0.00    +0.000 A 
ATOM     21 CL   UNL     1       4.562   3.898  16.024  0.00  0.00    +0.000 Cl
ENDBRANCH  13  15
ENDBRANCH  12  13
ENDBRANCH   1  12
TORSDOF 6
ENDMDL
MODEL 8
REMARK VINA RESULT:      -6.3      4.982      6.961
REMARK  Name = 
REMARK  6 active torsions:
REMARK  status: ('A' for Active; 'I' for Inactive)
REMARK    1  A    between atoms: C_2  and  C_3
REMARK    2  A    between atoms: C_3  and  O_4
REMARK    3  A    between atoms: O_4  and  C_5
REMARK    4  A    between atoms: C_5  and  C_7
REMARK    5  A    between atoms: N_14  and  C_15
REMARK    6  A    between atoms: C_15  and  C_16
REMARK                            x       y       z     vdW  Elec       q    Type
REMARK                         _______ _______ _______ _____ _____    ______ ____
ROOT
ATOM      1  C   UNL     1       2.424   7.694  18.047  0.00  0.00    +0.000 C 
ENDROOT
BRANCH   1   3
ATOM      2  O   UNL     1       2.464  10.042  17.501  0.00  0.00    +0.000 OA
ATOM      3  C   UNL     1       1.926   9.130  18.136  0.00  0.00    +0.000 C 
ATOM      4  N   UNL     1       0.859   9.380  18.973  0.00  0.00    +0.000 N 
ATOM      5  H   UNL     1       0.425   8.573  19.394  0.00  0.00    +0.000 HD
BRANCH   4   6
ATOM      6  C   UNL     1       0.245  10.674  19.170  0.00  0.00    +0.000 C 
BRANCH   6   7
ATOM      7  C   UNL     1      -1.101  10.693  18.499  0.00  0.00    +0.000 A 
ATOM      8  C   UNL     1      -1.559   9.893  17.466  0.00  0.00    +0.000 A 
ATOM      9  C   UNL     1      -2.886  10.223  17.058  0.00  0.00    +0.000 A 
ATOM     10  C   UNL     1      -3.404  11.265  17.792  0.00  0.00    +0.000 A 
ATOM     11  S   UNL     1      -2.303  11.825  18.976  0.00  0.00    +0.000 S 
ENDBRANCH   6   7
ENDBRANCH   4   6
ENDBRANCH   1   3
BRANCH   1  12
ATOM     12  O   UNL     1       2.552   7.080  19.335  0.00  0.00    +0.000 OA
BRANCH  12  13
ATOM     13  C   UNL     1       3.291   5.945  19.338  0.00  0.00    +0.000 C 
ATOM     14  O   UNL     1       4.496   5.896  19.529  0.00  0.00    +0.000 OA
BRANCH  13  15
ATOM     15  C   UNL     1       2.464   4.720  19.170  0.00  0.00    +0.000 A 
ATOM     16  C   UNL     1       1.522   4.453  20.185  0.00  0.00    +0.000 A 
ATOM     17  C   UNL     1       0.730   3.302  20.144  0.00  0.00    +0.000 A 
ATOM     18  C   UNL     1       0.867   2.402  19.093  0.00  0.00    +0.000 A 
ATOM     19  C   UNL     1       1.802   2.652  18.087  0.00  0.00    +0.000 A 
ATOM     20  C   UNL     1       2.606   3.802  18.122  0.00  0.00    +0.000 A 
ATOM     21 CL   UNL     1       3.796   3.948  16.878  0.00  0.00    +0.000 Cl
ENDBRANCH  13  15
ENDBRANCH  12  13
ENDBRANCH   1  12
TORSDOF 6
ENDMDL
MODEL 9
REMARK VINA RESULT:      -6.3      3.287      4.188
REMARK  Name = 
REMARK  6 active torsions:
REMARK  status: ('A' for Active; 'I' for Inactive)
REMARK    1  A    between atoms: C_2  and  C_3
REMARK    2  A    between atoms: C_3  and  O_4
REMARK    3  A    between atoms: O_4  and  C_5
REMARK    4  A    between atoms: C_5  and  C_7
REMARK    5  A    between atoms: N_14  and  C_15
REMARK    6  A    between atoms: C_15  and  C_16
REMARK                            x       y       z     vdW  Elec       q    Type
REMARK                         _______ _______ _______ _____ _____    ______ ____
ROOT
ATOM      1  C   UNL     1       5.553   4.412  19.004  0.00  0.00    +0.000 C 
ENDROOT
BRANCH   1   3
ATOM      2  O   UNL     1       7.867   4.462  18.330  0.00  0.00    +0.000 OA
ATOM      3  C   UNL     1       6.694   4.721  18.045  0.00  0.00    +0.000 C 
ATOM      4  N   UNL     1       6.371   5.325  16.849  0.00  0.00    +0.000 N 
ATOM      5  H   UNL     1       5.387   5.433  16.656  0.00  0.00    +0.000 HD
BRANCH   4   6
ATOM      6  C   UNL     1       7.317   5.676  15.815  0.00  0.00    +0.000 C 
BRANCH   6   7
ATOM      7  C   UNL     1       6.971   4.936  14.552  0.00  0.00    +0.000 A 
ATOM      8  C   UNL     1       7.596   4.999  13.318  0.00  0.00    +0.000 A 
ATOM      9  C   UNL     1       6.966   4.179  12.336  0.00  0.00    +0.000 A 
ATOM     10  C   UNL     1       5.878   3.510  12.848  0.00  0.00    +0.000 A 
ATOM     11  S   UNL     1       5.633   3.857  14.505  0.00  0.00    +0.000 S 
ENDBRANCH   6   7
ENDBRANCH   4   6
ENDBRANCH   1   3
BRANCH   1  12
ATOM     12  O   UNL     1       4.888   5.595  19.462  0.00  0.00    +0.000 OA
BRANCH  12  13
ATOM     13  C   UNL     1       3.630   5.747  18.986  0.00  0.00    +0.000 C 
ATOM     14  O   UNL     1       3.277   6.621  18.209  0.00  0.00    +0.000 OA
BRANCH  13  15
ATOM     15  C   UNL     1       2.709   4.670  19.440  0.00  0.00    +0.000 A 
ATOM     16  C   UNL     1       2.420   4.631  20.819  0.00  0.00    +0.000 A 
ATOM     17  C   UNL     1       1.604   3.630  21.353  0.00  0.00    +0.000 A 
ATOM     18  C   UNL     1       1.066   2.654  20.520  0.00  0.00    +0.000 A 
ATOM     19  C   UNL     1       1.352   2.679  19.154  0.00  0.00    +0.000 A 
ATOM     20  C   UNL     1       2.176   3.677  18.609  0.00  0.00    +0.000 A 
ATOM     21 CL   UNL     1       2.540   3.541  16.926  0.00  0.00    +0.000 Cl
ENDBRANCH  13  15
ENDBRANCH  12  13
ENDBRANCH   1  12
TORSDOF 6
ENDMDL
