MODEL 1
REMARK VINA RESULT:      -8.4      0.000      0.000
REMARK  Name = 
REMARK  8 active torsions:
REMARK  status: ('A' for Active; 'I' for Inactive)
REMARK    1  A    between atoms: C_1  and  N_2
REMARK    2  A    between atoms: N_2  and  C_3
REMARK    3  A    between atoms: N_2  and  C_9
REMARK    4  A    between atoms: C_3  and  C_4
REMARK    5  A    between atoms: C_9  and  C_10
REMARK    6  A    between atoms: N_12  and  C_13
REMARK    7  A    between atoms: C_13  and  C_14
REMARK    8  A    between atoms: C_21  and  C_22
REMARK                            x       y       z     vdW  Elec       q    Type
REMARK                         _______ _______ _______ _____ _____    ______ ____
ROOT
ATOM      1  C   UNL     1       4.840   4.552  18.464  0.00  0.00    +0.000 A 
ATOM      2  C   UNL     1       6.051   4.445  17.797  0.00  0.00    +0.000 A 
ATOM      3  N   UNL     1       6.028   5.374  16.804  0.00  0.00    +0.000 N 
ATOM      4  N   UNL     1       4.920   6.121  16.804  0.00  0.00    +0.000 NA
ATOM      5  C   UNL     1       4.199   5.672  17.836  0.00  0.00    +0.000 A 
ENDROOT
BRANCH   5   6
ATOM      6  C   UNL     1       3.075   6.476  18.311  0.00  0.00    +0.000 A 
ATOM      7  C   UNL     1       2.597   6.420  19.635  0.00  0.00    +0.000 A 
ATOM      8  C   UNL     1       1.866   7.485  20.171  0.00  0.00    +0.000 A 
ATOM      9  C   UNL     1       1.655   8.570  19.351  0.00  0.00    +0.000 A 
ATOM     10  C   UNL     1       1.992   8.555  18.016  0.00  0.00    +0.000 A 
ATOM     11  C   UNL     1       2.655   7.504  17.452  0.00  0.00    +0.000 A 
ATOM     12  O   UNL     1       1.787   9.759  17.414  0.00  0.00    +0.000 OA
ATOM     13  C   UNL     1       1.718  10.569  18.600  0.00  0.00    +0.000 C 
ATOM     14  O   UNL     1       1.250   9.814  19.741  0.00  0.00    +0.000 OA
ENDBRANCH   5   6
BRANCH   1  15
ATOM     15  C   UNL     1       4.401   3.723  19.634  0.00  0.00    +0.000 C 
BRANCH  15  17
ATOM     16  C   UNL     1       4.962   1.647  20.773  0.00  0.00    +0.000 C 
ATOM     17  N   UNL     1       4.809   2.311  19.472  0.00  0.00    +0.000 NA
BRANCH  17  18
ATOM     18  C   UNL     1       3.819   1.611  18.623  0.00  0.00    +0.000 C 
BRANCH  18  19
ATOM     19  C   UNL     1       2.464   2.254  18.681  0.00  0.00    +0.000 A 
ATOM     20  C   UNL     1       1.568   2.337  19.779  0.00  0.00    +0.000 A 
ATOM     21  C   UNL     1       0.491   3.032  19.275  0.00  0.00    +0.000 A 
ATOM     22  O   UNL     1       0.715   3.334  17.973  0.00  0.00    +0.000 OA
ATOM     23  N   UNL     1       1.951   2.844  17.590  0.00  0.00    +0.000 NA
ENDBRANCH  18  19
ENDBRANCH  17  18
ENDBRANCH  15  17
ENDBRANCH   1  15
BRANCH   3  24
ATOM     24  C   UNL     1       7.076   5.683  15.846  0.00  0.00    +0.000 C 
BRANCH  24  25
ATOM     25  C   UNL     1       6.859   4.961  14.536  0.00  0.00    +0.000 A 
ATOM     26  C   UNL     1       5.782   4.083  14.377  0.00  0.00    +0.000 A 
ATOM     27  C   UNL     1       5.567   3.432  13.157  0.00  0.00    +0.000 A 
ATOM     28  C   UNL     1       6.418   3.671  12.085  0.00  0.00    +0.000 A 
ATOM     29  C   UNL     1       7.487   4.556  12.228  0.00  0.00    +0.000 A 
ATOM     30  C   UNL     1       7.705   5.200  13.452  0.00  0.00    +0.000 A 
ENDBRANCH  24  25
ENDBRANCH   3  24
TORSDOF 7
ENDMDL
MODEL 2
REMARK VINA RESULT:      -8.1      2.695      6.697
REMARK  Name = 
REMARK  8 active torsions:
REMARK  status: ('A' for Active; 'I' for Inactive)
REMARK    1  A    between atoms: C_1  and  N_2
REMARK    2  A    between atoms: N_2  and  C_3
REMARK    3  A    between atoms: N_2  and  C_9
REMARK    4  A    between atoms: C_3  and  C_4
REMARK    5  A    between atoms: C_9  and  C_10
REMARK    6  A    between atoms: N_12  and  C_13
REMARK    7  A    between atoms: C_13  and  C_14
REMARK    8  A    between atoms: C_21  and  C_22
REMARK                            x       y       z     vdW  Elec       q    Type
REMARK                         _______ _______ _______ _____ _____    ______ ____
ROOT
ATOM      1  C   UNL     1       3.087   6.752  18.841  0.00  0.00    +0.000 A 
ATOM      2  C   UNL     1       1.879   7.418  18.974  0.00  0.00    +0.000 A 
ATOM      3  N   UNL     1       1.955   8.518  18.178  0.00  0.00    +0.000 N 
ATOM      4  N   UNL     1       3.095   8.594  17.487  0.00  0.00    +0.000 NA
ATOM      5  C   UNL     1       3.785   7.503  17.836  0.00  0.00    +0.000 A 
ENDROOT
BRANCH   5   6
ATOM      6  C   UNL     1       4.941   7.115  17.031  0.00  0.00    +0.000 A 
ATOM      7  C   UNL     1       6.263   7.154  17.518  0.00  0.00    +0.000 A 
ATOM      8  C   UNL     1       7.260   6.372  16.925  0.00  0.00    +0.000 A 
ATOM      9  C   UNL     1       6.880   5.573  15.871  0.00  0.00    +0.000 A 
ATOM     10  C   UNL     1       5.627   5.654  15.306  0.00  0.00    +0.000 A 
ATOM     11  C   UNL     1       4.651   6.453  15.828  0.00  0.00    +0.000 A 
ATOM     12  O   UNL     1       5.428   4.713  14.342  0.00  0.00    +0.000 OA
ATOM     13  C   UNL     1       6.500   3.825  14.704  0.00  0.00    +0.000 C 
ATOM     14  O   UNL     1       7.586   4.527  15.351  0.00  0.00    +0.000 OA
ENDBRANCH   5   6
BRANCH   1  15
ATOM     15  C   UNL     1       3.477   5.482  19.537  0.00  0.00    +0.000 C 
BRANCH  15  17
ATOM     16  C   UNL     1       5.218   3.941  18.816  0.00  0.00    +0.000 C 
ATOM     17  N   UNL     1       3.856   4.435  18.565  0.00  0.00    +0.000 NA
BRANCH  17  18
ATOM     18  C   UNL     1       2.866   3.335  18.620  0.00  0.00    +0.000 C 
BRANCH  18  19
ATOM     19  C   UNL     1       2.422   3.039  20.023  0.00  0.00    +0.000 A 
ATOM     20  C   UNL     1       1.151   3.261  20.616  0.00  0.00    +0.000 A 
ATOM     21  C   UNL     1       1.304   2.803  21.906  0.00  0.00    +0.000 A 
ATOM     22  O   UNL     1       2.569   2.352  22.080  0.00  0.00    +0.000 OA
ATOM     23  N   UNL     1       3.281   2.501  20.903  0.00  0.00    +0.000 NA
ENDBRANCH  18  19
ENDBRANCH  17  18
ENDBRANCH  15  17
ENDBRANCH   1  15
BRANCH   3  24
ATOM     24  C   UNL     1       0.930   9.522  17.943  0.00  0.00    +0.000 C 
BRANCH  24  25
ATOM     25  C   UNL     1       1.134  10.736  18.820  0.00  0.00    +0.000 A 
ATOM     26  C   UNL     1       0.592  10.782  20.109  0.00  0.00    +0.000 A 
ATOM     27  C   UNL     1       0.800  11.895  20.931  0.00  0.00    +0.000 A 
ATOM     28  C   UNL     1       1.566  12.960  20.474  0.00  0.00    +0.000 A 
ATOM     29  C   UNL     1       2.124  12.918  19.196  0.00  0.00    +0.000 A 
ATOM     30  C   UNL     1       1.908  11.807  18.372  0.00  0.00    +0.000 A 
ENDBRANCH  24  25
ENDBRANCH   3  24
TORSDOF 7
ENDMDL
MODEL 3
REMARK VINA RESULT:      -7.9      3.101      7.127
REMARK  Name = 
REMARK  8 active torsions:
REMARK  status: ('A' for Active; 'I' for Inactive)
REMARK    1  A    between atoms: C_1  and  N_2
REMARK    2  A    between atoms: N_2  and  C_3
REMARK    3  A    between atoms: N_2  and  C_9
REMARK    4  A    between atoms: C_3  and  C_4
REMARK    5  A    between atoms: C_9  and  C_10
REMARK    6  A    between atoms: N_12  and  C_13
REMARK    7  A    between atoms: C_13  and  C_14
REMARK    8  A    between atoms: C_21  and  C_22
REMARK                            x       y       z     vdW  Elec       q    Type
REMARK                         _______ _______ _______ _____ _____    ______ ____
ROOT
ATOM      1  C   UNL     1       3.610   6.399  17.411  0.00  0.00    +0.000 A 
ATOM      2  C   UNL     1       3.812   7.767  17.304  0.00  0.00    +0.000 A 
ATOM      3  N   UNL     1       2.677   8.361  17.761  0.00  0.00    +0.000 N 
ATOM      4  N   UNL     1       1.769   7.492  18.214  0.00  0.00    +0.000 NA
ATOM      5  C   UNL     1       2.333   6.289  18.056  0.00  0.00    +0.000 A 
ENDROOT
BRANCH   5   6
ATOM      6  C   UNL     1       1.739   5.141  18.738  0.00  0.00    +0.000 A 
ATOM      7  C   UNL     1       1.294   3.991  18.056  0.00  0.00    +0.000 A 
ATOM      8  C   UNL     1       1.171   2.771  18.729  0.00  0.00    +0.000 A 
ATOM      9  C   UNL     1       1.512   2.758  20.062  0.00  0.00    +0.000 A 
ATOM     10  C   UNL     1       1.799   3.913  20.755  0.00  0.00    +0.000 A 
ATOM     11  C   UNL     1       1.869   5.126  20.135  0.00  0.00    +0.000 A 
ATOM     12  O   UNL     1       2.203   3.667  22.032  0.00  0.00    +0.000 OA
ATOM     13  C   UNL     1       2.535   2.277  21.874  0.00  0.00    +0.000 C 
ATOM     14  O   UNL     1       1.760   1.654  20.825  0.00  0.00    +0.000 OA
ENDBRANCH   5   6
BRANCH   1  15
ATOM     15  C   UNL     1       4.586   5.330  17.019  0.00  0.00    +0.000 C 
BRANCH  15  17
ATOM     16  C   UNL     1       5.024   3.594  18.667  0.00  0.00    +0.000 C 
ATOM     17  N   UNL     1       5.418   4.919  18.169  0.00  0.00    +0.000 NA
BRANCH  17  18
ATOM     18  C   UNL     1       6.845   4.944  17.773  0.00  0.00    +0.000 C 
BRANCH  18  19
ATOM     19  C   UNL     1       7.419   6.330  17.801  0.00  0.00    +0.000 A 
ATOM     20  C   UNL     1       8.116   6.980  18.853  0.00  0.00    +0.000 A 
ATOM     21  C   UNL     1       8.413   8.221  18.335  0.00  0.00    +0.000 A 
ATOM     22  O   UNL     1       7.925   8.315  17.075  0.00  0.00    +0.000 OA
ATOM     23  N   UNL     1       7.294   7.132  16.733  0.00  0.00    +0.000 NA
ENDBRANCH  18  19
ENDBRANCH  17  18
ENDBRANCH  15  17
ENDBRANCH   1  15
BRANCH   3  24
ATOM     24  C   UNL     1       2.402   9.783  17.886  0.00  0.00    +0.000 C 
BRANCH  24  25
ATOM     25  C   UNL     1       1.070  10.031  18.557  0.00  0.00    +0.000 A 
ATOM     26  C   UNL     1       1.002  10.301  19.928  0.00  0.00    +0.000 A 
ATOM     27  C   UNL     1      -0.227  10.555  20.545  0.00  0.00    +0.000 A 
ATOM     28  C   UNL     1      -1.394  10.557  19.790  0.00  0.00    +0.000 A 
ATOM     29  C   UNL     1      -1.336  10.305  18.419  0.00  0.00    +0.000 A 
ATOM     30  C   UNL     1      -0.105  10.043  17.805  0.00  0.00    +0.000 A 
ENDBRANCH  24  25
ENDBRANCH   3  24
TORSDOF 7
ENDMDL
MODEL 4
REMARK VINA RESULT:      -7.9      2.625      7.244
REMARK  Name = 
REMARK  8 active torsions:
REMARK  status: ('A' for Active; 'I' for Inactive)
REMARK    1  A    between atoms: C_1  and  N_2
REMARK    2  A    between atoms: N_2  and  C_3
REMARK    3  A    between atoms: N_2  and  C_9
REMARK    4  A    between atoms: C_3  and  C_4
REMARK    5  A    between atoms: C_9  and  C_10
REMARK    6  A    between atoms: N_12  and  C_13
REMARK    7  A    between atoms: C_13  and  C_14
REMARK    8  A    between atoms: C_21  and  C_22
REMARK                            x       y       z     vdW  Elec       q    Type
REMARK                         _______ _______ _______ _____ _____    ______ ____
ROOT
ATOM      1  C   UNL     1       4.036   6.581  17.931  0.00  0.00    +0.000 A 
ATOM      2  C   UNL     1       3.962   7.964  17.870  0.00  0.00    +0.000 A 
ATOM      3  N   UNL     1       2.645   8.275  17.731  0.00  0.00    +0.000 N 
ATOM      4  N   UNL     1       1.844   7.206  17.756  0.00  0.00    +0.000 NA
ATOM      5  C   UNL     1       2.663   6.163  17.926  0.00  0.00    +0.000 A 
ENDROOT
BRANCH   5   6
ATOM      6  C   UNL     1       2.089   4.875  18.309  0.00  0.00    +0.000 A 
ATOM      7  C   UNL     1       2.289   3.695  17.565  0.00  0.00    +0.000 A 
ATOM      8  C   UNL     1       2.136   2.442  18.168  0.00  0.00    +0.000 A 
ATOM      9  C   UNL     1       1.797   2.431  19.502  0.00  0.00    +0.000 A 
ATOM     10  C   UNL     1       1.456   3.579  20.180  0.00  0.00    +0.000 A 
ATOM     11  C   UNL     1       1.541   4.811  19.599  0.00  0.00    +0.000 A 
ATOM     12  O   UNL     1       1.250   3.358  21.508  0.00  0.00    +0.000 OA
ATOM     13  C   UNL     1       1.916   2.088  21.607  0.00  0.00    +0.000 C 
ATOM     14  O   UNL     1       1.893   1.368  20.353  0.00  0.00    +0.000 OA
ENDBRANCH   5   6
BRANCH   1  15
ATOM     15  C   UNL     1       5.289   5.770  18.075  0.00  0.00    +0.000 C 
BRANCH  15  17
ATOM     16  C   UNL     1       7.235   7.109  17.489  0.00  0.00    +0.000 C 
ATOM     17  N   UNL     1       6.268   6.107  17.020  0.00  0.00    +0.000 NA
BRANCH  17  18
ATOM     18  C   UNL     1       6.947   4.871  16.570  0.00  0.00    +0.000 C 
BRANCH  18  19
ATOM     19  C   UNL     1       6.964   4.742  15.075  0.00  0.00    +0.000 A 
ATOM     20  C   UNL     1       6.208   3.868  14.252  0.00  0.00    +0.000 A 
ATOM     21  C   UNL     1       6.617   4.180  12.974  0.00  0.00    +0.000 A 
ATOM     22  O   UNL     1       7.554   5.158  13.025  0.00  0.00    +0.000 OA
ATOM     23  N   UNL     1       7.782   5.513  14.342  0.00  0.00    +0.000 NA
ENDBRANCH  18  19
ENDBRANCH  17  18
ENDBRANCH  15  17
ENDBRANCH   1  15
BRANCH   3  24
ATOM     24  C   UNL     1       2.042   9.595  17.656  0.00  0.00    +0.000 C 
BRANCH  24  25
ATOM     25  C   UNL     1       1.148   9.864  18.845  0.00  0.00    +0.000 A 
ATOM     26  C   UNL     1       0.136  10.827  18.772  0.00  0.00    +0.000 A 
ATOM     27  C   UNL     1      -0.707  11.059  19.863  0.00  0.00    +0.000 A 
ATOM     28  C   UNL     1      -0.553  10.317  21.028  0.00  0.00    +0.000 A 
ATOM     29  C   UNL     1       0.443   9.344  21.106  0.00  0.00    +0.000 A 
ATOM     30  C   UNL     1       1.291   9.118  20.015  0.00  0.00    +0.000 A 
ENDBRANCH  24  25
ENDBRANCH   3  24
TORSDOF 7
ENDMDL
MODEL 5
REMARK VINA RESULT:      -7.9      6.516     10.765
REMARK  Name = 
REMARK  8 active torsions:
REMARK  status: ('A' for Active; 'I' for Inactive)
REMARK    1  A    between atoms: C_1  and  N_2
REMARK    2  A    between atoms: N_2  and  C_3
REMARK    3  A    between atoms: N_2  and  C_9
REMARK    4  A    between atoms: C_3  and  C_4
REMARK    5  A    between atoms: C_9  and  C_10
REMARK    6  A    between atoms: N_12  and  C_13
REMARK    7  A    between atoms: C_13  and  C_14
REMARK    8  A    between atoms: C_21  and  C_22
REMARK                            x       y       z     vdW  Elec       q    Type
REMARK                         _______ _______ _______ _____ _____    ______ ____
ROOT
ATOM      1  C   UNL     1      -1.380  11.666  19.664  0.00  0.00    +0.000 A 
ATOM      2  C   UNL     1      -2.580  11.800  18.983  0.00  0.00    +0.000 A 
ATOM      3  N   UNL     1      -2.498  10.990  17.894  0.00  0.00    +0.000 N 
ATOM      4  N   UNL     1      -1.362  10.289  17.839  0.00  0.00    +0.000 NA
ATOM      5  C   UNL     1      -0.681  10.647  18.933  0.00  0.00    +0.000 A 
ENDROOT
BRANCH   5   6
ATOM      6  C   UNL     1       0.464   9.839  19.344  0.00  0.00    +0.000 A 
ATOM      7  C   UNL     1       0.546   9.211  20.604  0.00  0.00    +0.000 A 
ATOM      8  C   UNL     1       1.389   8.110  20.793  0.00  0.00    +0.000 A 
ATOM      9  C   UNL     1       2.107   7.681  19.701  0.00  0.00    +0.000 A 
ATOM     10  C   UNL     1       2.137   8.388  18.520  0.00  0.00    +0.000 A 
ATOM     11  C   UNL     1       1.368   9.500  18.327  0.00  0.00    +0.000 A 
ATOM     12  O   UNL     1       2.827   7.740  17.541  0.00  0.00    +0.000 OA
ATOM     13  C   UNL     1       2.817   6.426  18.125  0.00  0.00    +0.000 C 
ATOM     14  O   UNL     1       2.737   6.477  19.568  0.00  0.00    +0.000 OA
ENDBRANCH   5   6
BRANCH   1  15
ATOM     15  C   UNL     1      -1.000  12.376  20.929  0.00  0.00    +0.000 C 
BRANCH  15  17
ATOM     16  C   UNL     1      -1.110  11.243  23.081  0.00  0.00    +0.000 C 
ATOM     17  N   UNL     1      -1.870  11.968  22.053  0.00  0.00    +0.000 NA
BRANCH  17  18
ATOM     18  C   UNL     1      -2.533  13.166  22.617  0.00  0.00    +0.000 C 
BRANCH  18  19
ATOM     19  C   UNL     1      -3.952  12.892  23.023  0.00  0.00    +0.000 A 
ATOM     20  C   UNL     1      -4.543  13.002  24.309  0.00  0.00    +0.000 A 
ATOM     21  C   UNL     1      -5.855  12.638  24.102  0.00  0.00    +0.000 A 
ATOM     22  O   UNL     1      -6.038  12.325  22.797  0.00  0.00    +0.000 OA
ATOM     23  N   UNL     1      -4.845  12.477  22.112  0.00  0.00    +0.000 NA
ENDBRANCH  18  19
ENDBRANCH  17  18
ENDBRANCH  15  17
ENDBRANCH   1  15
BRANCH   3  24
ATOM     24  C   UNL     1      -3.513  10.749  16.881  0.00  0.00    +0.000 C 
BRANCH  24  25
ATOM     25  C   UNL     1      -4.874  11.217  17.340  0.00  0.00    +0.000 A 
ATOM     26  C   UNL     1      -5.576  10.512  18.324  0.00  0.00    +0.000 A 
ATOM     27  C   UNL     1      -6.825  10.957  18.766  0.00  0.00    +0.000 A 
ATOM     28  C   UNL     1      -7.373  12.121  18.240  0.00  0.00    +0.000 A 
ATOM     29  C   UNL     1      -6.675  12.840  17.269  0.00  0.00    +0.000 A 
ATOM     30  C   UNL     1      -5.428  12.388  16.821  0.00  0.00    +0.000 A 
ENDBRANCH  24  25
ENDBRANCH   3  24
TORSDOF 7
ENDMDL
MODEL 6
REMARK VINA RESULT:      -7.9      2.298      6.068
REMARK  Name = 
REMARK  8 active torsions:
REMARK  status: ('A' for Active; 'I' for Inactive)
REMARK    1  A    between atoms: C_1  and  N_2
REMARK    2  A    between atoms: N_2  and  C_3
REMARK    3  A    between atoms: N_2  and  C_9
REMARK    4  A    between atoms: C_3  and  C_4
REMARK    5  A    between atoms: C_9  and  C_10
REMARK    6  A    between atoms: N_12  and  C_13
REMARK    7  A    between atoms: C_13  and  C_14
REMARK    8  A    between atoms: C_21  and  C_22
REMARK                            x       y       z     vdW  Elec       q    Type
REMARK                         _______ _______ _______ _____ _____    ______ ____
ROOT
ATOM      1  C   UNL     1       4.434   5.741  16.826  0.00  0.00    +0.000 A 
ATOM      2  C   UNL     1       4.316   4.364  16.715  0.00  0.00    +0.000 A 
ATOM      3  N   UNL     1       3.578   3.953  17.781  0.00  0.00    +0.000 N 
ATOM      4  N   UNL     1       3.152   4.959  18.551  0.00  0.00    +0.000 NA
ATOM      5  C   UNL     1       3.621   6.065  17.964  0.00  0.00    +0.000 A 
ENDROOT
BRANCH   5   6
ATOM      6  C   UNL     1       3.077   7.359  18.370  0.00  0.00    +0.000 A 
ATOM      7  C   UNL     1       2.747   8.375  17.450  0.00  0.00    +0.000 A 
ATOM      8  C   UNL     1       1.834   9.376  17.797  0.00  0.00    +0.000 A 
ATOM      9  C   UNL     1       1.282   9.306  19.055  0.00  0.00    +0.000 A 
ATOM     10  C   UNL     1       1.721   8.404  19.998  0.00  0.00    +0.000 A 
ATOM     11  C   UNL     1       2.654   7.452  19.704  0.00  0.00    +0.000 A 
ATOM     12  O   UNL     1       0.978   8.439  21.139  0.00  0.00    +0.000 OA
ATOM     13  C   UNL     1      -0.172   9.120  20.609  0.00  0.00    +0.000 C 
ATOM     14  O   UNL     1       0.173   9.971  19.492  0.00  0.00    +0.000 OA
ENDBRANCH   5   6
BRANCH   1  15
ATOM     15  C   UNL     1       5.172   6.642  15.882  0.00  0.00    +0.000 C 
BRANCH  15  17
ATOM     16  C   UNL     1       7.002   6.990  17.447  0.00  0.00    +0.000 C 
ATOM     17  N   UNL     1       6.632   6.556  16.093  0.00  0.00    +0.000 NA
BRANCH  17  18
ATOM     18  C   UNL     1       7.084   5.171  15.828  0.00  0.00    +0.000 C 
BRANCH  18  19
ATOM     19  C   UNL     1       7.086   4.843  14.364  0.00  0.00    +0.000 A 
ATOM     20  C   UNL     1       6.319   3.870  13.672  0.00  0.00    +0.000 A 
ATOM     21  C   UNL     1       6.716   4.006  12.361  0.00  0.00    +0.000 A 
ATOM     22  O   UNL     1       7.657   4.977  12.271  0.00  0.00    +0.000 OA
ATOM     23  N   UNL     1       7.899   5.506  13.526  0.00  0.00    +0.000 NA
ENDBRANCH  18  19
ENDBRANCH  17  18
ENDBRANCH  15  17
ENDBRANCH   1  15
BRANCH   3  24
ATOM     24  C   UNL     1       3.147   2.602  18.102  0.00  0.00    +0.000 C 
BRANCH  24  25
ATOM     25  C   UNL     1       2.463   2.544  19.448  0.00  0.00    +0.000 A 
ATOM     26  C   UNL     1       3.215   2.506  20.627  0.00  0.00    +0.000 A 
ATOM     27  C   UNL     1       2.583   2.476  21.875  0.00  0.00    +0.000 A 
ATOM     28  C   UNL     1       1.195   2.502  21.950  0.00  0.00    +0.000 A 
ATOM     29  C   UNL     1       0.437   2.556  20.780  0.00  0.00    +0.000 A 
ATOM     30  C   UNL     1       1.071   2.577  19.532  0.00  0.00    +0.000 A 
ENDBRANCH  24  25
ENDBRANCH   3  24
TORSDOF 7
ENDMDL
MODEL 7
REMARK VINA RESULT:      -7.9      2.583      6.974
REMARK  Name = 
REMARK  8 active torsions:
REMARK  status: ('A' for Active; 'I' for Inactive)
REMARK    1  A    between atoms: C_1  and  N_2
REMARK    2  A    between atoms: N_2  and  C_3
REMARK    3  A    between atoms: N_2  and  C_9
REMARK    4  A    between atoms: C_3  and  C_4
REMARK    5  A    between atoms: C_9  and  C_10
REMARK    6  A    between atoms: N_12  and  C_13
REMARK    7  A    between atoms: C_13  and  C_14
REMARK    8  A    between atoms: C_21  and  C_22
REMARK                            x       y       z     vdW  Elec       q    Type
REMARK                         _______ _______ _______ _____ _____    ______ ____
ROOT
ATOM      1  C   UNL     1       3.613   6.650  17.541  0.00  0.00    +0.000 A 
ATOM      2  C   UNL     1       3.815   8.021  17.523  0.00  0.00    +0.000 A 
ATOM      3  N   UNL     1       2.683   8.584  18.025  0.00  0.00    +0.000 N 
ATOM      4  N   UNL     1       1.778   7.687  18.426  0.00  0.00    +0.000 NA
ATOM      5  C   UNL     1       2.340   6.498  18.187  0.00  0.00    +0.000 A 
ENDROOT
BRANCH   5   6
ATOM      6  C   UNL     1       1.751   5.307  18.795  0.00  0.00    +0.000 A 
ATOM      7  C   UNL     1       1.353   4.181  18.047  0.00  0.00    +0.000 A 
ATOM      8  C   UNL     1       1.235   2.929  18.659  0.00  0.00    +0.000 A 
ATOM      9  C   UNL     1       1.533   2.862  20.001  0.00  0.00    +0.000 A 
ATOM     10  C   UNL     1       1.773   3.988  20.755  0.00  0.00    +0.000 A 
ATOM     11  C   UNL     1       1.837   5.231  20.193  0.00  0.00    +0.000 A 
ATOM     12  O   UNL     1       2.143   3.692  22.032  0.00  0.00    +0.000 OA
ATOM     13  C   UNL     1       2.510   2.318  21.822  0.00  0.00    +0.000 C 
ATOM     14  O   UNL     1       1.782   1.728  20.720  0.00  0.00    +0.000 OA
ENDBRANCH   5   6
BRANCH   1  15
ATOM     15  C   UNL     1       4.586   5.608  17.073  0.00  0.00    +0.000 C 
BRANCH  15  17
ATOM     16  C   UNL     1       4.987   3.867  18.726  0.00  0.00    +0.000 C 
ATOM     17  N   UNL     1       5.451   5.150  18.181  0.00  0.00    +0.000 NA
BRANCH  17  18
ATOM     18  C   UNL     1       6.850   5.058  17.702  0.00  0.00    +0.000 C 
BRANCH  18  19
ATOM     19  C   UNL     1       6.931   4.905  16.211  0.00  0.00    +0.000 A 
ATOM     20  C   UNL     1       6.380   3.885  15.393  0.00  0.00    +0.000 A 
ATOM     21  C   UNL     1       6.756   4.244  14.118  0.00  0.00    +0.000 A 
ATOM     22  O   UNL     1       7.485   5.385  14.164  0.00  0.00    +0.000 OA
ATOM     23  N   UNL     1       7.605   5.805  15.478  0.00  0.00    +0.000 NA
ENDBRANCH  18  19
ENDBRANCH  17  18
ENDBRANCH  15  17
ENDBRANCH   1  15
BRANCH   3  24
ATOM     24  C   UNL     1       2.410   9.995  18.245  0.00  0.00    +0.000 C 
BRANCH  24  25
ATOM     25  C   UNL     1       0.939  10.241  18.492  0.00  0.00    +0.000 A 
ATOM     26  C   UNL     1      -0.019   9.823  17.563  0.00  0.00    +0.000 A 
ATOM     27  C   UNL     1      -1.382  10.029  17.802  0.00  0.00    +0.000 A 
ATOM     28  C   UNL     1      -1.794  10.639  18.980  0.00  0.00    +0.000 A 
ATOM     29  C   UNL     1      -0.848  11.046  19.921  0.00  0.00    +0.000 A 
ATOM     30  C   UNL     1       0.516  10.846  19.676  0.00  0.00    +0.000 A 
ENDBRANCH  24  25
ENDBRANCH   3  24
TORSDOF 7
ENDMDL
MODEL 8
REMARK VINA RESULT:      -7.8      2.402      3.601
REMARK  Name = 
REMARK  8 active torsions:
REMARK  status: ('A' for Active; 'I' for Inactive)
REMARK    1  A    between atoms: C_1  and  N_2
REMARK    2  A    between atoms: N_2  and  C_3
REMARK    3  A    between atoms: N_2  and  C_9
REMARK    4  A    between atoms: C_3  and  C_4
REMARK    5  A    between atoms: C_9  and  C_10
REMARK    6  A    between atoms: N_12  and  C_13
REMARK    7  A    between atoms: C_13  and  C_14
REMARK    8  A    between atoms: C_21  and  C_22
REMARK                            x       y       z     vdW  Elec       q    Type
REMARK                         _______ _______ _______ _____ _____    ______ ____
ROOT
ATOM      1  C   UNL     1       2.226   6.501  19.885  0.00  0.00    +0.000 A 
ATOM      2  C   UNL     1       3.271   6.239  19.013  0.00  0.00    +0.000 A 
ATOM      3  N   UNL     1       3.317   7.282  18.141  0.00  0.00    +0.000 N 
ATOM      4  N   UNL     1       2.423   8.237  18.411  0.00  0.00    +0.000 NA
ATOM      5  C   UNL     1       1.775   7.808  19.499  0.00  0.00    +0.000 A 
ENDROOT
BRANCH   5   6
ATOM      6  C   UNL     1       0.946   8.754  20.241  0.00  0.00    +0.000 A 
ATOM      7  C   UNL     1       0.785   8.699  21.641  0.00  0.00    +0.000 A 
ATOM      8  C   UNL     1       0.390   9.835  22.354  0.00  0.00    +0.000 A 
ATOM      9  C   UNL     1       0.183  10.985  21.628  0.00  0.00    +0.000 A 
ATOM     10  C   UNL     1       0.195  10.994  20.251  0.00  0.00    +0.000 A 
ATOM     11  C   UNL     1       0.520   9.884  19.527  0.00  0.00    +0.000 A 
ATOM     12  O   UNL     1       0.066  12.248  19.737  0.00  0.00    +0.000 OA
ATOM     13  C   UNL     1       0.412  12.988  20.921  0.00  0.00    +0.000 C 
ATOM     14  O   UNL     1       0.098  12.254  22.126  0.00  0.00    +0.000 OA
ENDBRANCH   5   6
BRANCH   1  15
ATOM     15  C   UNL     1       1.783   5.626  21.019  0.00  0.00    +0.000 C 
BRANCH  15  17
ATOM     16  C   UNL     1       2.172   3.438  22.013  0.00  0.00    +0.000 C 
ATOM     17  N   UNL     1       2.117   4.209  20.763  0.00  0.00    +0.000 NA
BRANCH  17  18
ATOM     18  C   UNL     1       1.128   3.637  19.820  0.00  0.00    +0.000 C 
BRANCH  18  19
ATOM     19  C   UNL     1       1.767   3.152  18.551  0.00  0.00    +0.000 A 
ATOM     20  C   UNL     1       2.674   2.076  18.371  0.00  0.00    +0.000 A 
ATOM     21  C   UNL     1       2.925   2.079  17.017  0.00  0.00    +0.000 A 
ATOM     22  O   UNL     1       2.232   3.084  16.429  0.00  0.00    +0.000 OA
ATOM     23  N   UNL     1       1.505   3.767  17.388  0.00  0.00    +0.000 NA
ENDBRANCH  18  19
ENDBRANCH  17  18
ENDBRANCH  15  17
ENDBRANCH   1  15
BRANCH   3  24
ATOM     24  C   UNL     1       4.259   7.498  17.055  0.00  0.00    +0.000 C 
BRANCH  24  25
ATOM     25  C   UNL     1       5.335   6.437  17.038  0.00  0.00    +0.000 A 
ATOM     26  C   UNL     1       6.511   6.602  17.778  0.00  0.00    +0.000 A 
ATOM     27  C   UNL     1       7.497   5.610  17.782  0.00  0.00    +0.000 A 
ATOM     28  C   UNL     1       7.305   4.440  17.058  0.00  0.00    +0.000 A 
ATOM     29  C   UNL     1       6.130   4.258  16.328  0.00  0.00    +0.000 A 
ATOM     30  C   UNL     1       5.148   5.256  16.319  0.00  0.00    +0.000 A 
ENDBRANCH  24  25
ENDBRANCH   3  24
TORSDOF 7
ENDMDL
MODEL 9
REMARK VINA RESULT:      -7.8      2.754      6.854
REMARK  Name = 
REMARK  8 active torsions:
REMARK  status: ('A' for Active; 'I' for Inactive)
REMARK    1  A    between atoms: C_1  and  N_2
REMARK    2  A    between atoms: N_2  and  C_3
REMARK    3  A    between atoms: N_2  and  C_9
REMARK    4  A    between atoms: C_3  and  C_4
REMARK    5  A    between atoms: C_9  and  C_10
REMARK    6  A    between atoms: N_12  and  C_13
REMARK    7  A    between atoms: C_13  and  C_14
REMARK    8  A    between atoms: C_21  and  C_22
REMARK                            x       y       z     vdW  Elec       q    Type
REMARK                         _______ _______ _______ _____ _____    ______ ____
ROOT
ATOM      1  C   UNL     1       2.946   6.487  18.559  0.00  0.00    +0.000 A 
ATOM      2  C   UNL     1       1.751   7.184  18.654  0.00  0.00    +0.000 A 
ATOM      3  N   UNL     1       1.953   8.383  18.045  0.00  0.00    +0.000 N 
ATOM      4  N   UNL     1       3.170   8.504  17.506  0.00  0.00    +0.000 NA
ATOM      5  C   UNL     1       3.780   7.343  17.764  0.00  0.00    +0.000 A 
ENDROOT
BRANCH   5   6
ATOM      6  C   UNL     1       5.011   7.021  17.045  0.00  0.00    +0.000 A 
ATOM      7  C   UNL     1       6.274   6.974  17.669  0.00  0.00    +0.000 A 
ATOM      8  C   UNL     1       7.319   6.241  17.099  0.00  0.00    +0.000 A 
ATOM      9  C   UNL     1       7.046   5.576  15.926  0.00  0.00    +0.000 A 
ATOM     10  C   UNL     1       5.862   5.749  15.245  0.00  0.00    +0.000 A 
ATOM     11  C   UNL     1       4.844   6.506  15.750  0.00  0.00    +0.000 A 
ATOM     12  O   UNL     1       5.757   4.927  14.165  0.00  0.00    +0.000 OA
ATOM     13  C   UNL     1       6.774   3.979  14.533  0.00  0.00    +0.000 C 
ATOM     14  O   UNL     1       7.792   4.578  15.367  0.00  0.00    +0.000 OA
ENDBRANCH   5   6
BRANCH   1  15
ATOM     15  C   UNL     1       3.211   5.113  19.097  0.00  0.00    +0.000 C 
BRANCH  15  17
ATOM     16  C   UNL     1       4.495   3.587  17.701  0.00  0.00    +0.000 C 
ATOM     17  N   UNL     1       3.155   4.099  18.023  0.00  0.00    +0.000 NA
BRANCH  17  18
ATOM     18  C   UNL     1       2.244   3.005  18.432  0.00  0.00    +0.000 C 
BRANCH  18  19
ATOM     19  C   UNL     1       2.159   2.862  19.923  0.00  0.00    +0.000 A 
ATOM     20  C   UNL     1       1.060   3.135  20.779  0.00  0.00    +0.000 A 
ATOM     21  C   UNL     1       1.534   2.825  22.034  0.00  0.00    +0.000 A 
ATOM     22  O   UNL     1       2.820   2.409  21.944  0.00  0.00    +0.000 OA
ATOM     23  N   UNL     1       3.223   2.434  20.621  0.00  0.00    +0.000 NA
ENDBRANCH  18  19
ENDBRANCH  17  18
ENDBRANCH  15  17
ENDBRANCH   1  15
BRANCH   3  24
ATOM     24  C   UNL     1       0.995   9.458  17.848  0.00  0.00    +0.000 C 
BRANCH  24  25
ATOM     25  C   UNL     1       0.763  10.232  19.125  0.00  0.00    +0.000 A 
ATOM     26  C   UNL     1       1.265  11.529  19.274  0.00  0.00    +0.000 A 
ATOM     27  C   UNL     1       1.030  12.255  20.446  0.00  0.00    +0.000 A 
ATOM     28  C   UNL     1       0.276  11.694  21.469  0.00  0.00    +0.000 A 
ATOM     29  C   UNL     1      -0.243  10.407  21.326  0.00  0.00    +0.000 A 
ATOM     30  C   UNL     1       0.001   9.679  20.155  0.00  0.00    +0.000 A 
ENDBRANCH  24  25
ENDBRANCH   3  24
TORSDOF 7
ENDMDL
