MODEL 1
REMARK VINA RESULT:      -7.4      0.000      0.000
REMARK  Name = 
REMARK  2 active torsions:
REMARK  status: ('A' for Active; 'I' for Inactive)
REMARK    1  A    between atoms: C_2  and  C_3
REMARK    2  A    between atoms: C_8  and  C_9
REMARK                            x       y       z     vdW  Elec       q    Type
REMARK                         _______ _______ _______ _____ _____    ______ ____
ROOT
ATOM      1  O   UNL     1       2.985   5.905  20.904  0.00  0.00    +0.000 OA
ATOM      2  C   UNL     1       2.512   6.373  19.867  0.00  0.00    +0.000 C 
ATOM      3  N   UNL     1       1.853   7.641  19.944  0.00  0.00    +0.000 N 
ATOM      4  C   UNL     1       1.707   8.205  21.288  0.00  0.00    +0.000 C 
ATOM      5  C   UNL     1       0.430   9.034  21.527  0.00  0.00    +0.000 C 
ATOM      6  O   UNL     1      -0.301   9.411  20.357  0.00  0.00    +0.000 OA
ATOM      7  C   UNL     1       0.538   9.798  19.248  0.00  0.00    +0.000 C 
ATOM      8  C   UNL     1       1.366  11.078  19.584  0.00  0.00    +0.000 C 
ATOM      9  N   UNL     1       0.572  12.303  19.835  0.00  0.00    +0.000 NA
ATOM     10  C   UNL     1       0.146  12.968  18.601  0.00  0.00    +0.000 C 
ATOM     11  C   UNL     1      -1.086  12.380  17.898  0.00  0.00    +0.000 C 
ATOM     12  O   UNL     1      -1.405  11.043  18.250  0.00  0.00    +0.000 OA
ATOM     13  C   UNL     1      -0.371  10.097  18.011  0.00  0.00    +0.000 C 
ATOM     14  C   UNL     1       1.366   8.514  18.859  0.00  0.00    +0.000 C 
ATOM     15  H   UNL     1       1.114  12.962  20.392  0.00  0.00    +0.000 HD
ENDROOT
BRANCH   2  16
ATOM     16  C   UNL     1       2.607   5.467  18.635  0.00  0.00    +0.000 A 
ATOM     17  C   UNL     1       1.459   4.790  18.179  0.00  0.00    +0.000 A 
ATOM     18  C   UNL     1       1.500   3.737  17.259  0.00  0.00    +0.000 A 
ATOM     19  C   UNL     1       2.710   3.293  16.781  0.00  0.00    +0.000 A 
ATOM     20  C   UNL     1       3.865   3.967  17.156  0.00  0.00    +0.000 A 
ATOM     21  C   UNL     1       3.870   5.080  18.053  0.00  0.00    +0.000 A 
BRANCH  21  22
ATOM     22  C   UNL     1       5.198   5.776  18.205  0.00  0.00    +0.000 A 
ATOM     23  C   UNL     1       5.606   6.797  17.334  0.00  0.00    +0.000 A 
ATOM     24  C   UNL     1       6.898   7.344  17.388  0.00  0.00    +0.000 A 
ATOM     25  C   UNL     1       7.842   6.868  18.293  0.00  0.00    +0.000 A 
ATOM     26  C   UNL     1       7.481   5.853  19.167  0.00  0.00    +0.000 A 
ATOM     27  C   UNL     1       6.176   5.338  19.137  0.00  0.00    +0.000 A 
ENDBRANCH  21  22
ENDBRANCH   2  16
TORSDOF 2
ENDMDL
MODEL 2
REMARK VINA RESULT:      -7.2      2.638      4.391
REMARK  Name = 
REMARK  2 active torsions:
REMARK  status: ('A' for Active; 'I' for Inactive)
REMARK    1  A    between atoms: C_2  and  C_3
REMARK    2  A    between atoms: C_8  and  C_9
REMARK                            x       y       z     vdW  Elec       q    Type
REMARK                         _______ _______ _______ _____ _____    ______ ____
ROOT
ATOM      1  O   UNL     1       4.735   2.497  16.559  0.00  0.00    +0.000 OA
ATOM      2  C   UNL     1       4.710   3.721  16.420  0.00  0.00    +0.000 C 
ATOM      3  N   UNL     1       3.821   4.472  17.253  0.00  0.00    +0.000 N 
ATOM      4  C   UNL     1       2.938   3.685  18.118  0.00  0.00    +0.000 C 
ATOM      5  C   UNL     1       1.547   4.294  18.379  0.00  0.00    +0.000 C 
ATOM      6  O   UNL     1       1.384   5.667  18.013  0.00  0.00    +0.000 OA
ATOM      7  C   UNL     1       2.531   6.489  18.318  0.00  0.00    +0.000 C 
ATOM      8  C   UNL     1       2.788   6.554  19.856  0.00  0.00    +0.000 C 
ATOM      9  N   UNL     1       1.713   7.185  20.656  0.00  0.00    +0.000 NA
ATOM     10  C   UNL     1       1.774   8.650  20.638  0.00  0.00    +0.000 C 
ATOM     11  C   UNL     1       1.187   9.343  19.401  0.00  0.00    +0.000 C 
ATOM     12  O   UNL     1       1.055   8.523  18.250  0.00  0.00    +0.000 OA
ATOM     13  C   UNL     1       2.266   7.936  17.790  0.00  0.00    +0.000 C 
ATOM     14  C   UNL     1       3.713   5.931  17.437  0.00  0.00    +0.000 C 
ATOM     15  H   UNL     1       1.764   6.867  21.623  0.00  0.00    +0.000 HD
ENDROOT
BRANCH   2  16
ATOM     16  C   UNL     1       5.575   4.269  15.280  0.00  0.00    +0.000 A 
ATOM     17  C   UNL     1       5.325   3.854  13.956  0.00  0.00    +0.000 A 
ATOM     18  C   UNL     1       6.220   4.067  12.902  0.00  0.00    +0.000 A 
ATOM     19  C   UNL     1       7.428   4.677  13.142  0.00  0.00    +0.000 A 
ATOM     20  C   UNL     1       7.693   5.156  14.419  0.00  0.00    +0.000 A 
ATOM     21  C   UNL     1       6.790   5.009  15.517  0.00  0.00    +0.000 A 
BRANCH  21  22
ATOM     22  C   UNL     1       7.187   5.738  16.775  0.00  0.00    +0.000 A 
ATOM     23  C   UNL     1       7.382   7.127  16.799  0.00  0.00    +0.000 A 
ATOM     24  C   UNL     1       7.888   7.784  17.931  0.00  0.00    +0.000 A 
ATOM     25  C   UNL     1       8.250   7.074  19.072  0.00  0.00    +0.000 A 
ATOM     26  C   UNL     1       8.079   5.697  19.086  0.00  0.00    +0.000 A 
ATOM     27  C   UNL     1       7.534   5.049  17.967  0.00  0.00    +0.000 A 
ENDBRANCH  21  22
ENDBRANCH   2  16
TORSDOF 2
ENDMDL
MODEL 3
REMARK VINA RESULT:      -6.8      7.597      9.925
REMARK  Name = 
REMARK  2 active torsions:
REMARK  status: ('A' for Active; 'I' for Inactive)
REMARK    1  A    between atoms: C_2  and  C_3
REMARK    2  A    between atoms: C_8  and  C_9
REMARK                            x       y       z     vdW  Elec       q    Type
REMARK                         _______ _______ _______ _____ _____    ______ ____
ROOT
ATOM      1  O   UNL     1       6.640  14.912  17.489  0.00  0.00    +0.000 OA
ATOM      2  C   UNL     1       7.362  15.079  18.474  0.00  0.00    +0.000 C 
ATOM      3  N   UNL     1       6.748  15.059  19.766  0.00  0.00    +0.000 N 
ATOM      4  C   UNL     1       5.286  14.955  19.777  0.00  0.00    +0.000 C 
ATOM      5  C   UNL     1       4.575  15.692  20.930  0.00  0.00    +0.000 C 
ATOM      6  O   UNL     1       5.411  16.125  22.006  0.00  0.00    +0.000 OA
ATOM      7  C   UNL     1       6.435  15.174  22.365  0.00  0.00    +0.000 C 
ATOM      8  C   UNL     1       5.814  13.847  22.902  0.00  0.00    +0.000 C 
ATOM      9  N   UNL     1       5.032  13.971  24.154  0.00  0.00    +0.000 NA
ATOM     10  C   UNL     1       5.875  13.998  25.353  0.00  0.00    +0.000 C 
ATOM     11  C   UNL     1       6.532  15.342  25.695  0.00  0.00    +0.000 C 
ATOM     12  O   UNL     1       6.619  16.267  24.622  0.00  0.00    +0.000 OA
ATOM     13  C   UNL     1       7.331  15.800  23.484  0.00  0.00    +0.000 C 
ATOM     14  C   UNL     1       7.371  15.045  21.103  0.00  0.00    +0.000 C 
ATOM     15  H   UNL     1       4.375  13.196  24.234  0.00  0.00    +0.000 HD
ENDROOT
BRANCH   2  16
ATOM     16  C   UNL     1       8.830  15.393  18.165  0.00  0.00    +0.000 A 
ATOM     17  C   UNL     1       9.192  16.693  17.759  0.00  0.00    +0.000 A 
ATOM     18  C   UNL     1      10.431  17.004  17.189  0.00  0.00    +0.000 A 
ATOM     19  C   UNL     1      11.352  16.007  16.967  0.00  0.00    +0.000 A 
ATOM     20  C   UNL     1      11.063  14.721  17.405  0.00  0.00    +0.000 A 
ATOM     21  C   UNL     1       9.833  14.364  18.038  0.00  0.00    +0.000 A 
BRANCH  21  22
ATOM     22  C   UNL     1       9.777  12.961  18.586  0.00  0.00    +0.000 A 
ATOM     23  C   UNL     1       9.322  11.880  17.817  0.00  0.00    +0.000 A 
ATOM     24  C   UNL     1       9.135  10.603  18.370  0.00  0.00    +0.000 A 
ATOM     25  C   UNL     1       9.366  10.366  19.722  0.00  0.00    +0.000 A 
ATOM     26  C   UNL     1       9.810  11.411  20.520  0.00  0.00    +0.000 A 
ATOM     27  C   UNL     1      10.034  12.675  19.953  0.00  0.00    +0.000 A 
ENDBRANCH  21  22
ENDBRANCH   2  16
TORSDOF 2
ENDMDL
MODEL 4
REMARK VINA RESULT:      -6.8      2.119      2.953
REMARK  Name = 
REMARK  2 active torsions:
REMARK  status: ('A' for Active; 'I' for Inactive)
REMARK    1  A    between atoms: C_2  and  C_3
REMARK    2  A    between atoms: C_8  and  C_9
REMARK                            x       y       z     vdW  Elec       q    Type
REMARK                         _______ _______ _______ _____ _____    ______ ____
ROOT
ATOM      1  O   UNL     1       2.956   7.971  17.100  0.00  0.00    +0.000 OA
ATOM      2  C   UNL     1       2.363   7.881  18.176  0.00  0.00    +0.000 C 
ATOM      3  N   UNL     1       1.716   9.051  18.685  0.00  0.00    +0.000 N 
ATOM      4  C   UNL     1       1.925  10.282  17.917  0.00  0.00    +0.000 C 
ATOM      5  C   UNL     1       1.973  11.582  18.745  0.00  0.00    +0.000 C 
ATOM      6  O   UNL     1       1.512  11.483  20.095  0.00  0.00    +0.000 OA
ATOM      7  C   UNL     1       0.347  10.646  20.251  0.00  0.00    +0.000 C 
ATOM      8  C   UNL     1      -0.882  11.237  19.492  0.00  0.00    +0.000 C 
ATOM      9  N   UNL     1      -1.359  12.552  19.980  0.00  0.00    +0.000 NA
ATOM     10  C   UNL     1      -2.211  12.445  21.168  0.00  0.00    +0.000 C 
ATOM     11  C   UNL     1      -1.491  12.269  22.511  0.00  0.00    +0.000 C 
ATOM     12  O   UNL     1      -0.155  11.799  22.428  0.00  0.00    +0.000 OA
ATOM     13  C   UNL     1       0.001  10.547  21.773  0.00  0.00    +0.000 C 
ATOM     14  C   UNL     1       0.795   9.194  19.828  0.00  0.00    +0.000 C 
ATOM     15  H   UNL     1      -1.880  13.029  19.245  0.00  0.00    +0.000 HD
ENDROOT
BRANCH   2  16
ATOM     16  C   UNL     1       2.491   6.528  18.884  0.00  0.00    +0.000 A 
ATOM     17  C   UNL     1       1.551   6.166  19.869  0.00  0.00    +0.000 A 
ATOM     18  C   UNL     1       1.739   5.103  20.759  0.00  0.00    +0.000 A 
ATOM     19  C   UNL     1       2.905   4.377  20.721  0.00  0.00    +0.000 A 
ATOM     20  C   UNL     1       3.836   4.658  19.729  0.00  0.00    +0.000 A 
ATOM     21  C   UNL     1       3.667   5.700  18.765  0.00  0.00    +0.000 A 
BRANCH  21  22
ATOM     22  C   UNL     1       4.707   5.739  17.675  0.00  0.00    +0.000 A 
ATOM     23  C   UNL     1       4.572   4.998  16.492  0.00  0.00    +0.000 A 
ATOM     24  C   UNL     1       5.603   4.923  15.542  0.00  0.00    +0.000 A 
ATOM     25  C   UNL     1       6.822   5.560  15.755  0.00  0.00    +0.000 A 
ATOM     26  C   UNL     1       6.999   6.298  16.918  0.00  0.00    +0.000 A 
ATOM     27  C   UNL     1       5.950   6.403  17.844  0.00  0.00    +0.000 A 
ENDBRANCH  21  22
ENDBRANCH   2  16
TORSDOF 2
ENDMDL
MODEL 5
REMARK VINA RESULT:      -6.7      5.501      8.336
REMARK  Name = 
REMARK  2 active torsions:
REMARK  status: ('A' for Active; 'I' for Inactive)
REMARK    1  A    between atoms: C_2  and  C_3
REMARK    2  A    between atoms: C_8  and  C_9
REMARK                            x       y       z     vdW  Elec       q    Type
REMARK                         _______ _______ _______ _____ _____    ______ ____
ROOT
ATOM      1  O   UNL     1      -1.538  11.254  17.516  0.00  0.00    +0.000 OA
ATOM      2  C   UNL     1      -1.805  11.987  18.470  0.00  0.00    +0.000 C 
ATOM      3  N   UNL     1      -3.179  12.125  18.845  0.00  0.00    +0.000 N 
ATOM      4  C   UNL     1      -4.150  11.460  17.971  0.00  0.00    +0.000 C 
ATOM      5  C   UNL     1      -5.510  12.171  17.825  0.00  0.00    +0.000 C 
ATOM      6  O   UNL     1      -5.780  13.208  18.772  0.00  0.00    +0.000 OA
ATOM      7  C   UNL     1      -5.338  12.900  20.111  0.00  0.00    +0.000 C 
ATOM      8  C   UNL     1      -6.104  11.671  20.693  0.00  0.00    +0.000 C 
ATOM      9  N   UNL     1      -7.564  11.854  20.866  0.00  0.00    +0.000 NA
ATOM     10  C   UNL     1      -7.906  12.580  22.093  0.00  0.00    +0.000 C 
ATOM     11  C   UNL     1      -7.776  14.108  22.041  0.00  0.00    +0.000 C 
ATOM     12  O   UNL     1      -6.947  14.613  21.005  0.00  0.00    +0.000 OA
ATOM     13  C   UNL     1      -5.606  14.140  21.026  0.00  0.00    +0.000 C 
ATOM     14  C   UNL     1      -3.769  12.770  20.033  0.00  0.00    +0.000 C 
ATOM     15  H   UNL     1      -8.030  10.948  20.881  0.00  0.00    +0.000 HD
ENDROOT
BRANCH   2  16
ATOM     16  C   UNL     1      -0.615  12.745  19.068  0.00  0.00    +0.000 A 
ATOM     17  C   UNL     1      -0.165  13.930  18.453  0.00  0.00    +0.000 A 
ATOM     18  C   UNL     1       1.065  14.529  18.745  0.00  0.00    +0.000 A 
ATOM     19  C   UNL     1       1.918  13.937  19.646  0.00  0.00    +0.000 A 
ATOM     20  C   UNL     1       1.493  12.800  20.321  0.00  0.00    +0.000 A 
ATOM     21  C   UNL     1       0.226  12.180  20.096  0.00  0.00    +0.000 A 
BRANCH  21  22
ATOM     22  C   UNL     1      -0.116  11.056  21.041  0.00  0.00    +0.000 A 
ATOM     23  C   UNL     1      -0.626  11.294  22.325  0.00  0.00    +0.000 A 
ATOM     24  C   UNL     1      -0.809  10.258  23.254  0.00  0.00    +0.000 A 
ATOM     25  C   UNL     1      -0.455   8.947  22.946  0.00  0.00    +0.000 A 
ATOM     26  C   UNL     1       0.061   8.671  21.688  0.00  0.00    +0.000 A 
ATOM     27  C   UNL     1       0.202   9.704  20.749  0.00  0.00    +0.000 A 
ENDBRANCH  21  22
ENDBRANCH   2  16
TORSDOF 2
ENDMDL
MODEL 6
REMARK VINA RESULT:      -6.7      3.951      7.362
REMARK  Name = 
REMARK  2 active torsions:
REMARK  status: ('A' for Active; 'I' for Inactive)
REMARK    1  A    between atoms: C_2  and  C_3
REMARK    2  A    between atoms: C_8  and  C_9
REMARK                            x       y       z     vdW  Elec       q    Type
REMARK                         _______ _______ _______ _____ _____    ______ ____
ROOT
ATOM      1  O   UNL     1      -1.514  10.193  17.445  0.00  0.00    +0.000 OA
ATOM      2  C   UNL     1      -1.763  11.147  18.185  0.00  0.00    +0.000 C 
ATOM      3  N   UNL     1      -3.133  11.404  18.508  0.00  0.00    +0.000 N 
ATOM      4  C   UNL     1      -4.120  10.564  17.824  0.00  0.00    +0.000 C 
ATOM      5  C   UNL     1      -5.463  11.247  17.499  0.00  0.00    +0.000 C 
ATOM      6  O   UNL     1      -5.709  12.493  18.156  0.00  0.00    +0.000 OA
ATOM      7  C   UNL     1      -5.272  12.519  19.532  0.00  0.00    +0.000 C 
ATOM      8  C   UNL     1      -6.065  11.492  20.398  0.00  0.00    +0.000 C 
ATOM      9  N   UNL     1      -7.520  11.745  20.514  0.00  0.00    +0.000 NA
ATOM     10  C   UNL     1      -7.844  12.761  21.519  0.00  0.00    +0.000 C 
ATOM     11  C   UNL     1      -7.679  14.225  21.088  0.00  0.00    +0.000 C 
ATOM     12  O   UNL     1      -6.841  14.437  19.963  0.00  0.00    +0.000 OA
ATOM     13  C   UNL     1      -5.511  13.954  20.106  0.00  0.00    +0.000 C 
ATOM     14  C   UNL     1      -3.706  12.338  19.495  0.00  0.00    +0.000 C 
ATOM     15  H   UNL     1      -8.007  10.882  20.753  0.00  0.00    +0.000 HD
ENDROOT
BRANCH   2  16
ATOM     16  C   UNL     1      -0.555  12.003  18.580  0.00  0.00    +0.000 A 
ATOM     17  C   UNL     1      -0.672  13.407  18.593  0.00  0.00    +0.000 A 
ATOM     18  C   UNL     1       0.427  14.270  18.658  0.00  0.00    +0.000 A 
ATOM     19  C   UNL     1       1.702  13.755  18.676  0.00  0.00    +0.000 A 
ATOM     20  C   UNL     1       1.865  12.377  18.725  0.00  0.00    +0.000 A 
ATOM     21  C   UNL     1       0.773  11.455  18.712  0.00  0.00    +0.000 A 
BRANCH  21  22
ATOM     22  C   UNL     1       1.149  10.012  18.937  0.00  0.00    +0.000 A 
ATOM     23  C   UNL     1       0.984   9.386  20.181  0.00  0.00    +0.000 A 
ATOM     24  C   UNL     1       1.465   8.091  20.429  0.00  0.00    +0.000 A 
ATOM     25  C   UNL     1       2.159   7.384  19.451  0.00  0.00    +0.000 A 
ATOM     26  C   UNL     1       2.350   7.971  18.208  0.00  0.00    +0.000 A 
ATOM     27  C   UNL     1       1.831   9.250  17.953  0.00  0.00    +0.000 A 
ENDBRANCH  21  22
ENDBRANCH   2  16
TORSDOF 2
ENDMDL
MODEL 7
REMARK VINA RESULT:      -6.7      3.557      6.660
REMARK  Name = 
REMARK  2 active torsions:
REMARK  status: ('A' for Active; 'I' for Inactive)
REMARK    1  A    between atoms: C_2  and  C_3
REMARK    2  A    between atoms: C_8  and  C_9
REMARK                            x       y       z     vdW  Elec       q    Type
REMARK                         _______ _______ _______ _____ _____    ______ ____
ROOT
ATOM      1  O   UNL     1      -0.664  11.696  18.708  0.00  0.00    +0.000 OA
ATOM      2  C   UNL     1       0.026  11.882  19.712  0.00  0.00    +0.000 C 
ATOM      3  N   UNL     1       1.043  12.887  19.650  0.00  0.00    +0.000 N 
ATOM      4  C   UNL     1       1.236  13.520  18.343  0.00  0.00    +0.000 C 
ATOM      5  C   UNL     1       2.683  13.938  18.014  0.00  0.00    +0.000 C 
ATOM      6  O   UNL     1       3.599  13.944  19.112  0.00  0.00    +0.000 OA
ATOM      7  C   UNL     1       3.032  14.448  20.339  0.00  0.00    +0.000 C 
ATOM      8  C   UNL     1       2.624  15.948  20.201  0.00  0.00    +0.000 C 
ATOM      9  N   UNL     1       3.739  16.890  19.947  0.00  0.00    +0.000 NA
ATOM     10  C   UNL     1       4.465  17.255  21.167  0.00  0.00    +0.000 C 
ATOM     11  C   UNL     1       5.505  16.246  21.671  0.00  0.00    +0.000 C 
ATOM     12  O   UNL     1       5.352  14.921  21.185  0.00  0.00    +0.000 OA
ATOM     13  C   UNL     1       4.097  14.317  21.476  0.00  0.00    +0.000 C 
ATOM     14  C   UNL     1       1.878  13.446  20.729  0.00  0.00    +0.000 C 
ATOM     15  H   UNL     1       3.385  17.740  19.510  0.00  0.00    +0.000 HD
ENDROOT
BRANCH   2  16
ATOM     16  C   UNL     1      -0.239  10.921  20.876  0.00  0.00    +0.000 A 
ATOM     17  C   UNL     1      -1.017  11.350  21.969  0.00  0.00    +0.000 A 
ATOM     18  C   UNL     1      -1.076  10.664  23.187  0.00  0.00    +0.000 A 
ATOM     19  C   UNL     1      -0.322   9.530  23.372  0.00  0.00    +0.000 A 
ATOM     20  C   UNL     1       0.414   9.036  22.303  0.00  0.00    +0.000 A 
ATOM     21  C   UNL     1       0.467   9.671  21.024  0.00  0.00    +0.000 A 
BRANCH  21  22
ATOM     22  C   UNL     1       1.186   8.894  19.951  0.00  0.00    +0.000 A 
ATOM     23  C   UNL     1       1.798   7.659  20.211  0.00  0.00    +0.000 A 
ATOM     24  C   UNL     1       2.587   7.006  19.252  0.00  0.00    +0.000 A 
ATOM     25  C   UNL     1       2.822   7.579  18.005  0.00  0.00    +0.000 A 
ATOM     26  C   UNL     1       2.240   8.804  17.710  0.00  0.00    +0.000 A 
ATOM     27  C   UNL     1       1.419   9.433  18.658  0.00  0.00    +0.000 A 
ENDBRANCH  21  22
ENDBRANCH   2  16
TORSDOF 2
ENDMDL
MODEL 8
REMARK VINA RESULT:      -6.6      5.678     10.757
REMARK  Name = 
REMARK  2 active torsions:
REMARK  status: ('A' for Active; 'I' for Inactive)
REMARK    1  A    between atoms: C_2  and  C_3
REMARK    2  A    between atoms: C_8  and  C_9
REMARK                            x       y       z     vdW  Elec       q    Type
REMARK                         _______ _______ _______ _____ _____    ______ ____
ROOT
ATOM      1  O   UNL     1      -5.120  12.471  23.424  0.00  0.00    +0.000 OA
ATOM      2  C   UNL     1      -4.714  12.928  22.354  0.00  0.00    +0.000 C 
ATOM      3  N   UNL     1      -3.358  12.660  21.982  0.00  0.00    +0.000 N 
ATOM      4  C   UNL     1      -2.549  11.956  22.981  0.00  0.00    +0.000 C 
ATOM      5  C   UNL     1      -1.055  12.335  23.013  0.00  0.00    +0.000 C 
ATOM      6  O   UNL     1      -0.573  13.082  21.893  0.00  0.00    +0.000 OA
ATOM      7  C   UNL     1      -1.114  12.647  20.629  0.00  0.00    +0.000 C 
ATOM      8  C   UNL     1      -0.681  11.184  20.300  0.00  0.00    +0.000 C 
ATOM      9  N   UNL     1       0.775  10.976  20.120  0.00  0.00    +0.000 NA
ATOM     10  C   UNL     1       1.244  11.359  18.784  0.00  0.00    +0.000 C 
ATOM     11  C   UNL     1       1.484  12.856  18.547  0.00  0.00    +0.000 C 
ATOM     12  O   UNL     1       0.830  13.728  19.457  0.00  0.00    +0.000 OA
ATOM     13  C   UNL     1      -0.585  13.595  19.503  0.00  0.00    +0.000 C 
ATOM     14  C   UNL     1      -2.666  12.913  20.705  0.00  0.00    +0.000 C 
ATOM     15  H   UNL     1       1.011   9.999  20.282  0.00  0.00    +0.000 HD
ENDROOT
BRANCH   2  16
ATOM     16  C   UNL     1      -5.706  13.824  21.605  0.00  0.00    +0.000 A 
ATOM     17  C   UNL     1      -5.623  15.224  21.747  0.00  0.00    +0.000 A 
ATOM     18  C   UNL     1      -6.637  16.099  21.345  0.00  0.00    +0.000 A 
ATOM     19  C   UNL     1      -7.802  15.600  20.813  0.00  0.00    +0.000 A 
ATOM     20  C   UNL     1      -7.905  14.231  20.599  0.00  0.00    +0.000 A 
ATOM     21  C   UNL     1      -6.877  13.301  20.945  0.00  0.00    +0.000 A 
BRANCH  21  22
ATOM     22  C   UNL     1      -7.111  11.885  20.484  0.00  0.00    +0.000 A 
ATOM     23  C   UNL     1      -7.788  10.947  21.278  0.00  0.00    +0.000 A 
ATOM     24  C   UNL     1      -7.880   9.595  20.912  0.00  0.00    +0.000 A 
ATOM     25  C   UNL     1      -7.270   9.123  19.753  0.00  0.00    +0.000 A 
ATOM     26  C   UNL     1      -6.584  10.017  18.944  0.00  0.00    +0.000 A 
ATOM     27  C   UNL     1      -6.530  11.375  19.293  0.00  0.00    +0.000 A 
ENDBRANCH  21  22
ENDBRANCH   2  16
TORSDOF 2
ENDMDL
MODEL 9
REMARK VINA RESULT:      -6.5      6.137      8.584
REMARK  Name = 
REMARK  2 active torsions:
REMARK  status: ('A' for Active; 'I' for Inactive)
REMARK    1  A    between atoms: C_2  and  C_3
REMARK    2  A    between atoms: C_8  and  C_9
REMARK                            x       y       z     vdW  Elec       q    Type
REMARK                         _______ _______ _______ _____ _____    ______ ____
ROOT
ATOM      1  O   UNL     1      -1.160   9.918  19.843  0.00  0.00    +0.000 OA
ATOM      2  C   UNL     1      -1.305  10.896  19.107  0.00  0.00    +0.000 C 
ATOM      3  N   UNL     1      -0.571  12.084  19.418  0.00  0.00    +0.000 N 
ATOM      4  C   UNL     1       0.201  12.051  20.663  0.00  0.00    +0.000 C 
ATOM      5  C   UNL     1       0.314  13.394  21.411  0.00  0.00    +0.000 C 
ATOM      6  O   UNL     1      -0.072  14.557  20.675  0.00  0.00    +0.000 OA
ATOM      7  C   UNL     1       0.348  14.535  19.294  0.00  0.00    +0.000 C 
ATOM      8  C   UNL     1       1.904  14.532  19.174  0.00  0.00    +0.000 C 
ATOM      9  N   UNL     1       2.586  15.736  19.703  0.00  0.00    +0.000 NA
ATOM     10  C   UNL     1       2.569  16.860  18.761  0.00  0.00    +0.000 C 
ATOM     11  C   UNL     1       1.276  17.684  18.704  0.00  0.00    +0.000 C 
ATOM     12  O   UNL     1       0.120  17.038  19.215  0.00  0.00    +0.000 OA
ATOM     13  C   UNL     1      -0.210  15.809  18.580  0.00  0.00    +0.000 C 
ATOM     14  C   UNL     1      -0.404  13.319  18.630  0.00  0.00    +0.000 C 
ATOM     15  H   UNL     1       3.554  15.517  19.934  0.00  0.00    +0.000 HD
ENDROOT
BRANCH   2  16
ATOM     16  C   UNL     1      -2.351  10.732  17.999  0.00  0.00    +0.000 A 
ATOM     17  C   UNL     1      -1.998  10.086  16.798  0.00  0.00    +0.000 A 
ATOM     18  C   UNL     1      -2.777  10.138  15.638  0.00  0.00    +0.000 A 
ATOM     19  C   UNL     1      -3.935  10.879  15.624  0.00  0.00    +0.000 A 
ATOM     20  C   UNL     1      -4.355  11.485  16.801  0.00  0.00    +0.000 A 
ATOM     21  C   UNL     1      -3.621  11.418  18.025  0.00  0.00    +0.000 A 
BRANCH  21  22
ATOM     22  C   UNL     1      -4.322  12.000  19.226  0.00  0.00    +0.000 A 
ATOM     23  C   UNL     1      -3.643  12.768  20.183  0.00  0.00    +0.000 A 
ATOM     24  C   UNL     1      -4.262  13.188  21.371  0.00  0.00    +0.000 A 
ATOM     25  C   UNL     1      -5.574  12.826  21.663  0.00  0.00    +0.000 A 
ATOM     26  C   UNL     1      -6.278  12.060  20.745  0.00  0.00    +0.000 A 
ATOM     27  C   UNL     1      -5.668  11.678  19.541  0.00  0.00    +0.000 A 
ENDBRANCH  21  22
ENDBRANCH   2  16
TORSDOF 2
ENDMDL
