MODEL 1
REMARK VINA RESULT:      -8.9      0.000      0.000
REMARK  Name = 
REMARK  2 active torsions:
REMARK  status: ('A' for Active; 'I' for Inactive)
REMARK    1  A    between atoms: C_1  and  C_2
REMARK    2  A    between atoms: N_5  and  C_6
REMARK                            x       y       z     vdW  Elec       q    Type
REMARK                         _______ _______ _______ _____ _____    ______ ____
ROOT
ATOM      1  C   UNL     1       6.277   5.209  19.306  0.00  0.00    +0.000 C 
ATOM      2  C   UNL     1       5.934   5.548  17.860  0.00  0.00    +0.000 C 
ATOM      3  C   UNL     1       6.736   4.720  16.888  0.00  0.00    +0.000 C 
ATOM      4  O   UNL     1       7.875   4.329  17.099  0.00  0.00    +0.000 OA
ATOM      5  N   UNL     1       5.968   4.646  15.718  0.00  0.00    +0.000 N 
ATOM      6  N   UNL     1       4.629   5.043  15.922  0.00  0.00    +0.000 NA
ATOM      7  C   UNL     1       4.478   5.363  17.365  0.00  0.00    +0.000 C 
ATOM      8  C   UNL     1       3.698   6.700  17.354  0.00  0.00    +0.000 C 
ATOM      9  C   UNL     1       3.289   7.136  18.750  0.00  0.00    +0.000 C 
ATOM     10  C   UNL     1       2.369   6.100  19.381  0.00  0.00    +0.000 C 
ATOM     11  C   UNL     1       2.805   4.668  19.171  0.00  0.00    +0.000 A 
ATOM     12  C   UNL     1       2.228   3.685  19.993  0.00  0.00    +0.000 A 
ATOM     13  C   UNL     1       2.570   2.344  19.852  0.00  0.00    +0.000 A 
ATOM     14  C   UNL     1       3.472   1.963  18.866  0.00  0.00    +0.000 A 
ATOM     15  C   UNL     1       4.042   2.925  18.029  0.00  0.00    +0.000 A 
ATOM     16  C   UNL     1       3.730   4.293  18.169  0.00  0.00    +0.000 A 
ATOM     17  H   UNL     1       4.021   4.255  15.687  0.00  0.00    +0.000 HD
ENDROOT
BRANCH   5  18
ATOM     18  C   UNL     1       6.488   4.499  14.401  0.00  0.00    +0.000 A 
ATOM     19  C   UNL     1       7.509   5.329  13.911  0.00  0.00    +0.000 A 
ATOM     20  C   UNL     1       7.931   5.250  12.580  0.00  0.00    +0.000 A 
ATOM     21  C   UNL     1       7.345   4.338  11.713  0.00  0.00    +0.000 A 
ATOM     22  C   UNL     1       6.349   3.487  12.181  0.00  0.00    +0.000 A 
ATOM     23  C   UNL     1       5.933   3.560  13.515  0.00  0.00    +0.000 A 
ENDBRANCH   5  18
TORSDOF 1
ENDMDL
MODEL 2
REMARK VINA RESULT:      -8.6      0.157      1.036
REMARK  Name = 
REMARK  2 active torsions:
REMARK  status: ('A' for Active; 'I' for Inactive)
REMARK    1  A    between atoms: C_1  and  C_2
REMARK    2  A    between atoms: N_5  and  C_6
REMARK                            x       y       z     vdW  Elec       q    Type
REMARK                         _______ _______ _______ _____ _____    ______ ____
ROOT
ATOM      1  C   UNL     1       6.215   5.205  19.358  0.00  0.00    +0.000 C 
ATOM      2  C   UNL     1       5.832   5.578  17.931  0.00  0.00    +0.000 C 
ATOM      3  C   UNL     1       6.611   4.776  16.918  0.00  0.00    +0.000 C 
ATOM      4  O   UNL     1       7.756   4.385  17.089  0.00  0.00    +0.000 OA
ATOM      5  N   UNL     1       5.812   4.726  15.767  0.00  0.00    +0.000 N 
ATOM      6  N   UNL     1       4.478   5.113  16.016  0.00  0.00    +0.000 NA
ATOM      7  C   UNL     1       4.364   5.399  17.470  0.00  0.00    +0.000 C 
ATOM      8  C   UNL     1       3.579   6.732  17.511  0.00  0.00    +0.000 C 
ATOM      9  C   UNL     1       3.207   7.133  18.928  0.00  0.00    +0.000 C 
ATOM     10  C   UNL     1       2.307   6.080  19.558  0.00  0.00    +0.000 C 
ATOM     11  C   UNL     1       2.742   4.655  19.303  0.00  0.00    +0.000 A 
ATOM     12  C   UNL     1       2.190   3.651  20.116  0.00  0.00    +0.000 A 
ATOM     13  C   UNL     1       2.532   2.315  19.934  0.00  0.00    +0.000 A 
ATOM     14  C   UNL     1       3.409   1.960  18.916  0.00  0.00    +0.000 A 
ATOM     15  C   UNL     1       3.954   2.945  18.087  0.00  0.00    +0.000 A 
ATOM     16  C   UNL     1       3.641   4.307  18.268  0.00  0.00    +0.000 A 
ATOM     17  H   UNL     1       3.866   4.329  15.779  0.00  0.00    +0.000 HD
ENDROOT
BRANCH   5  18
ATOM     18  C   UNL     1       6.297   4.613  14.433  0.00  0.00    +0.000 A 
ATOM     19  C   UNL     1       5.766   3.677  13.531  0.00  0.00    +0.000 A 
ATOM     20  C   UNL     1       6.326   3.497  12.262  0.00  0.00    +0.000 A 
ATOM     21  C   UNL     1       7.424   4.249  11.867  0.00  0.00    +0.000 A 
ATOM     22  C   UNL     1       7.953   5.201  12.736  0.00  0.00    +0.000 A 
ATOM     23  C   UNL     1       7.386   5.387  14.001  0.00  0.00    +0.000 A 
ENDBRANCH   5  18
TORSDOF 1
ENDMDL
MODEL 3
REMARK VINA RESULT:      -7.1      2.534      6.407
REMARK  Name = 
REMARK  2 active torsions:
REMARK  status: ('A' for Active; 'I' for Inactive)
REMARK    1  A    between atoms: C_1  and  C_2
REMARK    2  A    between atoms: N_5  and  C_6
REMARK                            x       y       z     vdW  Elec       q    Type
REMARK                         _______ _______ _______ _____ _____    ______ ____
ROOT
ATOM      1  C   UNL     1       3.893   3.543  17.834  0.00  0.00    +0.000 C 
ATOM      2  C   UNL     1       3.501   4.961  17.437  0.00  0.00    +0.000 C 
ATOM      3  C   UNL     1       2.762   5.666  18.547  0.00  0.00    +0.000 C 
ATOM      4  O   UNL     1       2.028   5.102  19.346  0.00  0.00    +0.000 OA
ATOM      5  N   UNL     1       2.989   7.035  18.354  0.00  0.00    +0.000 N 
ATOM      6  N   UNL     1       4.049   7.288  17.456  0.00  0.00    +0.000 NA
ATOM      7  C   UNL     1       4.610   5.972  17.052  0.00  0.00    +0.000 C 
ATOM      8  C   UNL     1       4.762   6.106  15.518  0.00  0.00    +0.000 C 
ATOM      9  C   UNL     1       5.479   4.913  14.908  0.00  0.00    +0.000 C 
ATOM     10  C   UNL     1       6.886   4.793  15.477  0.00  0.00    +0.000 C 
ATOM     11  C   UNL     1       6.974   5.001  16.971  0.00  0.00    +0.000 A 
ATOM     12  C   UNL     1       8.145   4.572  17.620  0.00  0.00    +0.000 A 
ATOM     13  C   UNL     1       8.306   4.741  18.991  0.00  0.00    +0.000 A 
ATOM     14  C   UNL     1       7.309   5.367  19.730  0.00  0.00    +0.000 A 
ATOM     15  C   UNL     1       6.146   5.815  19.098  0.00  0.00    +0.000 A 
ATOM     16  C   UNL     1       5.950   5.633  17.714  0.00  0.00    +0.000 A 
ATOM     17  H   UNL     1       4.767   7.822  17.949  0.00  0.00    +0.000 HD
ENDROOT
BRANCH   5  18
ATOM     18  C   UNL     1       2.101   8.079  18.739  0.00  0.00    +0.000 A 
ATOM     19  C   UNL     1       1.701   8.256  20.073  0.00  0.00    +0.000 A 
ATOM     20  C   UNL     1       0.741   9.211  20.421  0.00  0.00    +0.000 A 
ATOM     21  C   UNL     1       0.164  10.012  19.444  0.00  0.00    +0.000 A 
ATOM     22  C   UNL     1       0.561   9.872  18.118  0.00  0.00    +0.000 A 
ATOM     23  C   UNL     1       1.529   8.922  17.772  0.00  0.00    +0.000 A 
ENDBRANCH   5  18
TORSDOF 1
ENDMDL
MODEL 4
REMARK VINA RESULT:      -7.0      2.504      6.387
REMARK  Name = 
REMARK  2 active torsions:
REMARK  status: ('A' for Active; 'I' for Inactive)
REMARK    1  A    between atoms: C_1  and  C_2
REMARK    2  A    between atoms: N_5  and  C_6
REMARK                            x       y       z     vdW  Elec       q    Type
REMARK                         _______ _______ _______ _____ _____    ______ ____
ROOT
ATOM      1  C   UNL     1       3.941   3.479  17.843  0.00  0.00    +0.000 C 
ATOM      2  C   UNL     1       3.527   4.888  17.434  0.00  0.00    +0.000 C 
ATOM      3  C   UNL     1       2.768   5.587  18.534  0.00  0.00    +0.000 C 
ATOM      4  O   UNL     1       2.038   5.017  19.331  0.00  0.00    +0.000 OA
ATOM      5  N   UNL     1       2.974   6.959  18.334  0.00  0.00    +0.000 N 
ATOM      6  N   UNL     1       4.036   7.224  17.443  0.00  0.00    +0.000 NA
ATOM      7  C   UNL     1       4.622   5.916  17.052  0.00  0.00    +0.000 C 
ATOM      8  C   UNL     1       4.784   6.042  15.518  0.00  0.00    +0.000 C 
ATOM      9  C   UNL     1       5.526   4.858  14.922  0.00  0.00    +0.000 C 
ATOM     10  C   UNL     1       6.930   4.765  15.502  0.00  0.00    +0.000 C 
ATOM     11  C   UNL     1       7.003   4.984  16.995  0.00  0.00    +0.000 A 
ATOM     12  C   UNL     1       8.176   4.579  17.656  0.00  0.00    +0.000 A 
ATOM     13  C   UNL     1       8.323   4.759  19.027  0.00  0.00    +0.000 A 
ATOM     14  C   UNL     1       7.310   5.373  19.754  0.00  0.00    +0.000 A 
ATOM     15  C   UNL     1       6.145   5.797  19.111  0.00  0.00    +0.000 A 
ATOM     16  C   UNL     1       5.963   5.604  17.726  0.00  0.00    +0.000 A 
ATOM     17  H   UNL     1       4.741   7.774  17.938  0.00  0.00    +0.000 HD
ENDROOT
BRANCH   5  18
ATOM     18  C   UNL     1       2.065   7.990  18.706  0.00  0.00    +0.000 A 
ATOM     19  C   UNL     1       1.577   8.918  17.771  0.00  0.00    +0.000 A 
ATOM     20  C   UNL     1       0.776   9.993  18.169  0.00  0.00    +0.000 A 
ATOM     21  C   UNL     1       0.443  10.161  19.506  0.00  0.00    +0.000 A 
ATOM     22  C   UNL     1       0.893   9.240  20.448  0.00  0.00    +0.000 A 
ATOM     23  C   UNL     1       1.687   8.159  20.047  0.00  0.00    +0.000 A 
ENDBRANCH   5  18
TORSDOF 1
ENDMDL
MODEL 5
REMARK VINA RESULT:      -7.0      5.104      7.442
REMARK  Name = 
REMARK  2 active torsions:
REMARK  status: ('A' for Active; 'I' for Inactive)
REMARK    1  A    between atoms: C_1  and  C_2
REMARK    2  A    between atoms: N_5  and  C_6
REMARK                            x       y       z     vdW  Elec       q    Type
REMARK                         _______ _______ _______ _____ _____    ______ ____
ROOT
ATOM      1  C   UNL     1      -0.003  10.231  21.143  0.00  0.00    +0.000 C 
ATOM      2  C   UNL     1       1.093   9.988  20.113  0.00  0.00    +0.000 C 
ATOM      3  C   UNL     1       1.329   8.516  19.885  0.00  0.00    +0.000 C 
ATOM      4  O   UNL     1       1.196   7.661  20.748  0.00  0.00    +0.000 OA
ATOM      5  N   UNL     1       1.842   8.403  18.586  0.00  0.00    +0.000 N 
ATOM      6  N   UNL     1       1.661   9.578  17.827  0.00  0.00    +0.000 NA
ATOM      7  C   UNL     1       0.917  10.544  18.677  0.00  0.00    +0.000 C 
ATOM      8  C   UNL     1       1.691  11.869  18.472  0.00  0.00    +0.000 C 
ATOM      9  C   UNL     1       0.996  13.045  19.136  0.00  0.00    +0.000 C 
ATOM     10  C   UNL     1      -0.387  13.252  18.535  0.00  0.00    +0.000 C 
ATOM     11  C   UNL     1      -1.171  11.977  18.324  0.00  0.00    +0.000 A 
ATOM     12  C   UNL     1      -2.556  12.093  18.110  0.00  0.00    +0.000 A 
ATOM     13  C   UNL     1      -3.342  10.966  17.895  0.00  0.00    +0.000 A 
ATOM     14  C   UNL     1      -2.752   9.709  17.862  0.00  0.00    +0.000 A 
ATOM     15  C   UNL     1      -1.374   9.577  18.056  0.00  0.00    +0.000 A 
ATOM     16  C   UNL     1      -0.560  10.702  18.300  0.00  0.00    +0.000 A 
ATOM     17  H   UNL     1       1.096   9.347  17.007  0.00  0.00    +0.000 HD
ENDROOT
BRANCH   5  18
ATOM     18  C   UNL     1       2.721   7.377  18.136  0.00  0.00    +0.000 A 
ATOM     19  C   UNL     1       3.915   7.671  17.457  0.00  0.00    +0.000 A 
ATOM     20  C   UNL     1       4.711   6.655  16.919  0.00  0.00    +0.000 A 
ATOM     21  C   UNL     1       4.335   5.325  17.053  0.00  0.00    +0.000 A 
ATOM     22  C   UNL     1       3.169   5.007  17.743  0.00  0.00    +0.000 A 
ATOM     23  C   UNL     1       2.377   6.024  18.288  0.00  0.00    +0.000 A 
ENDBRANCH   5  18
TORSDOF 1
ENDMDL
MODEL 6
REMARK VINA RESULT:      -6.9      5.018      7.418
REMARK  Name = 
REMARK  2 active torsions:
REMARK  status: ('A' for Active; 'I' for Inactive)
REMARK    1  A    between atoms: C_1  and  C_2
REMARK    2  A    between atoms: N_5  and  C_6
REMARK                            x       y       z     vdW  Elec       q    Type
REMARK                         _______ _______ _______ _____ _____    ______ ____
ROOT
ATOM      1  C   UNL     1       0.255  10.230  21.096  0.00  0.00    +0.000 C 
ATOM      2  C   UNL     1       1.298   9.952  20.020  0.00  0.00    +0.000 C 
ATOM      3  C   UNL     1       1.468   8.472  19.779  0.00  0.00    +0.000 C 
ATOM      4  O   UNL     1       1.339   7.619  20.643  0.00  0.00    +0.000 OA
ATOM      5  N   UNL     1       1.923   8.346  18.459  0.00  0.00    +0.000 N 
ATOM      6  N   UNL     1       1.754   9.532  17.711  0.00  0.00    +0.000 NA
ATOM      7  C   UNL     1       1.083  10.520  18.595  0.00  0.00    +0.000 C 
ATOM      8  C   UNL     1       1.897  11.816  18.363  0.00  0.00    +0.000 C 
ATOM      9  C   UNL     1       1.276  13.015  19.059  0.00  0.00    +0.000 C 
ATOM     10  C   UNL     1      -0.123  13.276  18.517  0.00  0.00    +0.000 C 
ATOM     11  C   UNL     1      -0.962  12.033  18.334  0.00  0.00    +0.000 A 
ATOM     12  C   UNL     1      -2.349  12.202  18.178  0.00  0.00    +0.000 A 
ATOM     13  C   UNL     1      -3.186  11.106  17.992  0.00  0.00    +0.000 A 
ATOM     14  C   UNL     1      -2.645   9.828  17.930  0.00  0.00    +0.000 A 
ATOM     15  C   UNL     1      -1.267   9.643  18.067  0.00  0.00    +0.000 A 
ATOM     16  C   UNL     1      -0.401  10.736  18.280  0.00  0.00    +0.000 A 
ATOM     17  H   UNL     1       1.147   9.326  16.915  0.00  0.00    +0.000 HD
ENDROOT
BRANCH   5  18
ATOM     18  C   UNL     1       2.743   7.291  17.968  0.00  0.00    +0.000 A 
ATOM     19  C   UNL     1       2.364   5.944  18.086  0.00  0.00    +0.000 A 
ATOM     20  C   UNL     1       3.227   4.912  17.705  0.00  0.00    +0.000 A 
ATOM     21  C   UNL     1       4.485   5.205  17.194  0.00  0.00    +0.000 A 
ATOM     22  C   UNL     1       4.874   6.533  17.045  0.00  0.00    +0.000 A 
ATOM     23  C   UNL     1       4.005   7.564  17.418  0.00  0.00    +0.000 A 
ENDBRANCH   5  18
TORSDOF 1
ENDMDL
MODEL 7
REMARK VINA RESULT:      -6.6      6.403      9.359
REMARK  Name = 
REMARK  2 active torsions:
REMARK  status: ('A' for Active; 'I' for Inactive)
REMARK    1  A    between atoms: C_1  and  C_2
REMARK    2  A    between atoms: N_5  and  C_6
REMARK                            x       y       z     vdW  Elec       q    Type
REMARK                         _______ _______ _______ _____ _____    ______ ____
ROOT
ATOM      1  C   UNL     1      -1.884  11.824  19.405  0.00  0.00    +0.000 C 
ATOM      2  C   UNL     1      -1.032  10.723  20.025  0.00  0.00    +0.000 C 
ATOM      3  C   UNL     1      -0.100  10.103  19.013  0.00  0.00    +0.000 C 
ATOM      4  O   UNL     1      -0.362   9.984  17.825  0.00  0.00    +0.000 OA
ATOM      5  N   UNL     1       0.986   9.604  19.743  0.00  0.00    +0.000 N 
ATOM      6  N   UNL     1       1.035  10.110  21.060  0.00  0.00    +0.000 NA
ATOM      7  C   UNL     1      -0.090  11.071  21.206  0.00  0.00    +0.000 C 
ATOM      8  C   UNL     1      -0.711  10.688  22.571  0.00  0.00    +0.000 C 
ATOM      9  C   UNL     1      -1.795  11.661  22.999  0.00  0.00    +0.000 C 
ATOM     10  C   UNL     1      -1.218  13.060  23.161  0.00  0.00    +0.000 C 
ATOM     11  C   UNL     1      -0.272  13.475  22.058  0.00  0.00    +0.000 A 
ATOM     12  C   UNL     1       0.028  14.843  21.938  0.00  0.00    +0.000 A 
ATOM     13  C   UNL     1       0.901  15.300  20.956  0.00  0.00    +0.000 A 
ATOM     14  C   UNL     1       1.510  14.393  20.098  0.00  0.00    +0.000 A 
ATOM     15  C   UNL     1       1.236  13.027  20.214  0.00  0.00    +0.000 A 
ATOM     16  C   UNL     1       0.337  12.543  21.186  0.00  0.00    +0.000 A 
ATOM     17  H   UNL     1       1.919  10.608  21.180  0.00  0.00    +0.000 HD
ENDROOT
BRANCH   5  18
ATOM     18  C   UNL     1       1.789   8.489  19.366  0.00  0.00    +0.000 A 
ATOM     19  C   UNL     1       2.476   8.453  18.142  0.00  0.00    +0.000 A 
ATOM     20  C   UNL     1       3.167   7.309  17.733  0.00  0.00    +0.000 A 
ATOM     21  C   UNL     1       3.189   6.178  18.539  0.00  0.00    +0.000 A 
ATOM     22  C   UNL     1       2.536   6.198  19.768  0.00  0.00    +0.000 A 
ATOM     23  C   UNL     1       1.852   7.347  20.180  0.00  0.00    +0.000 A 
ENDBRANCH   5  18
TORSDOF 1
ENDMDL
MODEL 8
REMARK VINA RESULT:      -6.6      6.443      9.411
REMARK  Name = 
REMARK  2 active torsions:
REMARK  status: ('A' for Active; 'I' for Inactive)
REMARK    1  A    between atoms: C_1  and  C_2
REMARK    2  A    between atoms: N_5  and  C_6
REMARK                            x       y       z     vdW  Elec       q    Type
REMARK                         _______ _______ _______ _____ _____    ______ ____
ROOT
ATOM      1  C   UNL     1      -1.920  11.948  19.401  0.00  0.00    +0.000 C 
ATOM      2  C   UNL     1      -1.082  10.820  19.993  0.00  0.00    +0.000 C 
ATOM      3  C   UNL     1      -0.183  10.192  18.957  0.00  0.00    +0.000 C 
ATOM      4  O   UNL     1      -0.469  10.093  17.773  0.00  0.00    +0.000 OA
ATOM      5  N   UNL     1       0.904   9.659  19.661  0.00  0.00    +0.000 N 
ATOM      6  N   UNL     1       0.988  10.149  20.982  0.00  0.00    +0.000 NA
ATOM      7  C   UNL     1      -0.111  11.132  21.160  0.00  0.00    +0.000 C 
ATOM      8  C   UNL     1      -0.716  10.747  22.531  0.00  0.00    +0.000 C 
ATOM      9  C   UNL     1      -1.771  11.739  22.991  0.00  0.00    +0.000 C 
ATOM     10  C   UNL     1      -1.159  13.123  23.158  0.00  0.00    +0.000 C 
ATOM     11  C   UNL     1      -0.223  13.530  22.043  0.00  0.00    +0.000 A 
ATOM     12  C   UNL     1       0.106  14.892  21.934  0.00  0.00    +0.000 A 
ATOM     13  C   UNL     1       0.971  15.341  20.942  0.00  0.00    +0.000 A 
ATOM     14  C   UNL     1       1.543  14.430  20.062  0.00  0.00    +0.000 A 
ATOM     15  C   UNL     1       1.241  13.070  20.167  0.00  0.00    +0.000 A 
ATOM     16  C   UNL     1       0.348  12.594  21.149  0.00  0.00    +0.000 A 
ATOM     17  H   UNL     1       1.886  10.625  21.092  0.00  0.00    +0.000 HD
ENDROOT
BRANCH   5  18
ATOM     18  C   UNL     1       1.674   8.531  19.256  0.00  0.00    +0.000 A 
ATOM     19  C   UNL     1       1.831   7.407  20.083  0.00  0.00    +0.000 A 
ATOM     20  C   UNL     1       2.681   6.356  19.723  0.00  0.00    +0.000 A 
ATOM     21  C   UNL     1       3.388   6.405  18.529  0.00  0.00    +0.000 A 
ATOM     22  C   UNL     1       3.230   7.498  17.681  0.00  0.00    +0.000 A 
ATOM     23  C   UNL     1       2.372   8.544  18.038  0.00  0.00    +0.000 A 
ENDBRANCH   5  18
TORSDOF 1
ENDMDL
MODEL 9
REMARK VINA RESULT:      -6.5      9.537     12.104
REMARK  Name = 
REMARK  2 active torsions:
REMARK  status: ('A' for Active; 'I' for Inactive)
REMARK    1  A    between atoms: C_1  and  C_2
REMARK    2  A    between atoms: N_5  and  C_6
REMARK                            x       y       z     vdW  Elec       q    Type
REMARK                         _______ _______ _______ _____ _____    ______ ____
ROOT
ATOM      1  C   UNL     1       9.707  14.210  20.618  0.00  0.00    +0.000 C 
ATOM      2  C   UNL     1       8.527  13.848  19.724  0.00  0.00    +0.000 C 
ATOM      3  C   UNL     1       7.441  14.893  19.785  0.00  0.00    +0.000 C 
ATOM      4  O   UNL     1       7.187  15.558  20.778  0.00  0.00    +0.000 OA
ATOM      5  N   UNL     1       6.756  14.809  18.565  0.00  0.00    +0.000 N 
ATOM      6  N   UNL     1       7.465  14.070  17.594  0.00  0.00    +0.000 NA
ATOM      7  C   UNL     1       8.759  13.666  18.203  0.00  0.00    +0.000 C 
ATOM      8  C   UNL     1       8.887  12.174  17.813  0.00  0.00    +0.000 C 
ATOM      9  C   UNL     1      10.235  11.594  18.204  0.00  0.00    +0.000 C 
ATOM     10  C   UNL     1      11.357  12.329  17.485  0.00  0.00    +0.000 C 
ATOM     11  C   UNL     1      11.200  13.832  17.457  0.00  0.00    +0.000 A 
ATOM     12  C   UNL     1      12.332  14.599  17.133  0.00  0.00    +0.000 A 
ATOM     13  C   UNL     1      12.262  15.987  17.074  0.00  0.00    +0.000 A 
ATOM     14  C   UNL     1      11.052  16.627  17.310  0.00  0.00    +0.000 A 
ATOM     15  C   UNL     1       9.912  15.879  17.617  0.00  0.00    +0.000 A 
ATOM     16  C   UNL     1       9.964  14.473  17.706  0.00  0.00    +0.000 A 
ATOM     17  H   UNL     1       7.645  14.680  16.794  0.00  0.00    +0.000 HD
ENDROOT
BRANCH   5  18
ATOM     18  C   UNL     1       5.384  15.136  18.368  0.00  0.00    +0.000 A 
ATOM     19  C   UNL     1       4.926  16.463  18.416  0.00  0.00    +0.000 A 
ATOM     20  C   UNL     1       3.562  16.761  18.335  0.00  0.00    +0.000 A 
ATOM     21  C   UNL     1       2.629  15.742  18.200  0.00  0.00    +0.000 A 
ATOM     22  C   UNL     1       3.061  14.421  18.125  0.00  0.00    +0.000 A 
ATOM     23  C   UNL     1       4.427  14.124  18.197  0.00  0.00    +0.000 A 
ENDBRANCH   5  18
TORSDOF 1
ENDMDL
