MODEL 1
REMARK VINA RESULT:      -8.7      0.000      0.000
REMARK  Name = 
REMARK  4 active torsions:
REMARK  status: ('A' for Active; 'I' for Inactive)
REMARK    1  A    between atoms: C_4  and  C_5
REMARK    2  A    between atoms: C_7  and  C_8
REMARK    3  A    between atoms: C_8  and  N_9
REMARK    4  A    between atoms: C_15  and  C_16
REMARK                            x       y       z     vdW  Elec       q    Type
REMARK                         _______ _______ _______ _____ _____    ______ ____
ROOT
ATOM      1  C   UNL     1       5.036   4.524  16.201  0.00  0.00    +0.000 A 
ATOM      2  C   UNL     1       4.783   3.352  16.938  0.00  0.00    +0.000 A 
ATOM      3  C   UNL     1       3.987   3.360  18.091  0.00  0.00    +0.000 A 
ATOM      4  C   UNL     1       3.485   4.581  18.559  0.00  0.00    +0.000 A 
ATOM      5  C   UNL     1       3.703   5.785  17.866  0.00  0.00    +0.000 A 
ATOM      6  C   UNL     1       4.497   5.728  16.703  0.00  0.00    +0.000 A 
ENDROOT
BRANCH   1  10
ATOM      7  C   UNL     1       7.175   4.387  12.450  0.00  0.00    +0.000 A 
ATOM      8  C   UNL     1       5.972   3.710  12.595  0.00  0.00    +0.000 A 
ATOM      9  C   UNL     1       5.281   3.764  13.811  0.00  0.00    +0.000 A 
ATOM     10  C   UNL     1       5.784   4.476  14.919  0.00  0.00    +0.000 A 
ATOM     11  C   UNL     1       7.003   5.154  14.739  0.00  0.00    +0.000 A 
ATOM     12  C   UNL     1       7.689   5.116  13.519  0.00  0.00    +0.000 A 
ENDBRANCH   1  10
BRANCH   5  13
ATOM     13  C   UNL     1       3.010   7.029  18.291  0.00  0.00    +0.000 A 
ATOM     14  C   UNL     1       2.408   7.147  19.559  0.00  0.00    +0.000 A 
ATOM     15  C   UNL     1       1.624   8.256  19.895  0.00  0.00    +0.000 A 
ATOM     16  C   UNL     1       1.448   9.290  18.981  0.00  0.00    +0.000 A 
ATOM     17  C   UNL     1       2.071   9.223  17.740  0.00  0.00    +0.000 A 
ATOM     18  C   UNL     1       2.840   8.105  17.400  0.00  0.00    +0.000 A 
ENDBRANCH   5  13
BRANCH   3  19
ATOM     19  C   UNL     1       3.581   2.069  18.754  0.00  0.00    +0.000 C 
BRANCH  19  20
ATOM     20  N   UNL     1       2.805   2.268  19.960  0.00  0.00    +0.000 N 
ATOM     21  C   UNL     1       1.461   2.519  20.027  0.00  0.00    +0.000 A 
ATOM     22  C   UNL     1       1.224   2.830  21.347  0.00  0.00    +0.000 A 
ATOM     23  N   UNL     1       2.383   2.769  22.076  0.00  0.00    +0.000 NA
ATOM     24  C   UNL     1       3.316   2.429  21.217  0.00  0.00    +0.000 A 
ENDBRANCH  19  20
ENDBRANCH   3  19
TORSDOF 4
ENDMDL
MODEL 2
REMARK VINA RESULT:      -8.5      3.268      7.212
REMARK  Name = 
REMARK  4 active torsions:
REMARK  status: ('A' for Active; 'I' for Inactive)
REMARK    1  A    between atoms: C_4  and  C_5
REMARK    2  A    between atoms: C_7  and  C_8
REMARK    3  A    between atoms: C_8  and  N_9
REMARK    4  A    between atoms: C_15  and  C_16
REMARK                            x       y       z     vdW  Elec       q    Type
REMARK                         _______ _______ _______ _____ _____    ______ ____
ROOT
ATOM      1  C   UNL     1       4.649   4.109  17.916  0.00  0.00    +0.000 A 
ATOM      2  C   UNL     1       5.659   4.706  18.693  0.00  0.00    +0.000 A 
ATOM      3  C   UNL     1       6.861   5.153  18.129  0.00  0.00    +0.000 A 
ATOM      4  C   UNL     1       7.089   4.938  16.764  0.00  0.00    +0.000 A 
ATOM      5  C   UNL     1       6.119   4.349  15.935  0.00  0.00    +0.000 A 
ATOM      6  C   UNL     1       4.918   3.928  16.543  0.00  0.00    +0.000 A 
ENDROOT
BRANCH   1  10
ATOM      7  C   UNL     1       0.823   3.103  19.650  0.00  0.00    +0.000 A 
ATOM      8  C   UNL     1       1.580   4.139  20.179  0.00  0.00    +0.000 A 
ATOM      9  C   UNL     1       2.816   4.463  19.609  0.00  0.00    +0.000 A 
ATOM     10  C   UNL     1       3.337   3.750  18.510  0.00  0.00    +0.000 A 
ATOM     11  C   UNL     1       2.543   2.708  17.995  0.00  0.00    +0.000 A 
ATOM     12  C   UNL     1       1.299   2.390  18.553  0.00  0.00    +0.000 A 
ENDBRANCH   1  10
BRANCH   5  13
ATOM     13  C   UNL     1       6.322   4.299  14.463  0.00  0.00    +0.000 A 
ATOM     14  C   UNL     1       5.547   3.463  13.635  0.00  0.00    +0.000 A 
ATOM     15  C   UNL     1       5.844   3.302  12.278  0.00  0.00    +0.000 A 
ATOM     16  C   UNL     1       6.906   3.997  11.708  0.00  0.00    +0.000 A 
ATOM     17  C   UNL     1       7.657   4.865  12.491  0.00  0.00    +0.000 A 
ATOM     18  C   UNL     1       7.369   5.012  13.852  0.00  0.00    +0.000 A 
ENDBRANCH   5  13
BRANCH   3  19
ATOM     19  C   UNL     1       7.844   5.951  18.946  0.00  0.00    +0.000 C 
BRANCH  19  20
ATOM     20  N   UNL     1       8.036   7.298  18.450  0.00  0.00    +0.000 N 
ATOM     21  C   UNL     1       8.798   8.275  19.034  0.00  0.00    +0.000 A 
ATOM     22  C   UNL     1       8.514   9.418  18.321  0.00  0.00    +0.000 A 
ATOM     23  N   UNL     1       7.609   9.156  17.324  0.00  0.00    +0.000 NA
ATOM     24  C   UNL     1       7.341   7.876  17.426  0.00  0.00    +0.000 A 
ENDBRANCH  19  20
ENDBRANCH   3  19
TORSDOF 4
ENDMDL
MODEL 3
REMARK VINA RESULT:      -8.4      0.601      1.510
REMARK  Name = 
REMARK  4 active torsions:
REMARK  status: ('A' for Active; 'I' for Inactive)
REMARK    1  A    between atoms: C_4  and  C_5
REMARK    2  A    between atoms: C_7  and  C_8
REMARK    3  A    between atoms: C_8  and  N_9
REMARK    4  A    between atoms: C_15  and  C_16
REMARK                            x       y       z     vdW  Elec       q    Type
REMARK                         _______ _______ _______ _____ _____    ______ ____
ROOT
ATOM      1  C   UNL     1       5.096   4.842  16.576  0.00  0.00    +0.000 A 
ATOM      2  C   UNL     1       5.141   3.809  17.530  0.00  0.00    +0.000 A 
ATOM      3  C   UNL     1       4.454   3.897  18.748  0.00  0.00    +0.000 A 
ATOM      4  C   UNL     1       3.759   5.075  19.051  0.00  0.00    +0.000 A 
ATOM      5  C   UNL     1       3.677   6.141  18.138  0.00  0.00    +0.000 A 
ATOM      6  C   UNL     1       4.370   6.003  16.918  0.00  0.00    +0.000 A 
ENDROOT
BRANCH   1  10
ATOM      7  C   UNL     1       6.982   4.374  12.717  0.00  0.00    +0.000 A 
ATOM      8  C   UNL     1       7.593   5.131  13.708  0.00  0.00    +0.000 A 
ATOM      9  C   UNL     1       6.979   5.273  14.957  0.00  0.00    +0.000 A 
ATOM     10  C   UNL     1       5.731   4.682  15.243  0.00  0.00    +0.000 A 
ATOM     11  C   UNL     1       5.140   3.919  14.219  0.00  0.00    +0.000 A 
ATOM     12  C   UNL     1       5.759   3.762  12.973  0.00  0.00    +0.000 A 
ENDBRANCH   1  10
BRANCH   5  13
ATOM     13  C   UNL     1       2.787   7.298  18.416  0.00  0.00    +0.000 A 
ATOM     14  C   UNL     1       2.621   8.346  17.491  0.00  0.00    +0.000 A 
ATOM     15  C   UNL     1       1.909   9.505  17.819  0.00  0.00    +0.000 A 
ATOM     16  C   UNL     1       1.319   9.630  19.073  0.00  0.00    +0.000 A 
ATOM     17  C   UNL     1       1.426   8.591  19.989  0.00  0.00    +0.000 A 
ATOM     18  C   UNL     1       2.152   7.440  19.665  0.00  0.00    +0.000 A 
ENDBRANCH   5  13
BRANCH   3  19
ATOM     19  C   UNL     1       4.368   2.708  19.670  0.00  0.00    +0.000 C 
BRANCH  19  20
ATOM     20  N   UNL     1       3.071   2.566  20.297  0.00  0.00    +0.000 N 
ATOM     21  C   UNL     1       1.863   2.508  19.654  0.00  0.00    +0.000 A 
ATOM     22  C   UNL     1       0.924   2.575  20.659  0.00  0.00    +0.000 A 
ATOM     23  N   UNL     1       1.531   2.666  21.885  0.00  0.00    +0.000 NA
ATOM     24  C   UNL     1       2.819   2.658  21.636  0.00  0.00    +0.000 A 
ENDBRANCH  19  20
ENDBRANCH   3  19
TORSDOF 4
ENDMDL
MODEL 4
REMARK VINA RESULT:      -8.3      2.838      5.914
REMARK  Name = 
REMARK  4 active torsions:
REMARK  status: ('A' for Active; 'I' for Inactive)
REMARK    1  A    between atoms: C_4  and  C_5
REMARK    2  A    between atoms: C_7  and  C_8
REMARK    3  A    between atoms: C_8  and  N_9
REMARK    4  A    between atoms: C_15  and  C_16
REMARK                            x       y       z     vdW  Elec       q    Type
REMARK                         _______ _______ _______ _____ _____    ______ ____
ROOT
ATOM      1  C   UNL     1       2.485   5.857  18.776  0.00  0.00    +0.000 A 
ATOM      2  C   UNL     1       3.535   5.749  17.845  0.00  0.00    +0.000 A 
ATOM      3  C   UNL     1       4.005   6.858  17.128  0.00  0.00    +0.000 A 
ATOM      4  C   UNL     1       3.365   8.093  17.295  0.00  0.00    +0.000 A 
ATOM      5  C   UNL     1       2.312   8.263  18.211  0.00  0.00    +0.000 A 
ATOM      6  C   UNL     1       1.883   7.125  18.922  0.00  0.00    +0.000 A 
ENDROOT
BRANCH   1  10
ATOM      7  C   UNL     1       1.313   2.461  21.175  0.00  0.00    +0.000 A 
ATOM      8  C   UNL     1       0.930   2.542  19.843  0.00  0.00    +0.000 A 
ATOM      9  C   UNL     1       1.318   3.642  19.070  0.00  0.00    +0.000 A 
ATOM     10  C   UNL     1       2.080   4.698  19.612  0.00  0.00    +0.000 A 
ATOM     11  C   UNL     1       2.455   4.584  20.963  0.00  0.00    +0.000 A 
ATOM     12  C   UNL     1       2.081   3.477  21.735  0.00  0.00    +0.000 A 
ENDBRANCH   1  10
BRANCH   5  13
ATOM     13  C   UNL     1       1.778   9.622  18.492  0.00  0.00    +0.000 A 
ATOM     14  C   UNL     1       2.362  10.778  17.940  0.00  0.00    +0.000 A 
ATOM     15  C   UNL     1       1.956  12.059  18.330  0.00  0.00    +0.000 A 
ATOM     16  C   UNL     1       0.934  12.214  19.261  0.00  0.00    +0.000 A 
ATOM     17  C   UNL     1       0.307  11.091  19.786  0.00  0.00    +0.000 A 
ATOM     18  C   UNL     1       0.726   9.811  19.407  0.00  0.00    +0.000 A 
ENDBRANCH   5  13
BRANCH   3  19
ATOM     19  C   UNL     1       5.244   6.754  16.277  0.00  0.00    +0.000 C 
BRANCH  19  20
ATOM     20  N   UNL     1       6.344   6.096  16.952  0.00  0.00    +0.000 N 
ATOM     21  C   UNL     1       6.764   4.808  16.750  0.00  0.00    +0.000 A 
ATOM     22  C   UNL     1       7.688   4.578  17.744  0.00  0.00    +0.000 A 
ATOM     23  N   UNL     1       7.841   5.690  18.532  0.00  0.00    +0.000 NA
ATOM     24  C   UNL     1       7.021   6.585  18.033  0.00  0.00    +0.000 A 
ENDBRANCH  19  20
ENDBRANCH   3  19
TORSDOF 4
ENDMDL
MODEL 5
REMARK VINA RESULT:      -8.2      2.736      6.903
REMARK  Name = 
REMARK  4 active torsions:
REMARK  status: ('A' for Active; 'I' for Inactive)
REMARK    1  A    between atoms: C_4  and  C_5
REMARK    2  A    between atoms: C_7  and  C_8
REMARK    3  A    between atoms: C_8  and  N_9
REMARK    4  A    between atoms: C_15  and  C_16
REMARK                            x       y       z     vdW  Elec       q    Type
REMARK                         _______ _______ _______ _____ _____    ______ ____
ROOT
ATOM      1  C   UNL     1       2.248   8.492  18.399  0.00  0.00    +0.000 A 
ATOM      2  C   UNL     1       3.296   8.318  17.477  0.00  0.00    +0.000 A 
ATOM      3  C   UNL     1       3.932   7.081  17.302  0.00  0.00    +0.000 A 
ATOM      4  C   UNL     1       3.556   6.007  18.119  0.00  0.00    +0.000 A 
ATOM      5  C   UNL     1       2.516   6.118  19.058  0.00  0.00    +0.000 A 
ATOM      6  C   UNL     1       1.895   7.377  19.188  0.00  0.00    +0.000 A 
ENDROOT
BRANCH   1  10
ATOM      7  C   UNL     1       0.075  12.215  18.681  0.00  0.00    +0.000 A 
ATOM      8  C   UNL     1      -0.583  11.006  18.857  0.00  0.00    +0.000 A 
ATOM      9  C   UNL     1       0.128   9.804  18.771  0.00  0.00    +0.000 A 
ATOM     10  C   UNL     1       1.509   9.777  18.486  0.00  0.00    +0.000 A 
ATOM     11  C   UNL     1       2.147  11.020  18.315  0.00  0.00    +0.000 A 
ATOM     12  C   UNL     1       1.442  12.225  18.417  0.00  0.00    +0.000 A 
ENDBRANCH   1  10
BRANCH   5  13
ATOM     13  C   UNL     1       2.026   4.914  19.779  0.00  0.00    +0.000 A 
ATOM     14  C   UNL     1       2.379   4.656  21.118  0.00  0.00    +0.000 A 
ATOM     15  C   UNL     1       2.046   3.448  21.741  0.00  0.00    +0.000 A 
ATOM     16  C   UNL     1       1.324   2.481  21.049  0.00  0.00    +0.000 A 
ATOM     17  C   UNL     1       0.921   2.729  19.742  0.00  0.00    +0.000 A 
ATOM     18  C   UNL     1       1.270   3.930  19.115  0.00  0.00    +0.000 A 
ENDBRANCH   5  13
BRANCH   3  19
ATOM     19  C   UNL     1       4.921   6.875  16.185  0.00  0.00    +0.000 C 
BRANCH  19  20
ATOM     20  N   UNL     1       6.087   6.119  16.589  0.00  0.00    +0.000 N 
ATOM     21  C   UNL     1       6.377   4.827  16.238  0.00  0.00    +0.000 A 
ATOM     22  C   UNL     1       7.462   4.485  17.013  0.00  0.00    +0.000 A 
ATOM     23  N   UNL     1       7.837   5.533  17.814  0.00  0.00    +0.000 NA
ATOM     24  C   UNL     1       6.993   6.500  17.538  0.00  0.00    +0.000 A 
ENDBRANCH  19  20
ENDBRANCH   3  19
TORSDOF 4
ENDMDL
MODEL 6
REMARK VINA RESULT:      -8.2      2.734      5.972
REMARK  Name = 
REMARK  4 active torsions:
REMARK  status: ('A' for Active; 'I' for Inactive)
REMARK    1  A    between atoms: C_4  and  C_5
REMARK    2  A    between atoms: C_7  and  C_8
REMARK    3  A    between atoms: C_8  and  N_9
REMARK    4  A    between atoms: C_15  and  C_16
REMARK                            x       y       z     vdW  Elec       q    Type
REMARK                         _______ _______ _______ _____ _____    ______ ____
ROOT
ATOM      1  C   UNL     1       2.503   5.882  18.780  0.00  0.00    +0.000 A 
ATOM      2  C   UNL     1       3.605   5.811  17.907  0.00  0.00    +0.000 A 
ATOM      3  C   UNL     1       4.079   6.936  17.220  0.00  0.00    +0.000 A 
ATOM      4  C   UNL     1       3.394   8.150  17.355  0.00  0.00    +0.000 A 
ATOM      5  C   UNL     1       2.288   8.285  18.212  0.00  0.00    +0.000 A 
ATOM      6  C   UNL     1       1.855   7.130  18.896  0.00  0.00    +0.000 A 
ENDROOT
BRANCH   1  10
ATOM      7  C   UNL     1       1.293   2.490  21.165  0.00  0.00    +0.000 A 
ATOM      8  C   UNL     1       2.077   3.492  21.721  0.00  0.00    +0.000 A 
ATOM      9  C   UNL     1       2.460   4.591  20.944  0.00  0.00    +0.000 A 
ATOM     10  C   UNL     1       2.089   4.708  19.589  0.00  0.00    +0.000 A 
ATOM     11  C   UNL     1       1.293   3.677  19.057  0.00  0.00    +0.000 A 
ATOM     12  C   UNL     1       0.894   2.583  19.835  0.00  0.00    +0.000 A 
ENDBRANCH   1  10
BRANCH   5  13
ATOM     13  C   UNL     1       1.697   9.625  18.468  0.00  0.00    +0.000 A 
ATOM     14  C   UNL     1       0.377   9.777  18.934  0.00  0.00    +0.000 A 
ATOM     15  C   UNL     1      -0.225  11.037  19.023  0.00  0.00    +0.000 A 
ATOM     16  C   UNL     1       0.490  12.178  18.677  0.00  0.00    +0.000 A 
ATOM     17  C   UNL     1       1.810  12.062  18.260  0.00  0.00    +0.000 A 
ATOM     18  C   UNL     1       2.405  10.800  18.155  0.00  0.00    +0.000 A 
ENDBRANCH   5  13
BRANCH   3  19
ATOM     19  C   UNL     1       5.366   6.874  16.438  0.00  0.00    +0.000 C 
BRANCH  19  20
ATOM     20  N   UNL     1       6.311   5.917  16.974  0.00  0.00    +0.000 N 
ATOM     21  C   UNL     1       6.915   5.975  18.202  0.00  0.00    +0.000 A 
ATOM     22  C   UNL     1       7.864   4.978  18.177  0.00  0.00    +0.000 A 
ATOM     23  N   UNL     1       7.845   4.319  16.974  0.00  0.00    +0.000 NA
ATOM     24  C   UNL     1       6.903   4.905  16.273  0.00  0.00    +0.000 A 
ENDBRANCH  19  20
ENDBRANCH   3  19
TORSDOF 4
ENDMDL
MODEL 7
REMARK VINA RESULT:      -8.2      3.277      7.170
REMARK  Name = 
REMARK  4 active torsions:
REMARK  status: ('A' for Active; 'I' for Inactive)
REMARK    1  A    between atoms: C_4  and  C_5
REMARK    2  A    between atoms: C_7  and  C_8
REMARK    3  A    between atoms: C_8  and  N_9
REMARK    4  A    between atoms: C_15  and  C_16
REMARK                            x       y       z     vdW  Elec       q    Type
REMARK                         _______ _______ _______ _____ _____    ______ ____
ROOT
ATOM      1  C   UNL     1       4.676   4.119  17.910  0.00  0.00    +0.000 A 
ATOM      2  C   UNL     1       5.662   4.741  18.697  0.00  0.00    +0.000 A 
ATOM      3  C   UNL     1       6.885   5.162  18.157  0.00  0.00    +0.000 A 
ATOM      4  C   UNL     1       7.157   4.894  16.809  0.00  0.00    +0.000 A 
ATOM      5  C   UNL     1       6.211   4.276  15.971  0.00  0.00    +0.000 A 
ATOM      6  C   UNL     1       4.989   3.884  16.554  0.00  0.00    +0.000 A 
ENDROOT
BRANCH   1  10
ATOM      7  C   UNL     1       0.806   3.114  19.546  0.00  0.00    +0.000 A 
ATOM      8  C   UNL     1       1.356   2.346  18.529  0.00  0.00    +0.000 A 
ATOM      9  C   UNL     1       2.613   2.674  18.008  0.00  0.00    +0.000 A 
ATOM     10  C   UNL     1       3.343   3.787  18.473  0.00  0.00    +0.000 A 
ATOM     11  C   UNL     1       2.759   4.543  19.507  0.00  0.00    +0.000 A 
ATOM     12  C   UNL     1       1.508   4.208  20.041  0.00  0.00    +0.000 A 
ENDBRANCH   1  10
BRANCH   5  13
ATOM     13  C   UNL     1       6.463   4.169  14.510  0.00  0.00    +0.000 A 
ATOM     14  C   UNL     1       7.464   4.926  13.872  0.00  0.00    +0.000 A 
ATOM     15  C   UNL     1       7.593   4.941  12.479  0.00  0.00    +0.000 A 
ATOM     16  C   UNL     1       6.741   4.173  11.691  0.00  0.00    +0.000 A 
ATOM     17  C   UNL     1       5.775   3.379  12.297  0.00  0.00    +0.000 A 
ATOM     18  C   UNL     1       5.637   3.380  13.689  0.00  0.00    +0.000 A 
ENDBRANCH   5  13
BRANCH   3  19
ATOM     19  C   UNL     1       7.844   5.986  18.975  0.00  0.00    +0.000 C 
BRANCH  19  20
ATOM     20  N   UNL     1       8.032   7.325  18.455  0.00  0.00    +0.000 N 
ATOM     21  C   UNL     1       8.800   8.311  19.014  0.00  0.00    +0.000 A 
ATOM     22  C   UNL     1       8.509   9.442  18.285  0.00  0.00    +0.000 A 
ATOM     23  N   UNL     1       7.595   9.164  17.301  0.00  0.00    +0.000 NA
ATOM     24  C   UNL     1       7.327   7.885  17.428  0.00  0.00    +0.000 A 
ENDBRANCH  19  20
ENDBRANCH   3  19
TORSDOF 4
ENDMDL
MODEL 8
REMARK VINA RESULT:      -8.2      3.116      6.128
REMARK  Name = 
REMARK  4 active torsions:
REMARK  status: ('A' for Active; 'I' for Inactive)
REMARK    1  A    between atoms: C_4  and  C_5
REMARK    2  A    between atoms: C_7  and  C_8
REMARK    3  A    between atoms: C_8  and  N_9
REMARK    4  A    between atoms: C_15  and  C_16
REMARK                            x       y       z     vdW  Elec       q    Type
REMARK                         _______ _______ _______ _____ _____    ______ ____
ROOT
ATOM      1  C   UNL     1       2.544   5.846  18.696  0.00  0.00    +0.000 A 
ATOM      2  C   UNL     1       3.671   5.737  17.861  0.00  0.00    +0.000 A 
ATOM      3  C   UNL     1       4.166   6.831  17.139  0.00  0.00    +0.000 A 
ATOM      4  C   UNL     1       3.477   8.049  17.199  0.00  0.00    +0.000 A 
ATOM      5  C   UNL     1       2.346   8.220  18.016  0.00  0.00    +0.000 A 
ATOM      6  C   UNL     1       1.893   7.097  18.737  0.00  0.00    +0.000 A 
ENDROOT
BRANCH   1  10
ATOM      7  C   UNL     1       1.265   2.562  21.195  0.00  0.00    +0.000 A 
ATOM      8  C   UNL     1       2.091   3.552  21.710  0.00  0.00    +0.000 A 
ATOM      9  C   UNL     1       2.496   4.617  20.897  0.00  0.00    +0.000 A 
ATOM     10  C   UNL     1       2.106   4.708  19.545  0.00  0.00    +0.000 A 
ATOM     11  C   UNL     1       1.267   3.690  19.055  0.00  0.00    +0.000 A 
ATOM     12  C   UNL     1       0.847   2.633  19.870  0.00  0.00    +0.000 A 
ENDBRANCH   1  10
BRANCH   5  13
ATOM     13  C   UNL     1       1.748   9.570  18.193  0.00  0.00    +0.000 A 
ATOM     14  C   UNL     1       2.496  10.745  17.991  0.00  0.00    +0.000 A 
ATOM     15  C   UNL     1       1.979  12.005  18.310  0.00  0.00    +0.000 A 
ATOM     16  C   UNL     1       0.686  12.122  18.811  0.00  0.00    +0.000 A 
ATOM     17  C   UNL     1      -0.093  10.983  18.975  0.00  0.00    +0.000 A 
ATOM     18  C   UNL     1       0.434   9.723  18.672  0.00  0.00    +0.000 A 
ENDBRANCH   5  13
BRANCH   3  19
ATOM     19  C   UNL     1       5.475   6.735  16.399  0.00  0.00    +0.000 C 
BRANCH  19  20
ATOM     20  N   UNL     1       6.626   6.726  17.278  0.00  0.00    +0.000 N 
ATOM     21  C   UNL     1       6.985   5.718  18.133  0.00  0.00    +0.000 A 
ATOM     22  C   UNL     1       8.010   6.242  18.888  0.00  0.00    +0.000 A 
ATOM     23  N   UNL     1       8.282   7.532  18.509  0.00  0.00    +0.000 NA
ATOM     24  C   UNL     1       7.436   7.795  17.541  0.00  0.00    +0.000 A 
ENDBRANCH  19  20
ENDBRANCH   3  19
TORSDOF 4
ENDMDL
MODEL 9
REMARK VINA RESULT:      -8.1      2.543      5.992
REMARK  Name = 
REMARK  4 active torsions:
REMARK  status: ('A' for Active; 'I' for Inactive)
REMARK    1  A    between atoms: C_4  and  C_5
REMARK    2  A    between atoms: C_7  and  C_8
REMARK    3  A    between atoms: C_8  and  N_9
REMARK    4  A    between atoms: C_15  and  C_16
REMARK                            x       y       z     vdW  Elec       q    Type
REMARK                         _______ _______ _______ _____ _____    ______ ____
ROOT
ATOM      1  C   UNL     1       2.603   5.948  18.786  0.00  0.00    +0.000 A 
ATOM      2  C   UNL     1       3.837   5.922  18.110  0.00  0.00    +0.000 A 
ATOM      3  C   UNL     1       4.348   7.052  17.457  0.00  0.00    +0.000 A 
ATOM      4  C   UNL     1       3.574   8.219  17.420  0.00  0.00    +0.000 A 
ATOM      5  C   UNL     1       2.334   8.307  18.076  0.00  0.00    +0.000 A 
ATOM      6  C   UNL     1       1.867   7.151  18.734  0.00  0.00    +0.000 A 
ENDROOT
BRANCH   1  10
ATOM      7  C   UNL     1       1.247   2.520  21.038  0.00  0.00    +0.000 A 
ATOM      8  C   UNL     1       0.896   2.663  19.702  0.00  0.00    +0.000 A 
ATOM      9  C   UNL     1       1.344   3.773  18.977  0.00  0.00    +0.000 A 
ATOM     10  C   UNL     1       2.135   4.778  19.571  0.00  0.00    +0.000 A 
ATOM     11  C   UNL     1       2.476   4.602  20.925  0.00  0.00    +0.000 A 
ATOM     12  C   UNL     1       2.042   3.485  21.649  0.00  0.00    +0.000 A 
ENDBRANCH   1  10
BRANCH   5  13
ATOM     13  C   UNL     1       1.626   9.611  18.167  0.00  0.00    +0.000 A 
ATOM     14  C   UNL     1       2.323  10.834  18.200  0.00  0.00    +0.000 A 
ATOM     15  C   UNL     1       1.665  12.044  18.443  0.00  0.00    +0.000 A 
ATOM     16  C   UNL     1       0.287  12.064  18.629  0.00  0.00    +0.000 A 
ATOM     17  C   UNL     1      -0.434  10.878  18.554  0.00  0.00    +0.000 A 
ATOM     18  C   UNL     1       0.229   9.667  18.328  0.00  0.00    +0.000 A 
ENDBRANCH   5  13
BRANCH   3  19
ATOM     19  C   UNL     1       5.748   7.052  16.900  0.00  0.00    +0.000 C 
BRANCH  19  20
ATOM     20  N   UNL     1       6.049   5.871  16.118  0.00  0.00    +0.000 N 
ATOM     21  C   UNL     1       5.414   5.475  14.972  0.00  0.00    +0.000 A 
ATOM     22  C   UNL     1       5.905   4.215  14.713  0.00  0.00    +0.000 A 
ATOM     23  N   UNL     1       6.819   3.844  15.665  0.00  0.00    +0.000 NA
ATOM     24  C   UNL     1       6.885   4.858  16.496  0.00  0.00    +0.000 A 
ENDBRANCH  19  20
ENDBRANCH   3  19
TORSDOF 4
ENDMDL
