MODEL 1
REMARK VINA RESULT:      -8.1      0.000      0.000
REMARK  Name = 
REMARK  9 active torsions:
REMARK  status: ('A' for Active; 'I' for Inactive)
REMARK    1  A    between atoms: C_1  and  C_2
REMARK    2  A    between atoms: C_2  and  N_3
REMARK    3  A    between atoms: N_3  and  C_4
REMARK    4  A    between atoms: N_3  and  C_5
REMARK    5  A    between atoms: N_3  and  C_6
REMARK    6  A    between atoms: N_8  and  C_9
REMARK    7  A    between atoms: C_16  and  C_17
REMARK    8  A    between atoms: C_17  and  O_19
REMARK    9  A    between atoms: N_21  and  C_22
REMARK                            x       y       z     vdW  Elec       q    Type
REMARK                         _______ _______ _______ _____ _____    ______ ____
ROOT
ATOM      1  C   UNL     1       1.493   8.919  19.544  0.00  0.00    +0.000 A 
ATOM      2  C   UNL     1       2.059   9.305  18.321  0.00  0.00    +0.000 A 
ATOM      3  F   UNL     1       1.757  10.497  17.787  0.00  0.00    +0.000 F 
ATOM      4  C   UNL     1       2.932   8.483  17.627  0.00  0.00    +0.000 A 
ATOM      5  C   UNL     1       3.240   7.220  18.137  0.00  0.00    +0.000 A 
ATOM      6  C   UNL     1       4.193   6.380  17.382  0.00  0.00    +0.000 A 
ATOM      7  O   UNL     1       4.737   6.795  16.362  0.00  0.00    +0.000 OA
ATOM      8  C   UNL     1       4.481   5.022  17.876  0.00  0.00    +0.000 A 
ATOM      9  C   UNL     1       3.841   4.635  18.990  0.00  0.00    +0.000 A 
ATOM     10  N   UNL     1       2.975   5.407  19.750  0.00  0.00    +0.000 N 
ATOM     11  C   UNL     1       2.664   6.739  19.329  0.00  0.00    +0.000 A 
ATOM     12  C   UNL     1       1.804   7.621  20.020  0.00  0.00    +0.000 A 
ATOM     13  F   UNL     1       1.211   7.219  21.157  0.00  0.00    +0.000 F 
ENDROOT
BRANCH   1  17
ATOM     14  C   UNL     1      -1.197  11.300  22.602  0.00  0.00    +0.000 C 
ATOM     15  C   UNL     1      -0.710  11.060  21.168  0.00  0.00    +0.000 C 
ATOM     16  C   UNL     1       0.848  10.921  21.056  0.00  0.00    +0.000 C 
ATOM     17  N   UNL     1       0.606   9.776  20.226  0.00  0.00    +0.000 N 
ATOM     18  C   UNL     1      -0.695   9.540  20.772  0.00  0.00    +0.000 C 
BRANCH  15  19
ATOM     19  N   UNL     1      -1.392  12.020  20.096  0.00  0.00    +0.000 N 
ATOM     20  C   UNL     1      -2.622  12.634  20.733  0.00  0.00    +0.000 C 
ATOM     21  C   UNL     1      -0.393  13.085  19.690  0.00  0.00    +0.000 C 
ATOM     22  C   UNL     1      -1.806  11.225  18.861  0.00  0.00    +0.000 C 
ENDBRANCH  15  19
ENDBRANCH   1  17
BRANCH  10  23
ATOM     23  C   UNL     1       2.306   4.780  20.912  0.00  0.00    +0.000 C 
ATOM     24  C   UNL     1       1.152   3.807  20.831  0.00  0.00    +0.000 C 
ATOM     25  C   UNL     1       2.517   3.313  21.191  0.00  0.00    +0.000 C 
ENDBRANCH  10  23
BRANCH   8  26
ATOM     26  C   UNL     1       5.421   4.097  17.212  0.00  0.00    +0.000 C 
ATOM     27  O   UNL     1       5.165   3.532  16.157  0.00  0.00    +0.000 OA
BRANCH  26  28
ATOM     28  O   UNL     1       6.589   3.920  17.859  0.00  0.00    +0.000 OA
ATOM     29  H   UNL     1       7.162   4.725  17.912  0.00  0.00    +0.000 HD
ENDBRANCH  26  28
ENDBRANCH   8  26
TORSDOF 5
ENDMDL
MODEL 2
REMARK VINA RESULT:      -7.7      1.196      1.328
REMARK  Name = 
REMARK  9 active torsions:
REMARK  status: ('A' for Active; 'I' for Inactive)
REMARK    1  A    between atoms: C_1  and  C_2
REMARK    2  A    between atoms: C_2  and  N_3
REMARK    3  A    between atoms: N_3  and  C_4
REMARK    4  A    between atoms: N_3  and  C_5
REMARK    5  A    between atoms: N_3  and  C_6
REMARK    6  A    between atoms: N_8  and  C_9
REMARK    7  A    between atoms: C_16  and  C_17
REMARK    8  A    between atoms: C_17  and  O_19
REMARK    9  A    between atoms: N_21  and  C_22
REMARK                            x       y       z     vdW  Elec       q    Type
REMARK                         _______ _______ _______ _____ _____    ______ ____
ROOT
ATOM      1  C   UNL     1       2.038   8.138  19.528  0.00  0.00    +0.000 A 
ATOM      2  C   UNL     1       2.439   8.767  18.342  0.00  0.00    +0.000 A 
ATOM      3  F   UNL     1       1.994   9.997  18.049  0.00  0.00    +0.000 F 
ATOM      4  C   UNL     1       3.293   8.152  17.440  0.00  0.00    +0.000 A 
ATOM      5  C   UNL     1       3.747   6.857  17.697  0.00  0.00    +0.000 A 
ATOM      6  C   UNL     1       4.674   6.241  16.724  0.00  0.00    +0.000 A 
ATOM      7  O   UNL     1       5.073   6.864  15.744  0.00  0.00    +0.000 OA
ATOM      8  C   UNL     1       5.114   4.853  16.951  0.00  0.00    +0.000 A 
ATOM      9  C   UNL     1       4.628   4.234  18.038  0.00  0.00    +0.000 A 
ATOM     10  N   UNL     1       3.793   4.790  18.995  0.00  0.00    +0.000 N 
ATOM     11  C   UNL     1       3.339   6.139  18.838  0.00  0.00    +0.000 A 
ATOM     12  C   UNL     1       2.495   6.814  19.745  0.00  0.00    +0.000 A 
ATOM     13  F   UNL     1       2.058   6.181  20.847  0.00  0.00    +0.000 F 
ENDROOT
BRANCH   1  17
ATOM     14  C   UNL     1      -0.767   9.523  23.060  0.00  0.00    +0.000 C 
ATOM     15  C   UNL     1      -0.114   9.792  21.699  0.00  0.00    +0.000 C 
ATOM     16  C   UNL     1       1.419   9.459  21.669  0.00  0.00    +0.000 C 
ATOM     17  N   UNL     1       1.167   8.788  20.426  0.00  0.00    +0.000 N 
ATOM     18  C   UNL     1      -0.217   8.569  20.718  0.00  0.00    +0.000 C 
BRANCH  15  19
ATOM     19  N   UNL     1      -0.525  11.192  21.062  0.00  0.00    +0.000 N 
ATOM     20  C   UNL     1      -1.520  11.856  21.993  0.00  0.00    +0.000 C 
ATOM     21  C   UNL     1       0.722  12.036  20.896  0.00  0.00    +0.000 C 
ATOM     22  C   UNL     1      -1.174  10.982  19.696  0.00  0.00    +0.000 C 
ENDBRANCH  15  19
ENDBRANCH   1  17
BRANCH  10  23
ATOM     23  C   UNL     1       3.301   3.925  20.090  0.00  0.00    +0.000 C 
ATOM     24  C   UNL     1       2.121   2.984  19.993  0.00  0.00    +0.000 C 
ATOM     25  C   UNL     1       3.511   2.433  20.013  0.00  0.00    +0.000 C 
ENDBRANCH  10  23
BRANCH   8  26
ATOM     26  C   UNL     1       6.045   4.138  16.055  0.00  0.00    +0.000 C 
ATOM     27  O   UNL     1       5.713   3.166  15.389  0.00  0.00    +0.000 OA
BRANCH  26  28
ATOM     28  O   UNL     1       7.295   4.639  16.025  0.00  0.00    +0.000 OA
ATOM     29  H   UNL     1       7.975   4.039  15.629  0.00  0.00    +0.000 HD
ENDBRANCH  26  28
ENDBRANCH   8  26
TORSDOF 5
ENDMDL
MODEL 3
REMARK VINA RESULT:      -7.7      0.850      1.090
REMARK  Name = 
REMARK  9 active torsions:
REMARK  status: ('A' for Active; 'I' for Inactive)
REMARK    1  A    between atoms: C_1  and  C_2
REMARK    2  A    between atoms: C_2  and  N_3
REMARK    3  A    between atoms: N_3  and  C_4
REMARK    4  A    between atoms: N_3  and  C_5
REMARK    5  A    between atoms: N_3  and  C_6
REMARK    6  A    between atoms: N_8  and  C_9
REMARK    7  A    between atoms: C_16  and  C_17
REMARK    8  A    between atoms: C_17  and  O_19
REMARK    9  A    between atoms: N_21  and  C_22
REMARK                            x       y       z     vdW  Elec       q    Type
REMARK                         _______ _______ _______ _____ _____    ______ ____
ROOT
ATOM      1  C   UNL     1       1.619   8.640  19.841  0.00  0.00    +0.000 A 
ATOM      2  C   UNL     1       2.125   9.031  18.594  0.00  0.00    +0.000 A 
ATOM      3  F   UNL     1       1.872  10.260  18.120  0.00  0.00    +0.000 F 
ATOM      4  C   UNL     1       2.888   8.178  17.813  0.00  0.00    +0.000 A 
ATOM      5  C   UNL     1       3.141   6.879  18.260  0.00  0.00    +0.000 A 
ATOM      6  C   UNL     1       3.978   6.004  17.412  0.00  0.00    +0.000 A 
ATOM      7  O   UNL     1       4.477   6.419  16.370  0.00  0.00    +0.000 OA
ATOM      8  C   UNL     1       4.202   4.612  17.841  0.00  0.00    +0.000 A 
ATOM      9  C   UNL     1       3.615   4.230  18.985  0.00  0.00    +0.000 A 
ATOM     10  N   UNL     1       2.860   5.030  19.829  0.00  0.00    +0.000 N 
ATOM     11  C   UNL     1       2.615   6.395  19.474  0.00  0.00    +0.000 A 
ATOM     12  C   UNL     1       1.870   7.307  20.251  0.00  0.00    +0.000 A 
ATOM     13  F   UNL     1       1.329   6.906  21.415  0.00  0.00    +0.000 F 
ENDROOT
BRANCH   1  17
ATOM     14  C   UNL     1      -1.167  10.842  22.947  0.00  0.00    +0.000 C 
ATOM     15  C   UNL     1      -0.278  10.882  21.699  0.00  0.00    +0.000 C 
ATOM     16  C   UNL     1       1.091  10.139  21.886  0.00  0.00    +0.000 C 
ATOM     17  N   UNL     1       0.843   9.530  20.611  0.00  0.00    +0.000 N 
ATOM     18  C   UNL     1      -0.574   9.709  20.697  0.00  0.00    +0.000 C 
BRANCH  15  19
ATOM     19  N   UNL     1      -0.189  12.324  21.028  0.00  0.00    +0.000 N 
ATOM     20  C   UNL     1      -1.169  12.363  19.872  0.00  0.00    +0.000 C 
ATOM     21  C   UNL     1      -0.527  13.369  22.072  0.00  0.00    +0.000 C 
ATOM     22  C   UNL     1       1.222  12.578  20.503  0.00  0.00    +0.000 C 
ENDBRANCH  15  19
ENDBRANCH   1  17
BRANCH  10  23
ATOM     23  C   UNL     1       2.230   4.408  21.015  0.00  0.00    +0.000 C 
ATOM     24  C   UNL     1       1.154   3.348  20.973  0.00  0.00    +0.000 C 
ATOM     25  C   UNL     1       2.549   2.976  21.362  0.00  0.00    +0.000 C 
ENDBRANCH  10  23
BRANCH   8  26
ATOM     26  C   UNL     1       5.027   3.651  17.082  0.00  0.00    +0.000 C 
ATOM     27  O   UNL     1       4.611   2.559  16.718  0.00  0.00    +0.000 OA
BRANCH  26  28
ATOM     28  O   UNL     1       6.281   4.067  16.821  0.00  0.00    +0.000 OA
ATOM     29  H   UNL     1       6.845   4.221  17.620  0.00  0.00    +0.000 HD
ENDBRANCH  26  28
ENDBRANCH   8  26
TORSDOF 5
ENDMDL
MODEL 4
REMARK VINA RESULT:      -7.7      1.966      3.500
REMARK  Name = 
REMARK  9 active torsions:
REMARK  status: ('A' for Active; 'I' for Inactive)
REMARK    1  A    between atoms: C_1  and  C_2
REMARK    2  A    between atoms: C_2  and  N_3
REMARK    3  A    between atoms: N_3  and  C_4
REMARK    4  A    between atoms: N_3  and  C_5
REMARK    5  A    between atoms: N_3  and  C_6
REMARK    6  A    between atoms: N_8  and  C_9
REMARK    7  A    between atoms: C_16  and  C_17
REMARK    8  A    between atoms: C_17  and  O_19
REMARK    9  A    between atoms: N_21  and  C_22
REMARK                            x       y       z     vdW  Elec       q    Type
REMARK                         _______ _______ _______ _____ _____    ______ ____
ROOT
ATOM      1  C   UNL     1       1.687   8.189  19.525  0.00  0.00    +0.000 A 
ATOM      2  C   UNL     1       1.292   7.465  20.659  0.00  0.00    +0.000 A 
ATOM      3  F   UNL     1       0.536   8.047  21.599  0.00  0.00    +0.000 F 
ATOM      4  C   UNL     1       1.666   6.144  20.849  0.00  0.00    +0.000 A 
ATOM      5  C   UNL     1       2.484   5.518  19.907  0.00  0.00    +0.000 A 
ATOM      6  C   UNL     1       2.844   4.102  20.132  0.00  0.00    +0.000 A 
ATOM      7  O   UNL     1       2.400   3.479  21.092  0.00  0.00    +0.000 OA
ATOM      8  C   UNL     1       3.756   3.447  19.177  0.00  0.00    +0.000 A 
ATOM      9  C   UNL     1       4.207   4.196  18.160  0.00  0.00    +0.000 A 
ATOM     10  N   UNL     1       3.860   5.511  17.890  0.00  0.00    +0.000 N 
ATOM     11  C   UNL     1       2.969   6.200  18.774  0.00  0.00    +0.000 A 
ATOM     12  C   UNL     1       2.539   7.533  18.602  0.00  0.00    +0.000 A 
ATOM     13  F   UNL     1       2.975   8.245  17.549  0.00  0.00    +0.000 F 
ENDROOT
BRANCH   1  17
ATOM     14  C   UNL     1       1.271  12.812  18.682  0.00  0.00    +0.000 C 
ATOM     15  C   UNL     1       0.655  11.485  19.139  0.00  0.00    +0.000 C 
ATOM     16  C   UNL     1       0.978  10.287  18.181  0.00  0.00    +0.000 C 
ATOM     17  N   UNL     1       1.292   9.532  19.360  0.00  0.00    +0.000 N 
ATOM     18  C   UNL     1       1.571  10.697  20.143  0.00  0.00    +0.000 C 
BRANCH  15  19
ATOM     19  N   UNL     1      -0.868  11.613  19.589  0.00  0.00    +0.000 N 
ATOM     20  C   UNL     1      -0.956  11.240  21.054  0.00  0.00    +0.000 C 
ATOM     21  C   UNL     1      -1.327  13.037  19.354  0.00  0.00    +0.000 C 
ATOM     22  C   UNL     1      -1.742  10.664  18.772  0.00  0.00    +0.000 C 
ENDBRANCH  15  19
ENDBRANCH   1  17
BRANCH  10  23
ATOM     23  C   UNL     1       4.520   6.197  16.757  0.00  0.00    +0.000 C 
ATOM     24  C   UNL     1       5.917   6.775  16.785  0.00  0.00    +0.000 C 
ATOM     25  C   UNL     1       5.650   5.513  16.029  0.00  0.00    +0.000 C 
ENDBRANCH  10  23
BRANCH   8  26
ATOM     26  C   UNL     1       4.177   2.036  19.293  0.00  0.00    +0.000 C 
ATOM     27  O   UNL     1       3.750   1.152  18.563  0.00  0.00    +0.000 OA
BRANCH  26  28
ATOM     28  O   UNL     1       5.071   1.793  20.270  0.00  0.00    +0.000 OA
ATOM     29  H   UNL     1       6.013   1.982  20.030  0.00  0.00    +0.000 HD
ENDBRANCH  26  28
ENDBRANCH   8  26
TORSDOF 5
ENDMDL
MODEL 5
REMARK VINA RESULT:      -7.6      2.067      3.586
REMARK  Name = 
REMARK  9 active torsions:
REMARK  status: ('A' for Active; 'I' for Inactive)
REMARK    1  A    between atoms: C_1  and  C_2
REMARK    2  A    between atoms: C_2  and  N_3
REMARK    3  A    between atoms: N_3  and  C_4
REMARK    4  A    between atoms: N_3  and  C_5
REMARK    5  A    between atoms: N_3  and  C_6
REMARK    6  A    between atoms: N_8  and  C_9
REMARK    7  A    between atoms: C_16  and  C_17
REMARK    8  A    between atoms: C_17  and  O_19
REMARK    9  A    between atoms: N_21  and  C_22
REMARK                            x       y       z     vdW  Elec       q    Type
REMARK                         _______ _______ _______ _____ _____    ______ ____
ROOT
ATOM      1  C   UNL     1       1.400   8.502  19.789  0.00  0.00    +0.000 A 
ATOM      2  C   UNL     1       1.006   7.690  20.861  0.00  0.00    +0.000 A 
ATOM      3  F   UNL     1       0.205   8.180  21.818  0.00  0.00    +0.000 F 
ATOM      4  C   UNL     1       1.426   6.374  20.975  0.00  0.00    +0.000 A 
ATOM      5  C   UNL     1       2.290   5.842  20.015  0.00  0.00    +0.000 A 
ATOM      6  C   UNL     1       2.698   4.428  20.156  0.00  0.00    +0.000 A 
ATOM      7  O   UNL     1       2.255   3.726  21.061  0.00  0.00    +0.000 OA
ATOM      8  C   UNL     1       3.656   3.872  19.185  0.00  0.00    +0.000 A 
ATOM      9  C   UNL     1       4.104   4.703  18.231  0.00  0.00    +0.000 A 
ATOM     10  N   UNL     1       3.713   6.020  18.040  0.00  0.00    +0.000 N 
ATOM     11  C   UNL     1       2.775   6.616  18.942  0.00  0.00    +0.000 A 
ATOM     12  C   UNL     1       2.298   7.940  18.848  0.00  0.00    +0.000 A 
ATOM     13  F   UNL     1       2.733   8.736  17.855  0.00  0.00    +0.000 F 
ENDROOT
BRANCH   1  17
ATOM     14  C   UNL     1      -0.926  12.606  19.746  0.00  0.00    +0.000 C 
ATOM     15  C   UNL     1       0.372  11.813  19.556  0.00  0.00    +0.000 C 
ATOM     16  C   UNL     1       0.659  10.803  20.720  0.00  0.00    +0.000 C 
ATOM     17  N   UNL     1       0.959   9.838  19.702  0.00  0.00    +0.000 N 
ATOM     18  C   UNL     1       0.174  10.505  18.709  0.00  0.00    +0.000 C 
BRANCH  15  19
ATOM     19  N   UNL     1       1.607  12.714  19.110  0.00  0.00    +0.000 N 
ATOM     20  C   UNL     1       1.060  13.977  18.475  0.00  0.00    +0.000 C 
ATOM     21  C   UNL     1       2.445  13.031  20.331  0.00  0.00    +0.000 C 
ATOM     22  C   UNL     1       2.466  11.968  18.092  0.00  0.00    +0.000 C 
ENDBRANCH  15  19
ENDBRANCH   1  17
BRANCH  10  23
ATOM     23  C   UNL     1       4.374   6.803  16.972  0.00  0.00    +0.000 C 
ATOM     24  C   UNL     1       5.861   7.049  16.868  0.00  0.00    +0.000 C 
ATOM     25  C   UNL     1       5.199   6.093  15.929  0.00  0.00    +0.000 C 
ENDBRANCH  10  23
BRANCH   8  26
ATOM     26  C   UNL     1       4.128   2.473  19.219  0.00  0.00    +0.000 C 
ATOM     27  O   UNL     1       3.710   1.611  18.458  0.00  0.00    +0.000 OA
BRANCH  26  28
ATOM     28  O   UNL     1       5.059   2.215  20.158  0.00  0.00    +0.000 OA
ATOM     29  H   UNL     1       5.357   3.003  20.677  0.00  0.00    +0.000 HD
ENDBRANCH  26  28
ENDBRANCH   8  26
TORSDOF 5
ENDMDL
MODEL 6
REMARK VINA RESULT:      -7.6      1.893      3.559
REMARK  Name = 
REMARK  9 active torsions:
REMARK  status: ('A' for Active; 'I' for Inactive)
REMARK    1  A    between atoms: C_1  and  C_2
REMARK    2  A    between atoms: C_2  and  N_3
REMARK    3  A    between atoms: N_3  and  C_4
REMARK    4  A    between atoms: N_3  and  C_5
REMARK    5  A    between atoms: N_3  and  C_6
REMARK    6  A    between atoms: N_8  and  C_9
REMARK    7  A    between atoms: C_16  and  C_17
REMARK    8  A    between atoms: C_17  and  O_19
REMARK    9  A    between atoms: N_21  and  C_22
REMARK                            x       y       z     vdW  Elec       q    Type
REMARK                         _______ _______ _______ _____ _____    ______ ____
ROOT
ATOM      1  C   UNL     1       1.518   8.460  19.608  0.00  0.00    +0.000 A 
ATOM      2  C   UNL     1       1.104   7.731  20.731  0.00  0.00    +0.000 A 
ATOM      3  F   UNL     1       0.292   8.294  21.636  0.00  0.00    +0.000 F 
ATOM      4  C   UNL     1       1.516   6.426  20.948  0.00  0.00    +0.000 A 
ATOM      5  C   UNL     1       2.391   5.821  20.043  0.00  0.00    +0.000 A 
ATOM      6  C   UNL     1       2.790   4.420  20.295  0.00  0.00    +0.000 A 
ATOM      7  O   UNL     1       2.331   3.789  21.242  0.00  0.00    +0.000 OA
ATOM      8  C   UNL     1       3.760   3.789  19.382  0.00  0.00    +0.000 A 
ATOM      9  C   UNL     1       4.225   4.546  18.376  0.00  0.00    +0.000 A 
ATOM     10  N   UNL     1       3.844   5.846  18.082  0.00  0.00    +0.000 N 
ATOM     11  C   UNL     1       2.896   6.511  18.924  0.00  0.00    +0.000 A 
ATOM     12  C   UNL     1       2.427   7.827  18.724  0.00  0.00    +0.000 A 
ATOM     13  F   UNL     1       2.880   8.545  17.682  0.00  0.00    +0.000 F 
ENDROOT
BRANCH   1  17
ATOM     14  C   UNL     1       0.913  13.012  18.526  0.00  0.00    +0.000 C 
ATOM     15  C   UNL     1       0.394  11.719  19.164  0.00  0.00    +0.000 C 
ATOM     16  C   UNL     1       0.579  10.458  18.251  0.00  0.00    +0.000 C 
ATOM     17  N   UNL     1       1.084   9.788  19.415  0.00  0.00    +0.000 N 
ATOM     18  C   UNL     1       1.467  11.004  20.063  0.00  0.00    +0.000 C 
BRANCH  15  19
ATOM     19  N   UNL     1      -1.041  11.874  19.838  0.00  0.00    +0.000 N 
ATOM     20  C   UNL     1      -1.370  13.351  19.905  0.00  0.00    +0.000 C 
ATOM     21  C   UNL     1      -2.055  11.121  19.002  0.00  0.00    +0.000 C 
ATOM     22  C   UNL     1      -1.027  11.295  21.251  0.00  0.00    +0.000 C 
ENDBRANCH  15  19
ENDBRANCH   1  17
BRANCH  10  23
ATOM     23  C   UNL     1       4.524   6.546  16.969  0.00  0.00    +0.000 C 
ATOM     24  C   UNL     1       5.984   6.938  16.951  0.00  0.00    +0.000 C 
ATOM     25  C   UNL     1       5.510   5.796  16.110  0.00  0.00    +0.000 C 
ENDBRANCH  10  23
BRANCH   8  26
ATOM     26  C   UNL     1       4.224   2.395  19.527  0.00  0.00    +0.000 C 
ATOM     27  O   UNL     1       4.919   2.019  20.462  0.00  0.00    +0.000 OA
BRANCH  26  28
ATOM     28  O   UNL     1       3.825   1.563  18.546  0.00  0.00    +0.000 OA
ATOM     29  H   UNL     1       4.498   1.397  17.840  0.00  0.00    +0.000 HD
ENDBRANCH  26  28
ENDBRANCH   8  26
TORSDOF 5
ENDMDL
MODEL 7
REMARK VINA RESULT:      -7.5      1.265      1.733
REMARK  Name = 
REMARK  9 active torsions:
REMARK  status: ('A' for Active; 'I' for Inactive)
REMARK    1  A    between atoms: C_1  and  C_2
REMARK    2  A    between atoms: C_2  and  N_3
REMARK    3  A    between atoms: N_3  and  C_4
REMARK    4  A    between atoms: N_3  and  C_5
REMARK    5  A    between atoms: N_3  and  C_6
REMARK    6  A    between atoms: N_8  and  C_9
REMARK    7  A    between atoms: C_16  and  C_17
REMARK    8  A    between atoms: C_17  and  O_19
REMARK    9  A    between atoms: N_21  and  C_22
REMARK                            x       y       z     vdW  Elec       q    Type
REMARK                         _______ _______ _______ _____ _____    ______ ____
ROOT
ATOM      1  C   UNL     1       2.104   8.035  19.447  0.00  0.00    +0.000 A 
ATOM      2  C   UNL     1       2.468   8.651  18.241  0.00  0.00    +0.000 A 
ATOM      3  F   UNL     1       1.971   9.855  17.924  0.00  0.00    +0.000 F 
ATOM      4  C   UNL     1       3.335   8.047  17.345  0.00  0.00    +0.000 A 
ATOM      5  C   UNL     1       3.842   6.777  17.627  0.00  0.00    +0.000 A 
ATOM      6  C   UNL     1       4.782   6.174  16.659  0.00  0.00    +0.000 A 
ATOM      7  O   UNL     1       5.146   6.788  15.659  0.00  0.00    +0.000 OA
ATOM      8  C   UNL     1       5.278   4.811  16.914  0.00  0.00    +0.000 A 
ATOM      9  C   UNL     1       4.828   4.200  18.020  0.00  0.00    +0.000 A 
ATOM     10  N   UNL     1       3.982   4.746  18.974  0.00  0.00    +0.000 N 
ATOM     11  C   UNL     1       3.474   6.072  18.790  0.00  0.00    +0.000 A 
ATOM     12  C   UNL     1       2.614   6.736  19.690  0.00  0.00    +0.000 A 
ATOM     13  F   UNL     1       2.214   6.114  20.812  0.00  0.00    +0.000 F 
ENDROOT
BRANCH   1  17
ATOM     14  C   UNL     1      -0.767   9.368  22.945  0.00  0.00    +0.000 C 
ATOM     15  C   UNL     1      -0.084   9.659  21.605  0.00  0.00    +0.000 C 
ATOM     16  C   UNL     1       1.447   9.318  21.600  0.00  0.00    +0.000 C 
ATOM     17  N   UNL     1       1.218   8.673  20.338  0.00  0.00    +0.000 N 
ATOM     18  C   UNL     1      -0.173   8.457  20.597  0.00  0.00    +0.000 C 
BRANCH  15  19
ATOM     19  N   UNL     1      -0.473  11.075  20.987  0.00  0.00    +0.000 N 
ATOM     20  C   UNL     1       0.793  11.898  20.867  0.00  0.00    +0.000 C 
ATOM     21  C   UNL     1      -1.118  10.855  19.634  0.00  0.00    +0.000 C 
ATOM     22  C   UNL     1      -1.460  11.797  21.901  0.00  0.00    +0.000 C 
ENDBRANCH  15  19
ENDBRANCH   1  17
BRANCH  10  23
ATOM     23  C   UNL     1       3.536   3.889  20.095  0.00  0.00    +0.000 C 
ATOM     24  C   UNL     1       2.452   2.840  20.010  0.00  0.00    +0.000 C 
ATOM     25  C   UNL     1       3.885   2.422  20.096  0.00  0.00    +0.000 C 
ENDBRANCH  10  23
BRANCH   8  26
ATOM     26  C   UNL     1       6.227   4.111  16.024  0.00  0.00    +0.000 C 
ATOM     27  O   UNL     1       7.334   4.554  15.752  0.00  0.00    +0.000 OA
BRANCH  26  28
ATOM     28  O   UNL     1       5.778   2.941  15.531  0.00  0.00    +0.000 OA
ATOM     29  H   UNL     1       6.394   2.491  14.900  0.00  0.00    +0.000 HD
ENDBRANCH  26  28
ENDBRANCH   8  26
TORSDOF 5
ENDMDL
MODEL 8
REMARK VINA RESULT:      -7.4      1.954      3.641
REMARK  Name = 
REMARK  9 active torsions:
REMARK  status: ('A' for Active; 'I' for Inactive)
REMARK    1  A    between atoms: C_1  and  C_2
REMARK    2  A    between atoms: C_2  and  N_3
REMARK    3  A    between atoms: N_3  and  C_4
REMARK    4  A    between atoms: N_3  and  C_5
REMARK    5  A    between atoms: N_3  and  C_6
REMARK    6  A    between atoms: N_8  and  C_9
REMARK    7  A    between atoms: C_16  and  C_17
REMARK    8  A    between atoms: C_17  and  O_19
REMARK    9  A    between atoms: N_21  and  C_22
REMARK                            x       y       z     vdW  Elec       q    Type
REMARK                         _______ _______ _______ _____ _____    ______ ____
ROOT
ATOM      1  C   UNL     1       1.395   8.509  19.614  0.00  0.00    +0.000 A 
ATOM      2  C   UNL     1       1.034   7.781  20.755  0.00  0.00    +0.000 A 
ATOM      3  F   UNL     1       0.230   8.329  21.677  0.00  0.00    +0.000 F 
ATOM      4  C   UNL     1       1.489   6.490  20.973  0.00  0.00    +0.000 A 
ATOM      5  C   UNL     1       2.357   5.902  20.051  0.00  0.00    +0.000 A 
ATOM      6  C   UNL     1       2.804   4.516  20.305  0.00  0.00    +0.000 A 
ATOM      7  O   UNL     1       2.390   3.881  21.271  0.00  0.00    +0.000 OA
ATOM      8  C   UNL     1       3.767   3.904  19.372  0.00  0.00    +0.000 A 
ATOM      9  C   UNL     1       4.182   4.663  18.346  0.00  0.00    +0.000 A 
ATOM     10  N   UNL     1       3.754   5.949  18.050  0.00  0.00    +0.000 N 
ATOM     11  C   UNL     1       2.811   6.594  18.911  0.00  0.00    +0.000 A 
ATOM     12  C   UNL     1       2.298   7.894  18.712  0.00  0.00    +0.000 A 
ATOM     13  F   UNL     1       2.700   8.614  17.651  0.00  0.00    +0.000 F 
ENDROOT
BRANCH   1  17
ATOM     14  C   UNL     1      -0.362  12.606  18.069  0.00  0.00    +0.000 C 
ATOM     15  C   UNL     1       0.232  11.758  19.199  0.00  0.00    +0.000 C 
ATOM     16  C   UNL     1      -0.419  10.335  19.316  0.00  0.00    +0.000 C 
ATOM     17  N   UNL     1       0.917   9.821  19.420  0.00  0.00    +0.000 N 
ATOM     18  C   UNL     1       1.501  10.945  18.754  0.00  0.00    +0.000 C 
BRANCH  15  19
ATOM     19  N   UNL     1       0.396  12.552  20.570  0.00  0.00    +0.000 N 
ATOM     20  C   UNL     1      -0.440  13.812  20.485  0.00  0.00    +0.000 C 
ATOM     21  C   UNL     1      -0.063  11.661  21.706  0.00  0.00    +0.000 C 
ATOM     22  C   UNL     1       1.859  12.930  20.789  0.00  0.00    +0.000 C 
ENDBRANCH  15  19
ENDBRANCH   1  17
BRANCH  10  23
ATOM     23  C   UNL     1       4.383   6.656  16.912  0.00  0.00    +0.000 C 
ATOM     24  C   UNL     1       5.852   6.995  16.803  0.00  0.00    +0.000 C 
ATOM     25  C   UNL     1       5.278   5.897  15.965  0.00  0.00    +0.000 C 
ENDBRANCH  10  23
BRANCH   8  26
ATOM     26  C   UNL     1       4.276   2.525  19.517  0.00  0.00    +0.000 C 
ATOM     27  O   UNL     1       4.975   2.170  20.458  0.00  0.00    +0.000 OA
BRANCH  26  28
ATOM     28  O   UNL     1       3.913   1.684  18.531  0.00  0.00    +0.000 OA
ATOM     29  H   UNL     1       4.466   0.866  18.457  0.00  0.00    +0.000 HD
ENDBRANCH  26  28
ENDBRANCH   8  26
TORSDOF 5
ENDMDL
MODEL 9
REMARK VINA RESULT:      -7.4      3.246      7.417
REMARK  Name = 
REMARK  9 active torsions:
REMARK  status: ('A' for Active; 'I' for Inactive)
REMARK    1  A    between atoms: C_1  and  C_2
REMARK    2  A    between atoms: C_2  and  N_3
REMARK    3  A    between atoms: N_3  and  C_4
REMARK    4  A    between atoms: N_3  and  C_5
REMARK    5  A    between atoms: N_3  and  C_6
REMARK    6  A    between atoms: N_8  and  C_9
REMARK    7  A    between atoms: C_16  and  C_17
REMARK    8  A    between atoms: C_17  and  O_19
REMARK    9  A    between atoms: N_21  and  C_22
REMARK                            x       y       z     vdW  Elec       q    Type
REMARK                         _______ _______ _______ _____ _____    ______ ____
ROOT
ATOM      1  C   UNL     1       2.177   7.508  18.954  0.00  0.00    +0.000 A 
ATOM      2  C   UNL     1       2.665   8.363  17.957  0.00  0.00    +0.000 A 
ATOM      3  F   UNL     1       3.519   7.901  17.033  0.00  0.00    +0.000 F 
ATOM      4  C   UNL     1       2.295   9.697  17.893  0.00  0.00    +0.000 A 
ATOM      5  C   UNL     1       1.435  10.220  18.861  0.00  0.00    +0.000 A 
ATOM      6  C   UNL     1       1.044  11.641  18.747  0.00  0.00    +0.000 A 
ATOM      7  O   UNL     1       1.422  12.330  17.804  0.00  0.00    +0.000 OA
ATOM      8  C   UNL     1       0.186  12.222  19.795  0.00  0.00    +0.000 A 
ATOM      9  C   UNL     1      -0.178  11.409  20.799  0.00  0.00    +0.000 A 
ATOM     10  N   UNL     1       0.132  10.063  20.919  0.00  0.00    +0.000 N 
ATOM     11  C   UNL     1       0.952   9.436  19.927  0.00  0.00    +0.000 A 
ATOM     12  C   UNL     1       1.329   8.076  19.937  0.00  0.00    +0.000 A 
ATOM     13  F   UNL     1       0.914   7.276  20.934  0.00  0.00    +0.000 F 
ENDROOT
BRANCH   1  17
ATOM     14  C   UNL     1       4.231   3.280  18.544  0.00  0.00    +0.000 C 
ATOM     15  C   UNL     1       3.103   4.161  19.093  0.00  0.00    +0.000 C 
ATOM     16  C   UNL     1       3.613   5.498  19.735  0.00  0.00    +0.000 C 
ATOM     17  N   UNL     1       2.574   6.156  18.996  0.00  0.00    +0.000 N 
ATOM     18  C   UNL     1       2.493   5.122  18.010  0.00  0.00    +0.000 C 
BRANCH  15  19
ATOM     19  N   UNL     1       2.028   3.356  19.949  0.00  0.00    +0.000 N 
ATOM     20  C   UNL     1       1.477   2.242  19.081  0.00  0.00    +0.000 C 
ATOM     21  C   UNL     1       2.705   2.805  21.187  0.00  0.00    +0.000 C 
ATOM     22  C   UNL     1       0.887   4.279  20.370  0.00  0.00    +0.000 C 
ENDBRANCH  15  19
ENDBRANCH   1  17
BRANCH  10  23
ATOM     23  C   UNL     1      -0.300   9.346  22.139  0.00  0.00    +0.000 C 
ATOM     24  C   UNL     1       0.391   9.418  23.482  0.00  0.00    +0.000 C 
ATOM     25  C   UNL     1      -0.915  10.119  23.279  0.00  0.00    +0.000 C 
ENDBRANCH  10  23
BRANCH   8  26
ATOM     26  C   UNL     1      -0.277  13.624  19.782  0.00  0.00    +0.000 C 
ATOM     27  O   UNL     1      -0.183  14.364  20.753  0.00  0.00    +0.000 OA
BRANCH  26  28
ATOM     28  O   UNL     1      -0.814  14.029  18.616  0.00  0.00    +0.000 OA
ATOM     29  H   UNL     1      -1.677  13.603  18.385  0.00  0.00    +0.000 HD
ENDBRANCH  26  28
ENDBRANCH   8  26
TORSDOF 5
ENDMDL
