MODEL 1
REMARK VINA RESULT:      -9.2      0.000      0.000
REMARK  Name = 
REMARK  7 active torsions:
REMARK  status: ('A' for Active; 'I' for Inactive)
REMARK    1  A    between atoms: C_1  and  C_2
REMARK    2  A    between atoms: C_10  and  C_11
REMARK    3  A    between atoms: C_11  and  C_12
REMARK    4  A    between atoms: N_14  and  C_15
REMARK    5  A    between atoms: C_15  and  C_16
REMARK    6  A    between atoms: C_15  and  C_23
REMARK    7  A    between atoms: C_16  and  C_17
REMARK                            x       y       z     vdW  Elec       q    Type
REMARK                         _______ _______ _______ _____ _____    ______ ____
ROOT
ATOM      1  C   UNL     1       0.480  10.516  18.782  0.00  0.00    +0.000 C 
ENDROOT
BRANCH   1   2
ATOM      2  C   UNL     1       1.279  11.811  19.070  0.00  0.00    +0.000 C 
ATOM      3  O   UNL     1       2.273  12.105  18.400  0.00  0.00    +0.000 OA
ATOM      4  N   UNL     1       0.778  12.602  20.088  0.00  0.00    +0.000 N 
ATOM      5  C   UNL     1       1.445  13.757  20.519  0.00  0.00    +0.000 A 
ATOM      6  C   UNL     1       1.893  14.723  19.633  0.00  0.00    +0.000 A 
ATOM      7  C   UNL     1       2.575  15.822  20.141  0.00  0.00    +0.000 A 
ATOM      8  C   UNL     1       2.793  15.880  21.503  0.00  0.00    +0.000 A 
ATOM      9  N   UNL     1       2.316  14.947  22.350  0.00  0.00    +0.000 NA
ATOM     10  N   UNL     1       1.604  13.892  21.852  0.00  0.00    +0.000 NA
ATOM     11  H   UNL     1       0.290  12.143  20.843  0.00  0.00    +0.000 HD
ENDBRANCH   1   2
BRANCH   1  14
ATOM     12  C   UNL     1       1.930   8.482  18.609  0.00  0.00    +0.000 C 
ATOM     13  O   UNL     1       1.965   8.546  17.380  0.00  0.00    +0.000 OA
ATOM     14  N   UNL     1       1.226   9.388  19.363  0.00  0.00    +0.000 N 
ATOM     15  H   UNL     1       1.364   9.410  20.371  0.00  0.00    +0.000 HD
BRANCH  12  16
ATOM     16  C   UNL     1       2.576   7.349  19.396  0.00  0.00    +0.000 C 
BRANCH  16  26
ATOM     17  C   UNL     1       4.844   6.735  17.099  0.00  0.00    +0.000 C 
ATOM     18  C   UNL     1       3.764   5.867  17.638  0.00  0.00    +0.000 A 
ATOM     19  N   UNL     1       3.636   4.570  17.201  0.00  0.00    +0.000 N 
ATOM     20  C   UNL     1       2.701   3.902  17.948  0.00  0.00    +0.000 A 
ATOM     21  C   UNL     1       2.317   2.555  17.906  0.00  0.00    +0.000 A 
ATOM     22  C   UNL     1       1.364   2.123  18.829  0.00  0.00    +0.000 A 
ATOM     23  C   UNL     1       0.810   3.012  19.748  0.00  0.00    +0.000 A 
ATOM     24  C   UNL     1       1.192   4.359  19.763  0.00  0.00    +0.000 A 
ATOM     25  C   UNL     1       2.158   4.817  18.846  0.00  0.00    +0.000 A 
ATOM     26  C   UNL     1       2.798   6.090  18.615  0.00  0.00    +0.000 A 
ATOM     27  H   UNL     1       4.200   4.142  16.484  0.00  0.00    +0.000 HD
ENDBRANCH  16  26
ENDBRANCH  12  16
ENDBRANCH   1  14
BRANCH   1  28
ATOM     28  C   UNL     1      -0.992  10.545  19.250  0.00  0.00    +0.000 C 
BRANCH  28  29
ATOM     29  C   UNL     1      -2.016  10.651  18.140  0.00  0.00    +0.000 A 
ATOM     30  C   UNL     1      -3.154  11.459  18.269  0.00  0.00    +0.000 A 
ATOM     31  C   UNL     1      -4.118  11.495  17.260  0.00  0.00    +0.000 A 
ATOM     32  C   UNL     1      -3.948  10.741  16.103  0.00  0.00    +0.000 A 
ATOM     33  C   UNL     1      -2.804   9.961  15.946  0.00  0.00    +0.000 A 
ATOM     34  C   UNL     1      -1.843   9.917  16.958  0.00  0.00    +0.000 A 
ENDBRANCH  28  29
ENDBRANCH   1  28
TORSDOF 6
ENDMDL
MODEL 2
REMARK VINA RESULT:      -9.1      2.177      8.625
REMARK  Name = 
REMARK  7 active torsions:
REMARK  status: ('A' for Active; 'I' for Inactive)
REMARK    1  A    between atoms: C_1  and  C_2
REMARK    2  A    between atoms: C_10  and  C_11
REMARK    3  A    between atoms: C_11  and  C_12
REMARK    4  A    between atoms: N_14  and  C_15
REMARK    5  A    between atoms: C_15  and  C_16
REMARK    6  A    between atoms: C_15  and  C_23
REMARK    7  A    between atoms: C_16  and  C_17
REMARK                            x       y       z     vdW  Elec       q    Type
REMARK                         _______ _______ _______ _____ _____    ______ ____
ROOT
ATOM      1  C   UNL     1       2.718   6.843  19.761  0.00  0.00    +0.000 C 
ENDROOT
BRANCH   1   2
ATOM      2  C   UNL     1       3.759   6.028  18.954  0.00  0.00    +0.000 C 
ATOM      3  O   UNL     1       4.533   5.252  19.521  0.00  0.00    +0.000 OA
ATOM      4  N   UNL     1       3.722   6.214  17.584  0.00  0.00    +0.000 N 
ATOM      5  C   UNL     1       4.662   5.612  16.735  0.00  0.00    +0.000 A 
ATOM      6  C   UNL     1       4.963   4.262  16.808  0.00  0.00    +0.000 A 
ATOM      7  C   UNL     1       5.930   3.752  15.951  0.00  0.00    +0.000 A 
ATOM      8  C   UNL     1       6.560   4.625  15.087  0.00  0.00    +0.000 A 
ATOM      9  N   UNL     1       6.224   5.928  15.007  0.00  0.00    +0.000 NA
ATOM     10  N   UNL     1       5.238   6.417  15.818  0.00  0.00    +0.000 NA
ATOM     11  H   UNL     1       3.423   7.114  17.239  0.00  0.00    +0.000 HD
ENDBRANCH   1   2
BRANCH   1  14
ATOM     12  C   UNL     1       1.521   9.007  19.370  0.00  0.00    +0.000 C 
ATOM     13  O   UNL     1       1.232   9.125  20.560  0.00  0.00    +0.000 OA
ATOM     14  N   UNL     1       2.227   7.928  18.897  0.00  0.00    +0.000 N 
ATOM     15  H   UNL     1       2.597   7.953  17.950  0.00  0.00    +0.000 HD
BRANCH  12  16
ATOM     16  C   UNL     1       1.044   9.985  18.304  0.00  0.00    +0.000 C 
BRANCH  16  26
ATOM     17  C   UNL     1       0.723  12.553  20.329  0.00  0.00    +0.000 C 
ATOM     18  C   UNL     1      -0.299  11.824  19.533  0.00  0.00    +0.000 A 
ATOM     19  N   UNL     1      -1.610  12.239  19.546  0.00  0.00    +0.000 N 
ATOM     20  C   UNL     1      -2.341  11.546  18.615  0.00  0.00    +0.000 A 
ATOM     21  C   UNL     1      -3.680  11.700  18.233  0.00  0.00    +0.000 A 
ATOM     22  C   UNL     1      -4.160  10.884  17.209  0.00  0.00    +0.000 A 
ATOM     23  C   UNL     1      -3.333   9.942  16.603  0.00  0.00    +0.000 A 
ATOM     24  C   UNL     1      -2.002   9.789  17.011  0.00  0.00    +0.000 A 
ATOM     25  C   UNL     1      -1.492  10.607  18.038  0.00  0.00    +0.000 A 
ATOM     26  C   UNL     1      -0.197  10.745  18.659  0.00  0.00    +0.000 A 
ATOM     27  H   UNL     1      -1.973  12.995  20.102  0.00  0.00    +0.000 HD
ENDBRANCH  16  26
ENDBRANCH  12  16
ENDBRANCH   1  14
BRANCH   1  28
ATOM     28  C   UNL     1       1.565   6.007  20.361  0.00  0.00    +0.000 C 
BRANCH  28  29
ATOM     29  C   UNL     1       1.601   4.531  20.027  0.00  0.00    +0.000 A 
ATOM     30  C   UNL     1       1.932   3.571  20.993  0.00  0.00    +0.000 A 
ATOM     31  C   UNL     1       2.020   2.220  20.651  0.00  0.00    +0.000 A 
ATOM     32  C   UNL     1       1.760   1.810  19.347  0.00  0.00    +0.000 A 
ATOM     33  C   UNL     1       1.395   2.750  18.385  0.00  0.00    +0.000 A 
ATOM     34  C   UNL     1       1.314   4.102  18.723  0.00  0.00    +0.000 A 
ENDBRANCH  28  29
ENDBRANCH   1  28
TORSDOF 6
ENDMDL
MODEL 3
REMARK VINA RESULT:      -9.0      1.243      1.551
REMARK  Name = 
REMARK  7 active torsions:
REMARK  status: ('A' for Active; 'I' for Inactive)
REMARK    1  A    between atoms: C_1  and  C_2
REMARK    2  A    between atoms: C_10  and  C_11
REMARK    3  A    between atoms: C_11  and  C_12
REMARK    4  A    between atoms: N_14  and  C_15
REMARK    5  A    between atoms: C_15  and  C_16
REMARK    6  A    between atoms: C_15  and  C_23
REMARK    7  A    between atoms: C_16  and  C_17
REMARK                            x       y       z     vdW  Elec       q    Type
REMARK                         _______ _______ _______ _____ _____    ______ ____
ROOT
ATOM      1  C   UNL     1       0.252  10.387  18.789  0.00  0.00    +0.000 C 
ENDROOT
BRANCH   1   2
ATOM      2  C   UNL     1       0.839  11.745  19.246  0.00  0.00    +0.000 C 
ATOM      3  O   UNL     1       1.504  11.831  20.283  0.00  0.00    +0.000 OA
ATOM      4  N   UNL     1       0.592  12.811  18.401  0.00  0.00    +0.000 N 
ATOM      5  C   UNL     1       0.985  14.116  18.729  0.00  0.00    +0.000 A 
ATOM      6  C   UNL     1       2.268  14.414  19.158  0.00  0.00    +0.000 A 
ATOM      7  C   UNL     1       2.566  15.729  19.495  0.00  0.00    +0.000 A 
ATOM      8  C   UNL     1       1.557  16.667  19.408  0.00  0.00    +0.000 A 
ATOM      9  N   UNL     1       0.325  16.361  18.952  0.00  0.00    +0.000 NA
ATOM     10  N   UNL     1       0.050  15.077  18.576  0.00  0.00    +0.000 NA
ATOM     11  H   UNL     1      -0.262  12.797  17.863  0.00  0.00    +0.000 HD
ENDBRANCH   1   2
BRANCH   1  14
ATOM     12  C   UNL     1       1.901   8.514  18.584  0.00  0.00    +0.000 C 
ATOM     13  O   UNL     1       1.954   8.622  17.359  0.00  0.00    +0.000 OA
ATOM     14  N   UNL     1       1.096   9.319  19.350  0.00  0.00    +0.000 N 
ATOM     15  H   UNL     1       1.212   9.321  20.361  0.00  0.00    +0.000 HD
BRANCH  12  16
ATOM     16  C   UNL     1       2.642   7.425  19.349  0.00  0.00    +0.000 C 
BRANCH  16  26
ATOM     17  C   UNL     1       4.879   6.750  17.038  0.00  0.00    +0.000 C 
ATOM     18  C   UNL     1       3.798   5.902  17.604  0.00  0.00    +0.000 A 
ATOM     19  N   UNL     1       3.653   4.598  17.192  0.00  0.00    +0.000 N 
ATOM     20  C   UNL     1       2.720   3.952  17.961  0.00  0.00    +0.000 A 
ATOM     21  C   UNL     1       2.324   2.608  17.947  0.00  0.00    +0.000 A 
ATOM     22  C   UNL     1       1.378   2.201  18.888  0.00  0.00    +0.000 A 
ATOM     23  C   UNL     1       0.841   3.111  19.797  0.00  0.00    +0.000 A 
ATOM     24  C   UNL     1       1.236   4.455  19.784  0.00  0.00    +0.000 A 
ATOM     25  C   UNL     1       2.196   4.888  18.848  0.00  0.00    +0.000 A 
ATOM     26  C   UNL     1       2.844   6.150  18.588  0.00  0.00    +0.000 A 
ATOM     27  H   UNL     1       4.205   4.153  16.477  0.00  0.00    +0.000 HD
ENDBRANCH  16  26
ENDBRANCH  12  16
ENDBRANCH   1  14
BRANCH   1  28
ATOM     28  C   UNL     1      -1.244  10.183  19.119  0.00  0.00    +0.000 C 
BRANCH  28  29
ATOM     29  C   UNL     1      -2.192  10.404  17.960  0.00  0.00    +0.000 A 
ATOM     30  C   UNL     1      -1.980   9.797  16.715  0.00  0.00    +0.000 A 
ATOM     31  C   UNL     1      -2.831  10.062  15.640  0.00  0.00    +0.000 A 
ATOM     32  C   UNL     1      -3.915  10.920  15.802  0.00  0.00    +0.000 A 
ATOM     33  C   UNL     1      -4.158  11.503  17.044  0.00  0.00    +0.000 A 
ATOM     34  C   UNL     1      -3.303  11.246  18.117  0.00  0.00    +0.000 A 
ENDBRANCH  28  29
ENDBRANCH   1  28
TORSDOF 6
ENDMDL
MODEL 4
REMARK VINA RESULT:      -9.0      1.192      2.589
REMARK  Name = 
REMARK  7 active torsions:
REMARK  status: ('A' for Active; 'I' for Inactive)
REMARK    1  A    between atoms: C_1  and  C_2
REMARK    2  A    between atoms: C_10  and  C_11
REMARK    3  A    between atoms: C_11  and  C_12
REMARK    4  A    between atoms: N_14  and  C_15
REMARK    5  A    between atoms: C_15  and  C_16
REMARK    6  A    between atoms: C_15  and  C_23
REMARK    7  A    between atoms: C_16  and  C_17
REMARK                            x       y       z     vdW  Elec       q    Type
REMARK                         _______ _______ _______ _____ _____    ______ ____
ROOT
ATOM      1  C   UNL     1       0.734   9.955  18.534  0.00  0.00    +0.000 C 
ENDROOT
BRANCH   1   2
ATOM      2  C   UNL     1       1.607  11.223  18.698  0.00  0.00    +0.000 C 
ATOM      3  O   UNL     1       2.492  11.493  17.880  0.00  0.00    +0.000 OA
ATOM      4  N   UNL     1       1.295  12.021  19.784  0.00  0.00    +0.000 N 
ATOM      5  C   UNL     1       2.056  13.152  20.108  0.00  0.00    +0.000 A 
ATOM      6  C   UNL     1       2.389  14.112  19.167  0.00  0.00    +0.000 A 
ATOM      7  C   UNL     1       3.175  15.186  19.565  0.00  0.00    +0.000 A 
ATOM      8  C   UNL     1       3.605  15.227  20.876  0.00  0.00    +0.000 A 
ATOM      9  N   UNL     1       3.238  14.301  21.785  0.00  0.00    +0.000 NA
ATOM     10  N   UNL     1       2.425  13.272  21.401  0.00  0.00    +0.000 NA
ATOM     11  H   UNL     1       0.918  11.570  20.604  0.00  0.00    +0.000 HD
ENDBRANCH   1   2
BRANCH   1  14
ATOM     12  C   UNL     1       2.347   8.047  18.360  0.00  0.00    +0.000 C 
ATOM     13  O   UNL     1       2.540   8.249  17.161  0.00  0.00    +0.000 OA
ATOM     14  N   UNL     1       1.481   8.818  19.096  0.00  0.00    +0.000 N 
ATOM     15  H   UNL     1       1.483   8.737  20.110  0.00  0.00    +0.000 HD
BRANCH  12  16
ATOM     16  C   UNL     1       2.968   6.877  19.111  0.00  0.00    +0.000 C 
BRANCH  16  26
ATOM     17  C   UNL     1       1.353   4.293  17.880  0.00  0.00    +0.000 C 
ATOM     18  C   UNL     1       2.780   4.689  17.742  0.00  0.00    +0.000 A 
ATOM     19  N   UNL     1       3.632   3.943  16.962  0.00  0.00    +0.000 N 
ATOM     20  C   UNL     1       4.841   4.577  16.831  0.00  0.00    +0.000 A 
ATOM     21  C   UNL     1       5.959   4.223  16.065  0.00  0.00    +0.000 A 
ATOM     22  C   UNL     1       7.053   5.088  16.075  0.00  0.00    +0.000 A 
ATOM     23  C   UNL     1       7.029   6.255  16.836  0.00  0.00    +0.000 A 
ATOM     24  C   UNL     1       5.910   6.583  17.611  0.00  0.00    +0.000 A 
ATOM     25  C   UNL     1       4.790   5.729  17.610  0.00  0.00    +0.000 A 
ATOM     26  C   UNL     1       3.492   5.778  18.238  0.00  0.00    +0.000 A 
ATOM     27  H   UNL     1       3.385   3.090  16.487  0.00  0.00    +0.000 HD
ENDBRANCH  16  26
ENDBRANCH  12  16
ENDBRANCH   1  14
BRANCH   1  28
ATOM     28  C   UNL     1      -0.690  10.067  19.123  0.00  0.00    +0.000 C 
BRANCH  28  29
ATOM     29  C   UNL     1      -1.776  10.396  18.121  0.00  0.00    +0.000 A 
ATOM     30  C   UNL     1      -2.789  11.318  18.418  0.00  0.00    +0.000 A 
ATOM     31  C   UNL     1      -3.817  11.562  17.505  0.00  0.00    +0.000 A 
ATOM     32  C   UNL     1      -3.834  10.903  16.279  0.00  0.00    +0.000 A 
ATOM     33  C   UNL     1      -2.814  10.011  15.957  0.00  0.00    +0.000 A 
ATOM     34  C   UNL     1      -1.790   9.759  16.872  0.00  0.00    +0.000 A 
ENDBRANCH  28  29
ENDBRANCH   1  28
TORSDOF 6
ENDMDL
MODEL 5
REMARK VINA RESULT:      -8.8      1.273      1.625
REMARK  Name = 
REMARK  7 active torsions:
REMARK  status: ('A' for Active; 'I' for Inactive)
REMARK    1  A    between atoms: C_1  and  C_2
REMARK    2  A    between atoms: C_10  and  C_11
REMARK    3  A    between atoms: C_11  and  C_12
REMARK    4  A    between atoms: N_14  and  C_15
REMARK    5  A    between atoms: C_15  and  C_16
REMARK    6  A    between atoms: C_15  and  C_23
REMARK    7  A    between atoms: C_16  and  C_17
REMARK                            x       y       z     vdW  Elec       q    Type
REMARK                         _______ _______ _______ _____ _____    ______ ____
ROOT
ATOM      1  C   UNL     1       0.238  10.526  19.004  0.00  0.00    +0.000 C 
ENDROOT
BRANCH   1   2
ATOM      2  C   UNL     1       0.832  11.868  19.498  0.00  0.00    +0.000 C 
ATOM      3  O   UNL     1       0.242  12.550  20.341  0.00  0.00    +0.000 OA
ATOM      4  N   UNL     1       2.058  12.209  18.956  0.00  0.00    +0.000 N 
ATOM      5  C   UNL     1       2.673  13.435  19.242  0.00  0.00    +0.000 A 
ATOM      6  C   UNL     1       2.822  13.901  20.538  0.00  0.00    +0.000 A 
ATOM      7  C   UNL     1       3.414  15.144  20.731  0.00  0.00    +0.000 A 
ATOM      8  C   UNL     1       3.801  15.861  19.617  0.00  0.00    +0.000 A 
ATOM      9  N   UNL     1       3.681  15.371  18.367  0.00  0.00    +0.000 NA
ATOM     10  N   UNL     1       3.142  14.128  18.183  0.00  0.00    +0.000 NA
ATOM     11  H   UNL     1       2.262  11.892  18.020  0.00  0.00    +0.000 HD
ENDBRANCH   1   2
BRANCH   1  14
ATOM     12  C   UNL     1       1.706   8.508  18.792  0.00  0.00    +0.000 C 
ATOM     13  O   UNL     1       1.629   8.514  17.564  0.00  0.00    +0.000 OA
ATOM     14  N   UNL     1       1.056   9.438  19.565  0.00  0.00    +0.000 N 
ATOM     15  H   UNL     1       1.285   9.510  20.554  0.00  0.00    +0.000 HD
BRANCH  12  16
ATOM     16  C   UNL     1       2.444   7.424  19.568  0.00  0.00    +0.000 C 
BRANCH  16  26
ATOM     17  C   UNL     1       4.643   6.870  17.190  0.00  0.00    +0.000 C 
ATOM     18  C   UNL     1       3.627   5.965  17.788  0.00  0.00    +0.000 A 
ATOM     19  N   UNL     1       3.540   4.655  17.379  0.00  0.00    +0.000 N 
ATOM     20  C   UNL     1       2.668   3.959  18.176  0.00  0.00    +0.000 A 
ATOM     21  C   UNL     1       2.345   2.596  18.173  0.00  0.00    +0.000 A 
ATOM     22  C   UNL     1       1.452   2.139  19.142  0.00  0.00    +0.000 A 
ATOM     23  C   UNL     1       0.895   3.019  20.067  0.00  0.00    +0.000 A 
ATOM     24  C   UNL     1       1.215   4.382  20.043  0.00  0.00    +0.000 A 
ATOM     25  C   UNL     1       2.121   4.866  19.079  0.00  0.00    +0.000 A 
ATOM     26  C   UNL     1       2.691   6.162  18.801  0.00  0.00    +0.000 A 
ATOM     27  H   UNL     1       4.093   4.239  16.647  0.00  0.00    +0.000 HD
ENDBRANCH  16  26
ENDBRANCH  12  16
ENDBRANCH   1  14
BRANCH   1  28
ATOM     28  C   UNL     1      -1.267  10.335  19.297  0.00  0.00    +0.000 C 
BRANCH  28  29
ATOM     29  C   UNL     1      -2.177  10.471  18.095  0.00  0.00    +0.000 A 
ATOM     30  C   UNL     1      -1.900   9.809  16.891  0.00  0.00    +0.000 A 
ATOM     31  C   UNL     1      -2.717   9.995  15.774  0.00  0.00    +0.000 A 
ATOM     32  C   UNL     1      -3.830  10.828  15.853  0.00  0.00    +0.000 A 
ATOM     33  C   UNL     1      -4.136  11.463  17.054  0.00  0.00    +0.000 A 
ATOM     34  C   UNL     1      -3.315  11.285  18.169  0.00  0.00    +0.000 A 
ENDBRANCH  28  29
ENDBRANCH   1  28
TORSDOF 6
ENDMDL
MODEL 6
REMARK VINA RESULT:      -8.7      2.844      5.051
REMARK  Name = 
REMARK  7 active torsions:
REMARK  status: ('A' for Active; 'I' for Inactive)
REMARK    1  A    between atoms: C_1  and  C_2
REMARK    2  A    between atoms: C_10  and  C_11
REMARK    3  A    between atoms: C_11  and  C_12
REMARK    4  A    between atoms: N_14  and  C_15
REMARK    5  A    between atoms: C_15  and  C_16
REMARK    6  A    between atoms: C_15  and  C_23
REMARK    7  A    between atoms: C_16  and  C_17
REMARK                            x       y       z     vdW  Elec       q    Type
REMARK                         _______ _______ _______ _____ _____    ______ ____
ROOT
ATOM      1  C   UNL     1      -0.224  10.565  20.628  0.00  0.00    +0.000 C 
ENDROOT
BRANCH   1   2
ATOM      2  C   UNL     1      -0.731  10.700  19.171  0.00  0.00    +0.000 C 
ATOM      3  O   UNL     1       0.034  11.039  18.263  0.00  0.00    +0.000 OA
ATOM      4  N   UNL     1      -2.063  10.384  18.975  0.00  0.00    +0.000 N 
ATOM      5  C   UNL     1      -2.681  10.545  17.728  0.00  0.00    +0.000 A 
ATOM      6  C   UNL     1      -2.123  10.055  16.559  0.00  0.00    +0.000 A 
ATOM      7  C   UNL     1      -2.786  10.287  15.360  0.00  0.00    +0.000 A 
ATOM      8  C   UNL     1      -3.957  11.016  15.394  0.00  0.00    +0.000 A 
ATOM      9  N   UNL     1      -4.502  11.451  16.548  0.00  0.00    +0.000 NA
ATOM     10  N   UNL     1      -3.872  11.180  17.731  0.00  0.00    +0.000 NA
ATOM     11  H   UNL     1      -2.702  10.549  19.739  0.00  0.00    +0.000 HD
ENDBRANCH   1   2
BRANCH   1  14
ATOM     12  C   UNL     1       0.644   8.262  21.091  0.00  0.00    +0.000 C 
ATOM     13  O   UNL     1      -0.441   7.885  21.534  0.00  0.00    +0.000 OA
ATOM     14  N   UNL     1       0.837   9.546  20.643  0.00  0.00    +0.000 N 
ATOM     15  H   UNL     1       1.684   9.768  20.124  0.00  0.00    +0.000 HD
BRANCH  12  16
ATOM     16  C   UNL     1       1.886   7.382  21.088  0.00  0.00    +0.000 C 
BRANCH  16  26
ATOM     17  C   UNL     1       2.868   7.963  18.006  0.00  0.00    +0.000 C 
ATOM     18  C   UNL     1       2.384   6.708  18.639  0.00  0.00    +0.000 A 
ATOM     19  N   UNL     1       2.342   5.540  17.916  0.00  0.00    +0.000 N 
ATOM     20  C   UNL     1       2.039   4.480  18.732  0.00  0.00    +0.000 A 
ATOM     21  C   UNL     1       1.976   3.112  18.437  0.00  0.00    +0.000 A 
ATOM     22  C   UNL     1       1.691   2.235  19.484  0.00  0.00    +0.000 A 
ATOM     23  C   UNL     1       1.463   2.715  20.772  0.00  0.00    +0.000 A 
ATOM     24  C   UNL     1       1.512   4.088  21.044  0.00  0.00    +0.000 A 
ATOM     25  C   UNL     1       1.806   4.992  20.005  0.00  0.00    +0.000 A 
ATOM     26  C   UNL     1       1.973   6.424  19.940  0.00  0.00    +0.000 A 
ATOM     27  H   UNL     1       2.576   5.454  16.940  0.00  0.00    +0.000 HD
ENDBRANCH  16  26
ENDBRANCH  12  16
ENDBRANCH   1  14
BRANCH   1  28
ATOM     28  C   UNL     1       0.230  11.890  21.282  0.00  0.00    +0.000 C 
BRANCH  28  29
ATOM     29  C   UNL     1      -0.796  12.545  22.182  0.00  0.00    +0.000 A 
ATOM     30  C   UNL     1      -0.598  13.833  22.699  0.00  0.00    +0.000 A 
ATOM     31  C   UNL     1      -1.526  14.397  23.577  0.00  0.00    +0.000 A 
ATOM     32  C   UNL     1      -2.670  13.689  23.934  0.00  0.00    +0.000 A 
ATOM     33  C   UNL     1      -2.896  12.422  23.400  0.00  0.00    +0.000 A 
ATOM     34  C   UNL     1      -1.965  11.854  22.529  0.00  0.00    +0.000 A 
ENDBRANCH  28  29
ENDBRANCH   1  28
TORSDOF 6
ENDMDL
MODEL 7
REMARK VINA RESULT:      -8.6      1.013      1.349
REMARK  Name = 
REMARK  7 active torsions:
REMARK  status: ('A' for Active; 'I' for Inactive)
REMARK    1  A    between atoms: C_1  and  C_2
REMARK    2  A    between atoms: C_10  and  C_11
REMARK    3  A    between atoms: C_11  and  C_12
REMARK    4  A    between atoms: N_14  and  C_15
REMARK    5  A    between atoms: C_15  and  C_16
REMARK    6  A    between atoms: C_15  and  C_23
REMARK    7  A    between atoms: C_16  and  C_17
REMARK                            x       y       z     vdW  Elec       q    Type
REMARK                         _______ _______ _______ _____ _____    ______ ____
ROOT
ATOM      1  C   UNL     1      -0.067  10.594  18.857  0.00  0.00    +0.000 C 
ENDROOT
BRANCH   1   2
ATOM      2  C   UNL     1       0.270  11.994  19.427  0.00  0.00    +0.000 C 
ATOM      3  O   UNL     1      -0.207  13.015  18.923  0.00  0.00    +0.000 OA
ATOM      4  N   UNL     1       1.096  11.999  20.536  0.00  0.00    +0.000 N 
ATOM      5  C   UNL     1       1.556  13.194  21.105  0.00  0.00    +0.000 A 
ATOM      6  C   UNL     1       0.703  14.242  21.411  0.00  0.00    +0.000 A 
ATOM      7  C   UNL     1       1.247  15.405  21.943  0.00  0.00    +0.000 A 
ATOM      8  C   UNL     1       2.615  15.464  22.116  0.00  0.00    +0.000 A 
ATOM      9  N   UNL     1       3.422  14.418  21.847  0.00  0.00    +0.000 NA
ATOM     10  N   UNL     1       2.878  13.259  21.369  0.00  0.00    +0.000 NA
ATOM     11  H   UNL     1       1.772  11.254  20.622  0.00  0.00    +0.000 HD
ENDBRANCH   1   2
BRANCH   1  14
ATOM     12  C   UNL     1       1.555   8.690  18.740  0.00  0.00    +0.000 C 
ATOM     13  O   UNL     1       1.431   8.588  17.520  0.00  0.00    +0.000 OA
ATOM     14  N   UNL     1       0.859   9.626  19.465  0.00  0.00    +0.000 N 
ATOM     15  H   UNL     1       1.118   9.797  20.434  0.00  0.00    +0.000 HD
BRANCH  12  16
ATOM     16  C   UNL     1       2.408   7.736  19.566  0.00  0.00    +0.000 C 
BRANCH  16  26
ATOM     17  C   UNL     1       4.468   6.962  17.125  0.00  0.00    +0.000 C 
ATOM     18  C   UNL     1       3.521   6.109  17.889  0.00  0.00    +0.000 A 
ATOM     19  N   UNL     1       3.450   4.759  17.638  0.00  0.00    +0.000 N 
ATOM     20  C   UNL     1       2.653   4.139  18.565  0.00  0.00    +0.000 A 
ATOM     21  C   UNL     1       2.373   2.777  18.739  0.00  0.00    +0.000 A 
ATOM     22  C   UNL     1       1.558   2.415  19.812  0.00  0.00    +0.000 A 
ATOM     23  C   UNL     1       1.034   3.382  20.666  0.00  0.00    +0.000 A 
ATOM     24  C   UNL     1       1.309   4.741  20.465  0.00  0.00    +0.000 A 
ATOM     25  C   UNL     1       2.136   5.131  19.394  0.00  0.00    +0.000 A 
ATOM     26  C   UNL     1       2.646   6.399  18.933  0.00  0.00    +0.000 A 
ATOM     27  H   UNL     1       3.969   4.274  16.923  0.00  0.00    +0.000 HD
ENDBRANCH  16  26
ENDBRANCH  12  16
ENDBRANCH   1  14
BRANCH   1  28
ATOM     28  C   UNL     1      -1.543  10.168  19.013  0.00  0.00    +0.000 C 
BRANCH  28  29
ATOM     29  C   UNL     1      -2.405  10.376  17.786  0.00  0.00    +0.000 A 
ATOM     30  C   UNL     1      -2.099   9.760  16.565  0.00  0.00    +0.000 A 
ATOM     31  C   UNL     1      -2.869  10.012  15.428  0.00  0.00    +0.000 A 
ATOM     32  C   UNL     1      -3.965  10.867  15.503  0.00  0.00    +0.000 A 
ATOM     33  C   UNL     1      -4.301  11.458  16.718  0.00  0.00    +0.000 A 
ATOM     34  C   UNL     1      -3.527  11.214  17.854  0.00  0.00    +0.000 A 
ENDBRANCH  28  29
ENDBRANCH   1  28
TORSDOF 6
ENDMDL
MODEL 8
REMARK VINA RESULT:      -8.5      1.517      2.636
REMARK  Name = 
REMARK  7 active torsions:
REMARK  status: ('A' for Active; 'I' for Inactive)
REMARK    1  A    between atoms: C_1  and  C_2
REMARK    2  A    between atoms: C_10  and  C_11
REMARK    3  A    between atoms: C_11  and  C_12
REMARK    4  A    between atoms: N_14  and  C_15
REMARK    5  A    between atoms: C_15  and  C_16
REMARK    6  A    between atoms: C_15  and  C_23
REMARK    7  A    between atoms: C_16  and  C_17
REMARK                            x       y       z     vdW  Elec       q    Type
REMARK                         _______ _______ _______ _____ _____    ______ ____
ROOT
ATOM      1  C   UNL     1       0.285  10.398  18.935  0.00  0.00    +0.000 C 
ENDROOT
BRANCH   1   2
ATOM      2  C   UNL     1       0.825  11.783  19.368  0.00  0.00    +0.000 C 
ATOM      3  O   UNL     1       0.229  12.461  20.210  0.00  0.00    +0.000 OA
ATOM      4  N   UNL     1       2.014  12.167  18.775  0.00  0.00    +0.000 N 
ATOM      5  C   UNL     1       2.576  13.431  19.003  0.00  0.00    +0.000 A 
ATOM      6  C   UNL     1       2.742  13.945  20.278  0.00  0.00    +0.000 A 
ATOM      7  C   UNL     1       3.277  15.220  20.414  0.00  0.00    +0.000 A 
ATOM      8  C   UNL     1       3.591  15.920  19.266  0.00  0.00    +0.000 A 
ATOM      9  N   UNL     1       3.455  15.385  18.036  0.00  0.00    +0.000 NA
ATOM     10  N   UNL     1       2.974  14.112  17.908  0.00  0.00    +0.000 NA
ATOM     11  H   UNL     1       2.204  11.831  17.842  0.00  0.00    +0.000 HD
ENDBRANCH   1   2
BRANCH   1  14
ATOM     12  C   UNL     1       1.733   8.356  18.872  0.00  0.00    +0.000 C 
ATOM     13  O   UNL     1       1.598   8.232  17.655  0.00  0.00    +0.000 OA
ATOM     14  N   UNL     1       1.123   9.369  19.571  0.00  0.00    +0.000 N 
ATOM     15  H   UNL     1       1.398   9.544  20.535  0.00  0.00    +0.000 HD
BRANCH  12  16
ATOM     16  C   UNL     1       2.501   7.354  19.724  0.00  0.00    +0.000 C 
BRANCH  16  26
ATOM     17  C   UNL     1       1.081   4.409  20.058  0.00  0.00    +0.000 C 
ATOM     18  C   UNL     1       2.222   4.834  19.205  0.00  0.00    +0.000 A 
ATOM     19  N   UNL     1       2.821   3.936  18.354  0.00  0.00    +0.000 N 
ATOM     20  C   UNL     1       3.723   4.573  17.540  0.00  0.00    +0.000 A 
ATOM     21  C   UNL     1       4.487   4.067  16.481  0.00  0.00    +0.000 A 
ATOM     22  C   UNL     1       5.295   4.961  15.780  0.00  0.00    +0.000 A 
ATOM     23  C   UNL     1       5.346   6.307  16.138  0.00  0.00    +0.000 A 
ATOM     24  C   UNL     1       4.589   6.791  17.212  0.00  0.00    +0.000 A 
ATOM     25  C   UNL     1       3.758   5.909  17.930  0.00  0.00    +0.000 A 
ATOM     26  C   UNL     1       2.839   6.070  19.031  0.00  0.00    +0.000 A 
ATOM     27  H   UNL     1       2.582   2.961  18.279  0.00  0.00    +0.000 HD
ENDBRANCH  16  26
ENDBRANCH  12  16
ENDBRANCH   1  14
BRANCH   1  28
ATOM     28  C   UNL     1      -1.220  10.176  19.207  0.00  0.00    +0.000 C 
BRANCH  28  29
ATOM     29  C   UNL     1      -2.131  10.442  18.028  0.00  0.00    +0.000 A 
ATOM     30  C   UNL     1      -3.245  11.286  18.141  0.00  0.00    +0.000 A 
ATOM     31  C   UNL     1      -4.109  11.471  17.060  0.00  0.00    +0.000 A 
ATOM     32  C   UNL     1      -3.861  10.830  15.850  0.00  0.00    +0.000 A 
ATOM     33  C   UNL     1      -2.739  10.016  15.714  0.00  0.00    +0.000 A 
ATOM     34  C   UNL     1      -1.878   9.824  16.796  0.00  0.00    +0.000 A 
ENDBRANCH  28  29
ENDBRANCH   1  28
TORSDOF 6
ENDMDL
MODEL 9
REMARK VINA RESULT:      -8.4      2.103      8.920
REMARK  Name = 
REMARK  7 active torsions:
REMARK  status: ('A' for Active; 'I' for Inactive)
REMARK    1  A    between atoms: C_1  and  C_2
REMARK    2  A    between atoms: C_10  and  C_11
REMARK    3  A    between atoms: C_11  and  C_12
REMARK    4  A    between atoms: N_14  and  C_15
REMARK    5  A    between atoms: C_15  and  C_16
REMARK    6  A    between atoms: C_15  and  C_23
REMARK    7  A    between atoms: C_16  and  C_17
REMARK                            x       y       z     vdW  Elec       q    Type
REMARK                         _______ _______ _______ _____ _____    ______ ____
ROOT
ATOM      1  C   UNL     1       2.639   7.012  19.687  0.00  0.00    +0.000 C 
ENDROOT
BRANCH   1   2
ATOM      2  C   UNL     1       3.723   6.187  18.950  0.00  0.00    +0.000 C 
ATOM      3  O   UNL     1       4.513   5.475  19.578  0.00  0.00    +0.000 OA
ATOM      4  N   UNL     1       3.708   6.286  17.571  0.00  0.00    +0.000 N 
ATOM      5  C   UNL     1       4.683   5.666  16.778  0.00  0.00    +0.000 A 
ATOM      6  C   UNL     1       5.029   4.335  16.941  0.00  0.00    +0.000 A 
ATOM      7  C   UNL     1       6.030   3.807  16.134  0.00  0.00    +0.000 A 
ATOM      8  C   UNL     1       6.647   4.647  15.229  0.00  0.00    +0.000 A 
ATOM      9  N   UNL     1       6.268   5.930  15.062  0.00  0.00    +0.000 NA
ATOM     10  N   UNL     1       5.250   6.433  15.823  0.00  0.00    +0.000 NA
ATOM     11  H   UNL     1       3.384   7.152  17.165  0.00  0.00    +0.000 HD
ENDBRANCH   1   2
BRANCH   1  14
ATOM     12  C   UNL     1       1.329   9.054  19.067  0.00  0.00    +0.000 C 
ATOM     13  O   UNL     1       1.147   9.361  20.245  0.00  0.00    +0.000 OA
ATOM     14  N   UNL     1       2.030   7.929  18.709  0.00  0.00    +0.000 N 
ATOM     15  H   UNL     1       2.310   7.805  17.739  0.00  0.00    +0.000 HD
BRANCH  12  16
ATOM     16  C   UNL     1       0.719   9.831  17.907  0.00  0.00    +0.000 C 
BRANCH  16  26
ATOM     17  C   UNL     1      -2.506  10.387  18.208  0.00  0.00    +0.000 C 
ATOM     18  C   UNL     1      -1.351  11.302  18.406  0.00  0.00    +0.000 A 
ATOM     19  N   UNL     1      -1.558  12.597  18.821  0.00  0.00    +0.000 N 
ATOM     20  C   UNL     1      -0.363  13.205  19.109  0.00  0.00    +0.000 A 
ATOM     21  C   UNL     1      -0.111  14.477  19.638  0.00  0.00    +0.000 A 
ATOM     22  C   UNL     1       1.217  14.826  19.884  0.00  0.00    +0.000 A 
ATOM     23  C   UNL     1       2.251  13.937  19.595  0.00  0.00    +0.000 A 
ATOM     24  C   UNL     1       1.981  12.676  19.049  0.00  0.00    +0.000 A 
ATOM     25  C   UNL     1       0.647  12.298  18.800  0.00  0.00    +0.000 A 
ATOM     26  C   UNL     1       0.022  11.098  18.299  0.00  0.00    +0.000 A 
ATOM     27  H   UNL     1      -2.459  13.021  18.968  0.00  0.00    +0.000 HD
ENDBRANCH  16  26
ENDBRANCH  12  16
ENDBRANCH   1  14
BRANCH   1  28
ATOM     28  C   UNL     1       1.582   6.171  20.437  0.00  0.00    +0.000 C 
BRANCH  28  29
ATOM     29  C   UNL     1       1.594   4.692  20.117  0.00  0.00    +0.000 A 
ATOM     30  C   UNL     1       1.928   3.737  21.088  0.00  0.00    +0.000 A 
ATOM     31  C   UNL     1       1.993   2.382  20.758  0.00  0.00    +0.000 A 
ATOM     32  C   UNL     1       1.708   1.963  19.462  0.00  0.00    +0.000 A 
ATOM     33  C   UNL     1       1.342   2.898  18.497  0.00  0.00    +0.000 A 
ATOM     34  C   UNL     1       1.283   4.254  18.822  0.00  0.00    +0.000 A 
ENDBRANCH  28  29
ENDBRANCH   1  28
TORSDOF 6
ENDMDL
