MODEL 1
REMARK VINA RESULT:      -7.4      0.000      0.000
REMARK  Name = 
REMARK  9 active torsions:
REMARK  status: ('A' for Active; 'I' for Inactive)
REMARK    1  A    between atoms: C_1  and  O_2
REMARK    2  A    between atoms: O_2  and  C_3
REMARK    3  A    between atoms: C_6  and  S_7
REMARK    4  A    between atoms: S_7  and  C_8
REMARK    5  A    between atoms: C_8  and  C_9
REMARK    6  A    between atoms: C_9  and  N_10
REMARK    7  A    between atoms: N_13  and  C_14
REMARK    8  A    between atoms: C_14  and  C_15
REMARK    9  A    between atoms: C_15  and  C_16
REMARK                            x       y       z     vdW  Elec       q    Type
REMARK                         _______ _______ _______ _____ _____    ______ ____
ROOT
ATOM      1  N   UNL     1       2.148   4.981  20.183  0.00  0.00    +0.000 N 
ATOM      2  C   UNL     1       2.706   5.348  18.880  0.00  0.00    +0.000 C 
ATOM      3  C   UNL     1       2.252   4.439  17.723  0.00  0.00    +0.000 C 
ATOM      4  N   UNL     1       2.907   3.123  17.629  0.00  0.00    +0.000 NA
ATOM      5  C   UNL     1       2.572   2.289  18.789  0.00  0.00    +0.000 C 
ATOM      6  C   UNL     1       3.189   2.711  20.114  0.00  0.00    +0.000 C 
ATOM      7  C   UNL     1       2.412   3.787  20.837  0.00  0.00    +0.000 C 
ATOM      8  O   UNL     1       2.082   3.604  22.011  0.00  0.00    +0.000 OA
ENDROOT
BRANCH   1   9
ATOM      9  C   UNL     1       1.521   6.054  20.963  0.00  0.00    +0.000 C 
BRANCH   9  10
ATOM     10  C   UNL     1       1.831   7.448  20.398  0.00  0.00    +0.000 C 
BRANCH  10  11
ATOM     11  S   UNL     1       1.185   8.701  21.556  0.00  0.00    +0.000 S 
BRANCH  11  15
ATOM     12  C   UNL     1      -1.308  11.290  18.691  0.00  0.00    +0.000 A 
ATOM     13  C   UNL     1      -0.461  10.285  18.226  0.00  0.00    +0.000 A 
ATOM     14  C   UNL     1       0.298   9.532  19.124  0.00  0.00    +0.000 A 
ATOM     15  C   UNL     1       0.244   9.787  20.500  0.00  0.00    +0.000 A 
ATOM     16  C   UNL     1      -0.588  10.814  20.958  0.00  0.00    +0.000 A 
ATOM     17  C   UNL     1      -1.358  11.565  20.057  0.00  0.00    +0.000 A 
BRANCH  12  19
ATOM     18  C   UNL     1      -2.462  11.149  16.636  0.00  0.00    +0.000 C 
ATOM     19  O   UNL     1      -2.011  11.950  17.724  0.00  0.00    +0.000 OA
ENDBRANCH  12  19
ENDBRANCH  11  15
ENDBRANCH  10  11
ENDBRANCH   9  10
ENDBRANCH   1   9
BRANCH   4  20
ATOM     20  C   UNL     1       4.349   3.255  17.343  0.00  0.00    +0.000 C 
BRANCH  20  21
ATOM     21  C   UNL     1       4.730   4.414  16.409  0.00  0.00    +0.000 C 
BRANCH  21  22
ATOM     22  C   UNL     1       5.823   5.252  17.028  0.00  0.00    +0.000 A 
ATOM     23  C   UNL     1       6.685   4.699  17.987  0.00  0.00    +0.000 A 
ATOM     24  C   UNL     1       7.669   5.484  18.590  0.00  0.00    +0.000 A 
ATOM     25  C   UNL     1       7.793   6.829  18.244  0.00  0.00    +0.000 A 
ATOM     26  C   UNL     1       6.937   7.389  17.298  0.00  0.00    +0.000 A 
ATOM     27  C   UNL     1       5.954   6.605  16.694  0.00  0.00    +0.000 A 
ENDBRANCH  21  22
ENDBRANCH  20  21
ENDBRANCH   4  20
TORSDOF 8
ENDMDL
MODEL 2
REMARK VINA RESULT:      -7.4      2.782      4.914
REMARK  Name = 
REMARK  9 active torsions:
REMARK  status: ('A' for Active; 'I' for Inactive)
REMARK    1  A    between atoms: C_1  and  O_2
REMARK    2  A    between atoms: O_2  and  C_3
REMARK    3  A    between atoms: C_6  and  S_7
REMARK    4  A    between atoms: S_7  and  C_8
REMARK    5  A    between atoms: C_8  and  C_9
REMARK    6  A    between atoms: C_9  and  N_10
REMARK    7  A    between atoms: N_13  and  C_14
REMARK    8  A    between atoms: C_14  and  C_15
REMARK    9  A    between atoms: C_15  and  C_16
REMARK                            x       y       z     vdW  Elec       q    Type
REMARK                         _______ _______ _______ _____ _____    ______ ____
ROOT
ATOM      1  N   UNL     1       4.180   6.672  17.472  0.00  0.00    +0.000 N 
ATOM      2  C   UNL     1       3.852   5.749  18.560  0.00  0.00    +0.000 C 
ATOM      3  C   UNL     1       5.072   5.269  19.368  0.00  0.00    +0.000 C 
ATOM      4  N   UNL     1       5.905   4.229  18.741  0.00  0.00    +0.000 NA
ATOM      5  C   UNL     1       6.554   4.740  17.528  0.00  0.00    +0.000 C 
ATOM      6  C   UNL     1       5.641   4.992  16.337  0.00  0.00    +0.000 C 
ATOM      7  C   UNL     1       4.949   6.336  16.368  0.00  0.00    +0.000 C 
ATOM      8  O   UNL     1       5.037   7.079  15.388  0.00  0.00    +0.000 OA
ENDROOT
BRANCH   1   9
ATOM      9  C   UNL     1       3.409   7.918  17.404  0.00  0.00    +0.000 C 
BRANCH   9  10
ATOM     10  C   UNL     1       2.348   8.013  18.510  0.00  0.00    +0.000 C 
BRANCH  10  11
ATOM     11  S   UNL     1       1.324   9.493  18.208  0.00  0.00    +0.000 S 
BRANCH  11  15
ATOM     12  C   UNL     1      -0.505  10.648  22.262  0.00  0.00    +0.000 A 
ATOM     13  C   UNL     1      -0.366  11.572  21.229  0.00  0.00    +0.000 A 
ATOM     14  C   UNL     1       0.213  11.192  20.016  0.00  0.00    +0.000 A 
ATOM     15  C   UNL     1       0.689   9.889  19.826  0.00  0.00    +0.000 A 
ATOM     16  C   UNL     1       0.571   8.973  20.878  0.00  0.00    +0.000 A 
ATOM     17  C   UNL     1      -0.020   9.352  22.091  0.00  0.00    +0.000 A 
BRANCH  12  19
ATOM     18  C   UNL     1      -2.216  11.988  23.187  0.00  0.00    +0.000 C 
ATOM     19  O   UNL     1      -1.099  11.129  23.395  0.00  0.00    +0.000 OA
ENDBRANCH  12  19
ENDBRANCH  11  15
ENDBRANCH  10  11
ENDBRANCH   9  10
ENDBRANCH   1   9
BRANCH   4  20
ATOM     20  C   UNL     1       5.158   2.967  18.571  0.00  0.00    +0.000 C 
BRANCH  20  21
ATOM     21  C   UNL     1       4.640   2.331  19.870  0.00  0.00    +0.000 C 
BRANCH  21  22
ATOM     22  C   UNL     1       3.142   2.493  19.975  0.00  0.00    +0.000 A 
ATOM     23  C   UNL     1       2.330   2.341  18.841  0.00  0.00    +0.000 A 
ATOM     24  C   UNL     1       0.950   2.532  18.930  0.00  0.00    +0.000 A 
ATOM     25  C   UNL     1       0.374   2.883  20.150  0.00  0.00    +0.000 A 
ATOM     26  C   UNL     1       1.173   3.041  21.280  0.00  0.00    +0.000 A 
ATOM     27  C   UNL     1       2.552   2.851  21.193  0.00  0.00    +0.000 A 
ENDBRANCH  21  22
ENDBRANCH  20  21
ENDBRANCH   4  20
TORSDOF 8
ENDMDL
MODEL 3
REMARK VINA RESULT:      -7.3      0.504      1.061
REMARK  Name = 
REMARK  9 active torsions:
REMARK  status: ('A' for Active; 'I' for Inactive)
REMARK    1  A    between atoms: C_1  and  O_2
REMARK    2  A    between atoms: O_2  and  C_3
REMARK    3  A    between atoms: C_6  and  S_7
REMARK    4  A    between atoms: S_7  and  C_8
REMARK    5  A    between atoms: C_8  and  C_9
REMARK    6  A    between atoms: C_9  and  N_10
REMARK    7  A    between atoms: N_13  and  C_14
REMARK    8  A    between atoms: C_14  and  C_15
REMARK    9  A    between atoms: C_15  and  C_16
REMARK                            x       y       z     vdW  Elec       q    Type
REMARK                         _______ _______ _______ _____ _____    ______ ____
ROOT
ATOM      1  N   UNL     1       2.118   5.010  19.979  0.00  0.00    +0.000 N 
ATOM      2  C   UNL     1       3.112   5.448  18.997  0.00  0.00    +0.000 C 
ATOM      3  C   UNL     1       2.803   5.011  17.553  0.00  0.00    +0.000 C 
ATOM      4  N   UNL     1       3.096   3.606  17.218  0.00  0.00    +0.000 NA
ATOM      5  C   UNL     1       2.230   2.697  17.978  0.00  0.00    +0.000 C 
ATOM      6  C   UNL     1       2.513   2.597  19.469  0.00  0.00    +0.000 C 
ATOM      7  C   UNL     1       1.861   3.684  20.292  0.00  0.00    +0.000 C 
ATOM      8  O   UNL     1       1.162   3.369  21.258  0.00  0.00    +0.000 OA
ENDROOT
BRANCH   1   9
ATOM      9  C   UNL     1       1.586   6.033  20.886  0.00  0.00    +0.000 C 
BRANCH   9  10
ATOM     10  C   UNL     1       1.913   7.459  20.419  0.00  0.00    +0.000 C 
BRANCH  10  11
ATOM     11  S   UNL     1       1.164   8.641  21.591  0.00  0.00    +0.000 S 
BRANCH  11  15
ATOM     12  C   UNL     1      -1.174  11.335  18.693  0.00  0.00    +0.000 A 
ATOM     13  C   UNL     1      -0.268  10.378  18.239  0.00  0.00    +0.000 A 
ATOM     14  C   UNL     1       0.441   9.590  19.148  0.00  0.00    +0.000 A 
ATOM     15  C   UNL     1       0.278   9.765  20.528  0.00  0.00    +0.000 A 
ATOM     16  C   UNL     1      -0.614  10.745  20.978  0.00  0.00    +0.000 A 
ATOM     17  C   UNL     1      -1.333  11.529  20.064  0.00  0.00    +0.000 A 
BRANCH  12  19
ATOM     18  C   UNL     1      -2.859  11.332  17.039  0.00  0.00    +0.000 C 
ATOM     19  O   UNL     1      -1.819  12.034  17.713  0.00  0.00    +0.000 OA
ENDBRANCH  12  19
ENDBRANCH  11  15
ENDBRANCH  10  11
ENDBRANCH   9  10
ENDBRANCH   1   9
BRANCH   4  20
ATOM     20  C   UNL     1       4.541   3.319  17.304  0.00  0.00    +0.000 C 
BRANCH  20  21
ATOM     21  C   UNL     1       5.427   4.110  16.329  0.00  0.00    +0.000 C 
BRANCH  21  22
ATOM     22  C   UNL     1       6.278   5.106  17.079  0.00  0.00    +0.000 A 
ATOM     23  C   UNL     1       6.315   6.451  16.680  0.00  0.00    +0.000 A 
ATOM     24  C   UNL     1       7.134   7.363  17.348  0.00  0.00    +0.000 A 
ATOM     25  C   UNL     1       7.927   6.937  18.412  0.00  0.00    +0.000 A 
ATOM     26  C   UNL     1       7.901   5.602  18.810  0.00  0.00    +0.000 A 
ATOM     27  C   UNL     1       7.084   4.689  18.146  0.00  0.00    +0.000 A 
ENDBRANCH  21  22
ENDBRANCH  20  21
ENDBRANCH   4  20
TORSDOF 8
ENDMDL
MODEL 4
REMARK VINA RESULT:      -7.3      2.955      4.441
REMARK  Name = 
REMARK  9 active torsions:
REMARK  status: ('A' for Active; 'I' for Inactive)
REMARK    1  A    between atoms: C_1  and  O_2
REMARK    2  A    between atoms: O_2  and  C_3
REMARK    3  A    between atoms: C_6  and  S_7
REMARK    4  A    between atoms: S_7  and  C_8
REMARK    5  A    between atoms: C_8  and  C_9
REMARK    6  A    between atoms: C_9  and  N_10
REMARK    7  A    between atoms: N_13  and  C_14
REMARK    8  A    between atoms: C_14  and  C_15
REMARK    9  A    between atoms: C_15  and  C_16
REMARK                            x       y       z     vdW  Elec       q    Type
REMARK                         _______ _______ _______ _____ _____    ______ ____
ROOT
ATOM      1  N   UNL     1       4.666   5.256  17.988  0.00  0.00    +0.000 N 
ATOM      2  C   UNL     1       4.784   6.538  17.293  0.00  0.00    +0.000 C 
ATOM      3  C   UNL     1       6.000   6.634  16.352  0.00  0.00    +0.000 C 
ATOM      4  N   UNL     1       7.306   6.865  16.993  0.00  0.00    +0.000 NA
ATOM      5  C   UNL     1       7.687   5.722  17.830  0.00  0.00    +0.000 C 
ATOM      6  C   UNL     1       6.883   5.532  19.108  0.00  0.00    +0.000 C 
ATOM      7  C   UNL     1       5.587   4.780  18.910  0.00  0.00    +0.000 C 
ATOM      8  O   UNL     1       5.351   3.795  19.613  0.00  0.00    +0.000 OA
ENDROOT
BRANCH   1   9
ATOM      9  C   UNL     1       3.363   4.585  17.929  0.00  0.00    +0.000 C 
BRANCH   9  10
ATOM     10  C   UNL     1       2.194   5.553  18.166  0.00  0.00    +0.000 C 
BRANCH  10  11
ATOM     11  S   UNL     1       2.260   6.133  19.895  0.00  0.00    +0.000 S 
BRANCH  11  15
ATOM     12  C   UNL     1       0.916  10.493  19.342  0.00  0.00    +0.000 A 
ATOM     13  C   UNL     1       1.490   9.763  18.303  0.00  0.00    +0.000 A 
ATOM     14  C   UNL     1       1.906   8.447  18.512  0.00  0.00    +0.000 A 
ATOM     15  C   UNL     1       1.781   7.846  19.771  0.00  0.00    +0.000 A 
ATOM     16  C   UNL     1       1.228   8.593  20.817  0.00  0.00    +0.000 A 
ATOM     17  C   UNL     1       0.802   9.912  20.604  0.00  0.00    +0.000 A 
BRANCH  12  19
ATOM     18  C   UNL     1      -0.805  11.904  18.555  0.00  0.00    +0.000 C 
ATOM     19  O   UNL     1       0.534  11.764  19.017  0.00  0.00    +0.000 OA
ENDBRANCH  12  19
ENDBRANCH  11  15
ENDBRANCH  10  11
ENDBRANCH   9  10
ENDBRANCH   1   9
BRANCH   4  20
ATOM     20  C   UNL     1       7.356   8.180  17.663  0.00  0.00    +0.000 C 
BRANCH  20  21
ATOM     21  C   UNL     1       8.594   8.424  18.539  0.00  0.00    +0.000 C 
BRANCH  21  22
ATOM     22  C   UNL     1       8.875   9.904  18.654  0.00  0.00    +0.000 A 
ATOM     23  C   UNL     1       9.508  10.419  19.796  0.00  0.00    +0.000 A 
ATOM     24  C   UNL     1       9.730  11.791  19.921  0.00  0.00    +0.000 A 
ATOM     25  C   UNL     1       9.314  12.658  18.912  0.00  0.00    +0.000 A 
ATOM     26  C   UNL     1       8.680  12.156  17.778  0.00  0.00    +0.000 A 
ATOM     27  C   UNL     1       8.457  10.785  17.650  0.00  0.00    +0.000 A 
ENDBRANCH  21  22
ENDBRANCH  20  21
ENDBRANCH   4  20
TORSDOF 8
ENDMDL
MODEL 5
REMARK VINA RESULT:      -7.2      4.869      7.919
REMARK  Name = 
REMARK  9 active torsions:
REMARK  status: ('A' for Active; 'I' for Inactive)
REMARK    1  A    between atoms: C_1  and  O_2
REMARK    2  A    between atoms: O_2  and  C_3
REMARK    3  A    between atoms: C_6  and  S_7
REMARK    4  A    between atoms: S_7  and  C_8
REMARK    5  A    between atoms: C_8  and  C_9
REMARK    6  A    between atoms: C_9  and  N_10
REMARK    7  A    between atoms: N_13  and  C_14
REMARK    8  A    between atoms: C_14  and  C_15
REMARK    9  A    between atoms: C_15  and  C_16
REMARK                            x       y       z     vdW  Elec       q    Type
REMARK                         _______ _______ _______ _____ _____    ______ ____
ROOT
ATOM      1  N   UNL     1       6.754   6.702  17.753  0.00  0.00    +0.000 N 
ATOM      2  C   UNL     1       5.652   6.703  16.790  0.00  0.00    +0.000 C 
ATOM      3  C   UNL     1       4.280   7.037  17.404  0.00  0.00    +0.000 C 
ATOM      4  N   UNL     1       3.618   5.956  18.155  0.00  0.00    +0.000 NA
ATOM      5  C   UNL     1       4.386   5.608  19.355  0.00  0.00    +0.000 C 
ATOM      6  C   UNL     1       5.707   4.890  19.118  0.00  0.00    +0.000 C 
ATOM      7  C   UNL     1       6.862   5.816  18.815  0.00  0.00    +0.000 C 
ATOM      8  O   UNL     1       7.897   5.723  19.480  0.00  0.00    +0.000 OA
ENDROOT
BRANCH   1   9
ATOM      9  C   UNL     1       7.946   7.480  17.399  0.00  0.00    +0.000 C 
BRANCH   9  10
ATOM     10  C   UNL     1       7.772   8.980  17.680  0.00  0.00    +0.000 C 
BRANCH  10  11
ATOM     11  S   UNL     1       8.924   9.460  19.011  0.00  0.00    +0.000 S 
BRANCH  11  15
ATOM     12  C   UNL     1      10.403  13.591  17.641  0.00  0.00    +0.000 A 
ATOM     13  C   UNL     1       9.079  13.190  17.471  0.00  0.00    +0.000 A 
ATOM     14  C   UNL     1       8.669  11.919  17.880  0.00  0.00    +0.000 A 
ATOM     15  C   UNL     1       9.581  11.017  18.441  0.00  0.00    +0.000 A 
ATOM     16  C   UNL     1      10.914  11.416  18.586  0.00  0.00    +0.000 A 
ATOM     17  C   UNL     1      11.324  12.696  18.184  0.00  0.00    +0.000 A 
BRANCH  12  19
ATOM     18  C   UNL     1      10.635  15.868  18.222  0.00  0.00    +0.000 C 
ATOM     19  O   UNL     1      10.685  14.859  17.218  0.00  0.00    +0.000 OA
ENDBRANCH  12  19
ENDBRANCH  11  15
ENDBRANCH  10  11
ENDBRANCH   9  10
ENDBRANCH   1   9
BRANCH   4  20
ATOM     20  C   UNL     1       3.272   4.821  17.277  0.00  0.00    +0.000 C 
BRANCH  20  21
ATOM     21  C   UNL     1       1.925   4.145  17.578  0.00  0.00    +0.000 C 
BRANCH  21  22
ATOM     22  C   UNL     1       1.947   3.512  18.949  0.00  0.00    +0.000 A 
ATOM     23  C   UNL     1       1.070   3.957  19.950  0.00  0.00    +0.000 A 
ATOM     24  C   UNL     1       1.118   3.400  21.230  0.00  0.00    +0.000 A 
ATOM     25  C   UNL     1       2.048   2.403  21.519  0.00  0.00    +0.000 A 
ATOM     26  C   UNL     1       2.927   1.959  20.533  0.00  0.00    +0.000 A 
ATOM     27  C   UNL     1       2.879   2.513  19.254  0.00  0.00    +0.000 A 
ENDBRANCH  21  22
ENDBRANCH  20  21
ENDBRANCH   4  20
TORSDOF 8
ENDMDL
MODEL 6
REMARK VINA RESULT:      -7.1      1.034      1.660
REMARK  Name = 
REMARK  9 active torsions:
REMARK  status: ('A' for Active; 'I' for Inactive)
REMARK    1  A    between atoms: C_1  and  O_2
REMARK    2  A    between atoms: O_2  and  C_3
REMARK    3  A    between atoms: C_6  and  S_7
REMARK    4  A    between atoms: S_7  and  C_8
REMARK    5  A    between atoms: C_8  and  C_9
REMARK    6  A    between atoms: C_9  and  N_10
REMARK    7  A    between atoms: N_13  and  C_14
REMARK    8  A    between atoms: C_14  and  C_15
REMARK    9  A    between atoms: C_15  and  C_16
REMARK                            x       y       z     vdW  Elec       q    Type
REMARK                         _______ _______ _______ _____ _____    ______ ____
ROOT
ATOM      1  N   UNL     1       2.109   4.961  20.217  0.00  0.00    +0.000 N 
ATOM      2  C   UNL     1       2.671   5.366  18.928  0.00  0.00    +0.000 C 
ATOM      3  C   UNL     1       2.232   4.482  17.746  0.00  0.00    +0.000 C 
ATOM      4  N   UNL     1       2.899   3.174  17.623  0.00  0.00    +0.000 NA
ATOM      5  C   UNL     1       2.566   2.309  18.760  0.00  0.00    +0.000 C 
ATOM      6  C   UNL     1       3.171   2.703  20.100  0.00  0.00    +0.000 C 
ATOM      7  C   UNL     1       2.381   3.754  20.844  0.00  0.00    +0.000 C 
ATOM      8  O   UNL     1       2.045   3.539  22.011  0.00  0.00    +0.000 OA
ENDROOT
BRANCH   1   9
ATOM      9  C   UNL     1       1.468   6.009  21.020  0.00  0.00    +0.000 C 
BRANCH   9  10
ATOM     10  C   UNL     1       1.695   7.413  20.441  0.00  0.00    +0.000 C 
BRANCH  10  11
ATOM     11  S   UNL     1       0.994   8.639  21.597  0.00  0.00    +0.000 S 
BRANCH  11  15
ATOM     12  C   UNL     1       0.008  12.186  18.846  0.00  0.00    +0.000 A 
ATOM     13  C   UNL     1       0.809  12.333  19.977  0.00  0.00    +0.000 A 
ATOM     14  C   UNL     1       1.071  11.238  20.802  0.00  0.00    +0.000 A 
ATOM     15  C   UNL     1       0.515   9.983  20.527  0.00  0.00    +0.000 A 
ATOM     16  C   UNL     1      -0.309   9.847  19.404  0.00  0.00    +0.000 A 
ATOM     17  C   UNL     1      -0.565  10.945  18.570  0.00  0.00    +0.000 A 
BRANCH  12  19
ATOM     18  C   UNL     1      -0.303  14.526  18.852  0.00  0.00    +0.000 C 
ATOM     19  O   UNL     1      -0.166  13.321  18.106  0.00  0.00    +0.000 OA
ENDBRANCH  12  19
ENDBRANCH  11  15
ENDBRANCH  10  11
ENDBRANCH   9  10
ENDBRANCH   1   9
BRANCH   4  20
ATOM     20  C   UNL     1       4.342   3.326  17.349  0.00  0.00    +0.000 C 
BRANCH  20  21
ATOM     21  C   UNL     1       4.720   4.528  16.470  0.00  0.00    +0.000 C 
BRANCH  21  22
ATOM     22  C   UNL     1       5.802   5.347  17.134  0.00  0.00    +0.000 A 
ATOM     23  C   UNL     1       6.004   6.686  16.766  0.00  0.00    +0.000 A 
ATOM     24  C   UNL     1       7.030   7.431  17.349  0.00  0.00    +0.000 A 
ATOM     25  C   UNL     1       7.866   6.841  18.296  0.00  0.00    +0.000 A 
ATOM     26  C   UNL     1       7.677   5.510  18.662  0.00  0.00    +0.000 A 
ATOM     27  C   UNL     1       6.651   4.765  18.081  0.00  0.00    +0.000 A 
ENDBRANCH  21  22
ENDBRANCH  20  21
ENDBRANCH   4  20
TORSDOF 8
ENDMDL
MODEL 7
REMARK VINA RESULT:      -7.1      2.575      7.417
REMARK  Name = 
REMARK  9 active torsions:
REMARK  status: ('A' for Active; 'I' for Inactive)
REMARK    1  A    between atoms: C_1  and  O_2
REMARK    2  A    between atoms: O_2  and  C_3
REMARK    3  A    between atoms: C_6  and  S_7
REMARK    4  A    between atoms: S_7  and  C_8
REMARK    5  A    between atoms: C_8  and  C_9
REMARK    6  A    between atoms: C_9  and  N_10
REMARK    7  A    between atoms: N_13  and  C_14
REMARK    8  A    between atoms: C_14  and  C_15
REMARK    9  A    between atoms: C_15  and  C_16
REMARK                            x       y       z     vdW  Elec       q    Type
REMARK                         _______ _______ _______ _____ _____    ______ ____
ROOT
ATOM      1  N   UNL     1       1.771   4.134  18.968  0.00  0.00    +0.000 N 
ATOM      2  C   UNL     1       1.760   4.970  17.766  0.00  0.00    +0.000 C 
ATOM      3  C   UNL     1       2.845   6.063  17.751  0.00  0.00    +0.000 C 
ATOM      4  N   UNL     1       2.585   7.255  18.578  0.00  0.00    +0.000 NA
ATOM      5  C   UNL     1       2.558   6.905  20.003  0.00  0.00    +0.000 C 
ATOM      6  C   UNL     1       1.360   6.090  20.468  0.00  0.00    +0.000 C 
ATOM      7  C   UNL     1       1.508   4.602  20.247  0.00  0.00    +0.000 C 
ATOM      8  O   UNL     1       1.335   3.834  21.196  0.00  0.00    +0.000 OA
ENDROOT
BRANCH   1   9
ATOM      9  C   UNL     1       1.763   2.681  18.766  0.00  0.00    +0.000 C 
BRANCH   9  10
ATOM     10  C   UNL     1       3.106   2.156  18.239  0.00  0.00    +0.000 C 
BRANCH  10  11
ATOM     11  S   UNL     1       4.424   2.664  19.394  0.00  0.00    +0.000 S 
BRANCH  11  15
ATOM     12  C   UNL     1       6.898   5.869  17.218  0.00  0.00    +0.000 A 
ATOM     13  C   UNL     1       6.742   5.875  18.603  0.00  0.00    +0.000 A 
ATOM     14  C   UNL     1       5.966   4.898  19.229  0.00  0.00    +0.000 A 
ATOM     15  C   UNL     1       5.310   3.914  18.480  0.00  0.00    +0.000 A 
ATOM     16  C   UNL     1       5.449   3.929  17.088  0.00  0.00    +0.000 A 
ATOM     17  C   UNL     1       6.236   4.904  16.459  0.00  0.00    +0.000 A 
BRANCH  12  19
ATOM     18  C   UNL     1       7.760   8.048  17.506  0.00  0.00    +0.000 C 
ATOM     19  O   UNL     1       7.690   6.864  16.719  0.00  0.00    +0.000 OA
ENDBRANCH  12  19
ENDBRANCH  11  15
ENDBRANCH  10  11
ENDBRANCH   9  10
ENDBRANCH   1   9
BRANCH   4  20
ATOM     20  C   UNL     1       1.411   8.006  18.091  0.00  0.00    +0.000 C 
BRANCH  20  21
ATOM     21  C   UNL     1       1.607   9.526  17.975  0.00  0.00    +0.000 C 
BRANCH  21  22
ATOM     22  C   UNL     1       0.549  10.256  18.769  0.00  0.00    +0.000 A 
ATOM     23  C   UNL     1      -0.737  10.437  18.239  0.00  0.00    +0.000 A 
ATOM     24  C   UNL     1      -1.702  11.147  18.954  0.00  0.00    +0.000 A 
ATOM     25  C   UNL     1      -1.386  11.688  20.200  0.00  0.00    +0.000 A 
ATOM     26  C   UNL     1      -0.109  11.518  20.731  0.00  0.00    +0.000 A 
ATOM     27  C   UNL     1       0.856  10.808  20.018  0.00  0.00    +0.000 A 
ENDBRANCH  21  22
ENDBRANCH  20  21
ENDBRANCH   4  20
TORSDOF 8
ENDMDL
MODEL 8
REMARK VINA RESULT:      -7.0      1.101      1.621
REMARK  Name = 
REMARK  9 active torsions:
REMARK  status: ('A' for Active; 'I' for Inactive)
REMARK    1  A    between atoms: C_1  and  O_2
REMARK    2  A    between atoms: O_2  and  C_3
REMARK    3  A    between atoms: C_6  and  S_7
REMARK    4  A    between atoms: S_7  and  C_8
REMARK    5  A    between atoms: C_8  and  C_9
REMARK    6  A    between atoms: C_9  and  N_10
REMARK    7  A    between atoms: N_13  and  C_14
REMARK    8  A    between atoms: C_14  and  C_15
REMARK    9  A    between atoms: C_15  and  C_16
REMARK                            x       y       z     vdW  Elec       q    Type
REMARK                         _______ _______ _______ _____ _____    ______ ____
ROOT
ATOM      1  N   UNL     1       2.254   5.216  20.055  0.00  0.00    +0.000 N 
ATOM      2  C   UNL     1       3.322   5.686  19.171  0.00  0.00    +0.000 C 
ATOM      3  C   UNL     1       3.062   5.422  17.676  0.00  0.00    +0.000 C 
ATOM      4  N   UNL     1       3.284   4.043  17.206  0.00  0.00    +0.000 NA
ATOM      5  C   UNL     1       2.325   3.120  17.825  0.00  0.00    +0.000 C 
ATOM      6  C   UNL     1       2.524   2.847  19.309  0.00  0.00    +0.000 C 
ATOM      7  C   UNL     1       1.899   3.885  20.213  0.00  0.00    +0.000 C 
ATOM      8  O   UNL     1       1.133   3.519  21.108  0.00  0.00    +0.000 OA
ENDROOT
BRANCH   1   9
ATOM      9  C   UNL     1       1.740   6.173  21.041  0.00  0.00    +0.000 C 
BRANCH   9  10
ATOM     10  C   UNL     1       1.568   7.583  20.457  0.00  0.00    +0.000 C 
BRANCH  10  11
ATOM     11  S   UNL     1       1.295   8.753  21.831  0.00  0.00    +0.000 S 
BRANCH  11  15
ATOM     12  C   UNL     1      -1.642  11.914  20.248  0.00  0.00    +0.000 A 
ATOM     13  C   UNL     1      -1.342  11.802  21.604  0.00  0.00    +0.000 A 
ATOM     14  C   UNL     1      -0.461  10.816  22.053  0.00  0.00    +0.000 A 
ATOM     15  C   UNL     1       0.115   9.907  21.157  0.00  0.00    +0.000 A 
ATOM     16  C   UNL     1      -0.210  10.008  19.800  0.00  0.00    +0.000 A 
ATOM     17  C   UNL     1      -1.088  11.004  19.348  0.00  0.00    +0.000 A 
BRANCH  12  19
ATOM     18  C   UNL     1      -3.766  12.889  20.582  0.00  0.00    +0.000 C 
ATOM     19  O   UNL     1      -2.503  12.923  19.925  0.00  0.00    +0.000 OA
ENDBRANCH  12  19
ENDBRANCH  11  15
ENDBRANCH  10  11
ENDBRANCH   9  10
ENDBRANCH   1   9
BRANCH   4  20
ATOM     20  C   UNL     1       4.702   3.652  17.326  0.00  0.00    +0.000 C 
BRANCH  20  21
ATOM     21  C   UNL     1       5.667   4.385  16.381  0.00  0.00    +0.000 C 
BRANCH  21  22
ATOM     22  C   UNL     1       6.564   5.317  17.162  0.00  0.00    +0.000 A 
ATOM     23  C   UNL     1       7.134   4.902  18.375  0.00  0.00    +0.000 A 
ATOM     24  C   UNL     1       7.929   5.776  19.117  0.00  0.00    +0.000 A 
ATOM     25  C   UNL     1       8.152   7.073  18.657  0.00  0.00    +0.000 A 
ATOM     26  C   UNL     1       7.585   7.495  17.456  0.00  0.00    +0.000 A 
ATOM     27  C   UNL     1       6.791   6.623  16.713  0.00  0.00    +0.000 A 
ENDBRANCH  21  22
ENDBRANCH  20  21
ENDBRANCH   4  20
TORSDOF 8
ENDMDL
MODEL 9
REMARK VINA RESULT:      -7.0      1.002      1.444
REMARK  Name = 
REMARK  9 active torsions:
REMARK  status: ('A' for Active; 'I' for Inactive)
REMARK    1  A    between atoms: C_1  and  O_2
REMARK    2  A    between atoms: O_2  and  C_3
REMARK    3  A    between atoms: C_6  and  S_7
REMARK    4  A    between atoms: S_7  and  C_8
REMARK    5  A    between atoms: C_8  and  C_9
REMARK    6  A    between atoms: C_9  and  N_10
REMARK    7  A    between atoms: N_13  and  C_14
REMARK    8  A    between atoms: C_14  and  C_15
REMARK    9  A    between atoms: C_15  and  C_16
REMARK                            x       y       z     vdW  Elec       q    Type
REMARK                         _______ _______ _______ _____ _____    ______ ____
ROOT
ATOM      1  N   UNL     1       2.280   4.984  20.197  0.00  0.00    +0.000 N 
ATOM      2  C   UNL     1       2.867   5.412  18.927  0.00  0.00    +0.000 C 
ATOM      3  C   UNL     1       2.444   4.556  17.718  0.00  0.00    +0.000 C 
ATOM      4  N   UNL     1       3.106   3.247  17.580  0.00  0.00    +0.000 NA
ATOM      5  C   UNL     1       2.747   2.360  18.692  0.00  0.00    +0.000 C 
ATOM      6  C   UNL     1       3.330   2.722  20.050  0.00  0.00    +0.000 C 
ATOM      7  C   UNL     1       2.532   3.762  20.802  0.00  0.00    +0.000 C 
ATOM      8  O   UNL     1       2.175   3.524  21.959  0.00  0.00    +0.000 OA
ENDROOT
BRANCH   1   9
ATOM      9  C   UNL     1       1.630   6.018  21.011  0.00  0.00    +0.000 C 
BRANCH   9  10
ATOM     10  C   UNL     1       1.715   7.410  20.367  0.00  0.00    +0.000 C 
BRANCH  10  11
ATOM     11  S   UNL     1       1.064   8.638  21.549  0.00  0.00    +0.000 S 
BRANCH  11  15
ATOM     12  C   UNL     1      -0.199  12.297  19.070  0.00  0.00    +0.000 A 
ATOM     13  C   UNL     1      -0.958  11.840  20.146  0.00  0.00    +0.000 A 
ATOM     14  C   UNL     1      -0.555  10.712  20.864  0.00  0.00    +0.000 A 
ATOM     15  C   UNL     1       0.598  10.005  20.503  0.00  0.00    +0.000 A 
ATOM     16  C   UNL     1       1.341  10.454  19.406  0.00  0.00    +0.000 A 
ATOM     17  C   UNL     1       0.943  11.592  18.690  0.00  0.00    +0.000 A 
BRANCH  12  19
ATOM     18  C   UNL     1      -0.133  14.651  18.903  0.00  0.00    +0.000 C 
ATOM     19  O   UNL     1      -0.681  13.416  18.453  0.00  0.00    +0.000 OA
ENDBRANCH  12  19
ENDBRANCH  11  15
ENDBRANCH  10  11
ENDBRANCH   9  10
ENDBRANCH   1   9
BRANCH   4  20
ATOM     20  C   UNL     1       4.553   3.396  17.335  0.00  0.00    +0.000 C 
BRANCH  20  21
ATOM     21  C   UNL     1       4.955   4.614  16.490  0.00  0.00    +0.000 C 
BRANCH  21  22
ATOM     22  C   UNL     1       6.042   5.402  17.182  0.00  0.00    +0.000 A 
ATOM     23  C   UNL     1       6.634   4.913  18.356  0.00  0.00    +0.000 A 
ATOM     24  C   UNL     1       7.609   5.659  19.020  0.00  0.00    +0.000 A 
ATOM     25  C   UNL     1       7.992   6.903  18.520  0.00  0.00    +0.000 A 
ATOM     26  C   UNL     1       7.404   7.399  17.358  0.00  0.00    +0.000 A 
ATOM     27  C   UNL     1       6.431   6.654  16.693  0.00  0.00    +0.000 A 
ENDBRANCH  21  22
ENDBRANCH  20  21
ENDBRANCH   4  20
TORSDOF 8
ENDMDL
