MODEL 1
REMARK VINA RESULT:      -7.6      0.000      0.000
REMARK  Name = 
REMARK  7 active torsions:
REMARK  status: ('A' for Active; 'I' for Inactive)
REMARK    1  A    between atoms: C_1  and  C_2
REMARK    2  A    between atoms: C_2  and  C_3
REMARK    3  A    between atoms: C_3  and  C_4
REMARK    4  A    between atoms: C_4  and  O_5
REMARK    5  A    between atoms: O_5  and  C_6
REMARK    6  A    between atoms: C_11  and  N_12
REMARK    7  A    between atoms: C_15  and  C_16
REMARK                            x       y       z     vdW  Elec       q    Type
REMARK                         _______ _______ _______ _____ _____    ______ ____
ROOT
ATOM      1  C   UNL     1       6.528   4.911  15.467  0.00  0.00    +0.000 A 
ATOM      2  C   UNL     1       7.283   5.823  16.196  0.00  0.00    +0.000 A 
ATOM      3  C   UNL     1       7.087   5.946  17.564  0.00  0.00    +0.000 A 
ATOM      4 BR   UNL     1       8.097   7.216  18.531  0.00  0.00    +0.000 Br
ATOM      5  C   UNL     1       6.147   5.148  18.229  0.00  0.00    +0.000 A 
ATOM      6  C   UNL     1       5.405   4.204  17.517  0.00  0.00    +0.000 A 
ATOM      7  C   UNL     1       5.578   4.122  16.128  0.00  0.00    +0.000 A 
ENDROOT
BRANCH   6   8
ATOM      8  N   UNL     1       4.474   3.390  18.203  0.00  0.00    +0.000 N 
ATOM      9  C   UNL     1       3.568   3.804  19.195  0.00  0.00    +0.000 A 
ATOM     10  C   UNL     1       3.072   5.096  19.188  0.00  0.00    +0.000 A 
ATOM     11  C   UNL     1       2.273   5.467  20.238  0.00  0.00    +0.000 A 
ATOM     12  C   UNL     1       1.736   6.864  20.332  0.00  0.00    +0.000 C 
ATOM     13  N   UNL     1       1.931   4.606  21.212  0.00  0.00    +0.000 NA
ATOM     14  C   UNL     1       2.386   3.350  21.092  0.00  0.00    +0.000 A 
ATOM     15  N   UNL     1       2.016   2.472  22.094  0.00  0.00    +0.000 N 
ATOM     16  N   UNL     1       3.201   2.913  20.134  0.00  0.00    +0.000 NA
ATOM     17  H   UNL     1       4.852   2.486  18.481  0.00  0.00    +0.000 HD
ATOM     18  H   UNL     1       1.758   2.994  22.919  0.00  0.00    +0.000 HD
ATOM     19  H   UNL     1       2.715   1.749  22.198  0.00  0.00    +0.000 HD
ENDBRANCH   6   8
BRANCH   1  20
ATOM     20  O   UNL     1       6.625   4.718  14.118  0.00  0.00    +0.000 OA
BRANCH  20  21
ATOM     21  C   UNL     1       5.913   3.581  13.621  0.00  0.00    +0.000 C 
BRANCH  21  22
ATOM     22  C   UNL     1       6.243   3.409  12.146  0.00  0.00    +0.000 C 
BRANCH  22  24
ATOM     23  C   UNL     1       3.966   3.200  11.096  0.00  0.00    +0.000 C 
ATOM     24  C   UNL     1       5.251   2.478  11.458  0.00  0.00    +0.000 C 
ENDBRANCH  22  24
ENDBRANCH  21  22
ENDBRANCH  20  21
ENDBRANCH   1  20
TORSDOF 5
ENDMDL
MODEL 2
REMARK VINA RESULT:      -7.6      3.709      5.374
REMARK  Name = 
REMARK  7 active torsions:
REMARK  status: ('A' for Active; 'I' for Inactive)
REMARK    1  A    between atoms: C_1  and  C_2
REMARK    2  A    between atoms: C_2  and  C_3
REMARK    3  A    between atoms: C_3  and  C_4
REMARK    4  A    between atoms: C_4  and  O_5
REMARK    5  A    between atoms: O_5  and  C_6
REMARK    6  A    between atoms: C_11  and  N_12
REMARK    7  A    between atoms: C_15  and  C_16
REMARK                            x       y       z     vdW  Elec       q    Type
REMARK                         _______ _______ _______ _____ _____    ______ ____
ROOT
ATOM      1  C   UNL     1       4.812   4.541  18.761  0.00  0.00    +0.000 A 
ATOM      2  C   UNL     1       3.834   3.553  18.787  0.00  0.00    +0.000 A 
ATOM      3  C   UNL     1       2.512   3.881  18.525  0.00  0.00    +0.000 A 
ATOM      4 BR   UNL     1       1.192   2.532  18.601  0.00  0.00    +0.000 Br
ATOM      5  C   UNL     1       2.148   5.198  18.214  0.00  0.00    +0.000 A 
ATOM      6  C   UNL     1       3.123   6.195  18.150  0.00  0.00    +0.000 A 
ATOM      7  C   UNL     1       4.448   5.860  18.464  0.00  0.00    +0.000 A 
ENDROOT
BRANCH   6   8
ATOM      8  N   UNL     1       2.746   7.516  17.816  0.00  0.00    +0.000 N 
ATOM      9  C   UNL     1       1.917   8.368  18.567  0.00  0.00    +0.000 A 
ATOM     10  C   UNL     1       1.868   8.253  19.945  0.00  0.00    +0.000 A 
ATOM     11  C   UNL     1       0.967   9.044  20.608  0.00  0.00    +0.000 A 
ATOM     12  C   UNL     1       0.815   8.944  22.097  0.00  0.00    +0.000 C 
ATOM     13  N   UNL     1       0.195   9.938  19.967  0.00  0.00    +0.000 NA
ATOM     14  C   UNL     1       0.371  10.044  18.641  0.00  0.00    +0.000 A 
ATOM     15  N   UNL     1      -0.420  10.976  17.995  0.00  0.00    +0.000 N 
ATOM     16  N   UNL     1       1.189   9.289  17.909  0.00  0.00    +0.000 NA
ATOM     17  H   UNL     1       2.509   7.634  16.833  0.00  0.00    +0.000 HD
ATOM     18  H   UNL     1      -1.231  11.176  18.562  0.00  0.00    +0.000 HD
ATOM     19  H   UNL     1      -0.575  10.696  17.037  0.00  0.00    +0.000 HD
ENDBRANCH   6   8
BRANCH   1  20
ATOM     20  O   UNL     1       6.138   4.333  19.019  0.00  0.00    +0.000 OA
BRANCH  20  21
ATOM     21  C   UNL     1       7.030   5.194  18.302  0.00  0.00    +0.000 C 
BRANCH  21  22
ATOM     22  C   UNL     1       7.523   4.459  17.065  0.00  0.00    +0.000 C 
BRANCH  22  24
ATOM     23  C   UNL     1       5.947   4.013  15.156  0.00  0.00    +0.000 C 
ATOM     24  C   UNL     1       6.888   5.016  15.797  0.00  0.00    +0.000 C 
ENDBRANCH  22  24
ENDBRANCH  21  22
ENDBRANCH  20  21
ENDBRANCH   1  20
TORSDOF 5
ENDMDL
MODEL 3
REMARK VINA RESULT:      -7.6      3.609      7.169
REMARK  Name = 
REMARK  7 active torsions:
REMARK  status: ('A' for Active; 'I' for Inactive)
REMARK    1  A    between atoms: C_1  and  C_2
REMARK    2  A    between atoms: C_2  and  C_3
REMARK    3  A    between atoms: C_3  and  C_4
REMARK    4  A    between atoms: C_4  and  O_5
REMARK    5  A    between atoms: O_5  and  C_6
REMARK    6  A    between atoms: C_11  and  N_12
REMARK    7  A    between atoms: C_15  and  C_16
REMARK                            x       y       z     vdW  Elec       q    Type
REMARK                         _______ _______ _______ _____ _____    ______ ____
ROOT
ATOM      1  C   UNL     1       2.239   6.140  19.649  0.00  0.00    +0.000 A 
ATOM      2  C   UNL     1       1.799   5.216  20.590  0.00  0.00    +0.000 A 
ATOM      3  C   UNL     1       2.193   3.889  20.494  0.00  0.00    +0.000 A 
ATOM      4 BR   UNL     1       1.555   2.641  21.760  0.00  0.00    +0.000 Br
ATOM      5  C   UNL     1       3.048   3.467  19.467  0.00  0.00    +0.000 A 
ATOM      6  C   UNL     1       3.526   4.390  18.534  0.00  0.00    +0.000 A 
ATOM      7  C   UNL     1       3.083   5.718  18.615  0.00  0.00    +0.000 A 
ENDROOT
BRANCH   6   8
ATOM      8  N   UNL     1       4.405   3.956  17.515  0.00  0.00    +0.000 N 
ATOM      9  C   UNL     1       5.504   4.664  16.997  0.00  0.00    +0.000 A 
ATOM     10  C   UNL     1       6.196   5.557  17.796  0.00  0.00    +0.000 A 
ATOM     11  C   UNL     1       7.191   6.288  17.204  0.00  0.00    +0.000 A 
ATOM     12  C   UNL     1       7.955   7.314  17.987  0.00  0.00    +0.000 C 
ATOM     13  N   UNL     1       7.531   6.116  15.915  0.00  0.00    +0.000 NA
ATOM     14  C   UNL     1       6.867   5.168  15.238  0.00  0.00    +0.000 A 
ATOM     15  N   UNL     1       7.235   4.992  13.917  0.00  0.00    +0.000 N 
ATOM     16  N   UNL     1       5.858   4.442  15.718  0.00  0.00    +0.000 NA
ATOM     17  H   UNL     1       3.932   3.498  16.738  0.00  0.00    +0.000 HD
ATOM     18  H   UNL     1       7.694   5.828  13.584  0.00  0.00    +0.000 HD
ATOM     19  H   UNL     1       6.452   4.644  13.382  0.00  0.00    +0.000 HD
ENDBRANCH   6   8
BRANCH   1  20
ATOM     20  O   UNL     1       1.902   7.464  19.638  0.00  0.00    +0.000 OA
BRANCH  20  21
ATOM     21  C   UNL     1       2.260   8.165  18.443  0.00  0.00    +0.000 C 
BRANCH  21  22
ATOM     22  C   UNL     1       1.476   9.467  18.391  0.00  0.00    +0.000 C 
BRANCH  22  24
ATOM     23  C   UNL     1      -0.651  10.317  19.433  0.00  0.00    +0.000 C 
ATOM     24  C   UNL     1       0.716   9.712  19.690  0.00  0.00    +0.000 C 
ENDBRANCH  22  24
ENDBRANCH  21  22
ENDBRANCH  20  21
ENDBRANCH   1  20
TORSDOF 5
ENDMDL
MODEL 4
REMARK VINA RESULT:      -7.6      2.391      4.553
REMARK  Name = 
REMARK  7 active torsions:
REMARK  status: ('A' for Active; 'I' for Inactive)
REMARK    1  A    between atoms: C_1  and  C_2
REMARK    2  A    between atoms: C_2  and  C_3
REMARK    3  A    between atoms: C_3  and  C_4
REMARK    4  A    between atoms: C_4  and  O_5
REMARK    5  A    between atoms: O_5  and  C_6
REMARK    6  A    between atoms: C_11  and  N_12
REMARK    7  A    between atoms: C_15  and  C_16
REMARK                            x       y       z     vdW  Elec       q    Type
REMARK                         _______ _______ _______ _____ _____    ______ ____
ROOT
ATOM      1  C   UNL     1       6.994   5.279  16.831  0.00  0.00    +0.000 A 
ATOM      2  C   UNL     1       6.972   5.019  15.465  0.00  0.00    +0.000 A 
ATOM      3  C   UNL     1       6.053   4.117  14.948  0.00  0.00    +0.000 A 
ATOM      4 BR   UNL     1       6.062   3.749  13.095  0.00  0.00    +0.000 Br
ATOM      5  C   UNL     1       5.130   3.475  15.783  0.00  0.00    +0.000 A 
ATOM      6  C   UNL     1       5.117   3.751  17.152  0.00  0.00    +0.000 A 
ATOM      7  C   UNL     1       6.081   4.628  17.669  0.00  0.00    +0.000 A 
ENDROOT
BRANCH   6   8
ATOM      8  N   UNL     1       4.167   3.112  17.981  0.00  0.00    +0.000 N 
ATOM      9  C   UNL     1       3.405   3.710  19.001  0.00  0.00    +0.000 A 
ATOM     10  C   UNL     1       3.058   5.047  18.916  0.00  0.00    +0.000 A 
ATOM     11  C   UNL     1       2.404   5.593  19.989  0.00  0.00    +0.000 A 
ATOM     12  C   UNL     1       2.037   7.048  19.998  0.00  0.00    +0.000 C 
ATOM     13  N   UNL     1       2.056   4.862  21.061  0.00  0.00    +0.000 NA
ATOM     14  C   UNL     1       2.356   3.554  21.020  0.00  0.00    +0.000 A 
ATOM     15  N   UNL     1       1.982   2.810  22.124  0.00  0.00    +0.000 N 
ATOM     16  N   UNL     1       3.027   2.948  20.043  0.00  0.00    +0.000 NA
ATOM     17  H   UNL     1       4.464   2.195  18.309  0.00  0.00    +0.000 HD
ATOM     18  H   UNL     1       1.859   3.425  22.916  0.00  0.00    +0.000 HD
ATOM     19  H   UNL     1       2.603   2.021  22.237  0.00  0.00    +0.000 HD
ENDBRANCH   6   8
BRANCH   1  20
ATOM     20  O   UNL     1       7.864   6.133  17.449  0.00  0.00    +0.000 OA
BRANCH  20  21
ATOM     21  C   UNL     1       7.556   7.522  17.290  0.00  0.00    +0.000 C 
BRANCH  21  22
ATOM     22  C   UNL     1       8.311   8.310  18.349  0.00  0.00    +0.000 C 
BRANCH  22  24
ATOM     23  C   UNL     1       9.445  10.534  18.664  0.00  0.00    +0.000 C 
ATOM     24  C   UNL     1       8.247   9.809  18.079  0.00  0.00    +0.000 C 
ENDBRANCH  22  24
ENDBRANCH  21  22
ENDBRANCH  20  21
ENDBRANCH   1  20
TORSDOF 5
ENDMDL
MODEL 5
REMARK VINA RESULT:      -7.6      1.371      1.513
REMARK  Name = 
REMARK  7 active torsions:
REMARK  status: ('A' for Active; 'I' for Inactive)
REMARK    1  A    between atoms: C_1  and  C_2
REMARK    2  A    between atoms: C_2  and  C_3
REMARK    3  A    between atoms: C_3  and  C_4
REMARK    4  A    between atoms: C_4  and  O_5
REMARK    5  A    between atoms: O_5  and  C_6
REMARK    6  A    between atoms: C_11  and  N_12
REMARK    7  A    between atoms: C_15  and  C_16
REMARK                            x       y       z     vdW  Elec       q    Type
REMARK                         _______ _______ _______ _____ _____    ______ ____
ROOT
ATOM      1  C   UNL     1       7.090   4.941  15.554  0.00  0.00    +0.000 A 
ATOM      2  C   UNL     1       7.480   6.212  15.959  0.00  0.00    +0.000 A 
ATOM      3  C   UNL     1       7.266   6.617  17.268  0.00  0.00    +0.000 A 
ATOM      4 BR   UNL     1       7.770   8.361  17.791  0.00  0.00    +0.000 Br
ATOM      5  C   UNL     1       6.675   5.752  18.199  0.00  0.00    +0.000 A 
ATOM      6  C   UNL     1       6.309   4.461  17.817  0.00  0.00    +0.000 A 
ATOM      7  C   UNL     1       6.488   4.080  16.479  0.00  0.00    +0.000 A 
ENDROOT
BRANCH   6   8
ATOM      8  N   UNL     1       5.734   3.590  18.770  0.00  0.00    +0.000 N 
ATOM      9  C   UNL     1       4.370   3.484  19.094  0.00  0.00    +0.000 A 
ATOM     10  C   UNL     1       3.405   3.760  18.141  0.00  0.00    +0.000 A 
ATOM     11  C   UNL     1       2.097   3.737  18.548  0.00  0.00    +0.000 A 
ATOM     12  C   UNL     1       0.994   4.074  17.590  0.00  0.00    +0.000 C 
ATOM     13  N   UNL     1       1.746   3.405  19.802  0.00  0.00    +0.000 NA
ATOM     14  C   UNL     1       2.741   3.067  20.636  0.00  0.00    +0.000 A 
ATOM     15  N   UNL     1       2.365   2.716  21.920  0.00  0.00    +0.000 N 
ATOM     16  N   UNL     1       4.039   3.104  20.342  0.00  0.00    +0.000 NA
ATOM     17  H   UNL     1       6.267   3.524  19.635  0.00  0.00    +0.000 HD
ATOM     18  H   UNL     1       1.452   3.099  22.118  0.00  0.00    +0.000 HD
ATOM     19  H   UNL     1       3.111   2.924  22.569  0.00  0.00    +0.000 HD
ENDBRANCH   6   8
BRANCH   1  20
ATOM     20  O   UNL     1       7.237   4.446  14.288  0.00  0.00    +0.000 OA
BRANCH  20  21
ATOM     21  C   UNL     1       6.042   3.908  13.712  0.00  0.00    +0.000 C 
BRANCH  21  22
ATOM     22  C   UNL     1       6.305   3.607  12.244  0.00  0.00    +0.000 C 
BRANCH  22  24
ATOM     23  C   UNL     1       6.390   1.358  11.118  0.00  0.00    +0.000 C 
ATOM     24  C   UNL     1       5.502   2.401  11.771  0.00  0.00    +0.000 C 
ENDBRANCH  22  24
ENDBRANCH  21  22
ENDBRANCH  20  21
ENDBRANCH   1  20
TORSDOF 5
ENDMDL
MODEL 6
REMARK VINA RESULT:      -7.6      2.985      5.100
REMARK  Name = 
REMARK  7 active torsions:
REMARK  status: ('A' for Active; 'I' for Inactive)
REMARK    1  A    between atoms: C_1  and  C_2
REMARK    2  A    between atoms: C_2  and  C_3
REMARK    3  A    between atoms: C_3  and  C_4
REMARK    4  A    between atoms: C_4  and  O_5
REMARK    5  A    between atoms: O_5  and  C_6
REMARK    6  A    between atoms: C_11  and  N_12
REMARK    7  A    between atoms: C_15  and  C_16
REMARK                            x       y       z     vdW  Elec       q    Type
REMARK                         _______ _______ _______ _____ _____    ______ ____
ROOT
ATOM      1  C   UNL     1       7.561   6.420  18.046  0.00  0.00    +0.000 A 
ATOM      2  C   UNL     1       7.481   6.223  16.672  0.00  0.00    +0.000 A 
ATOM      3  C   UNL     1       6.786   5.133  16.169  0.00  0.00    +0.000 A 
ATOM      4 BR   UNL     1       6.719   4.861  14.301  0.00  0.00    +0.000 Br
ATOM      5  C   UNL     1       6.143   4.233  17.030  0.00  0.00    +0.000 A 
ATOM      6  C   UNL     1       6.185   4.437  18.410  0.00  0.00    +0.000 A 
ATOM      7  C   UNL     1       6.930   5.515  18.908  0.00  0.00    +0.000 A 
ENDROOT
BRANCH   6   8
ATOM      8  N   UNL     1       5.514   3.533  19.266  0.00  0.00    +0.000 N 
ATOM      9  C   UNL     1       4.124   3.411  19.435  0.00  0.00    +0.000 A 
ATOM     10  C   UNL     1       3.268   3.714  18.391  0.00  0.00    +0.000 A 
ATOM     11  C   UNL     1       1.923   3.673  18.651  0.00  0.00    +0.000 A 
ATOM     12  C   UNL     1       0.929   4.037  17.589  0.00  0.00    +0.000 C 
ATOM     13  N   UNL     1       1.439   3.299  19.848  0.00  0.00    +0.000 NA
ATOM     14  C   UNL     1       2.339   2.937  20.775  0.00  0.00    +0.000 A 
ATOM     15  N   UNL     1       1.828   2.543  21.998  0.00  0.00    +0.000 N 
ATOM     16  N   UNL     1       3.662   2.989  20.627  0.00  0.00    +0.000 NA
ATOM     17  H   UNL     1       5.951   3.441  20.182  0.00  0.00    +0.000 HD
ATOM     18  H   UNL     1       0.896   2.917  22.107  0.00  0.00    +0.000 HD
ATOM     19  H   UNL     1       2.497   2.733  22.731  0.00  0.00    +0.000 HD
ENDBRANCH   6   8
BRANCH   1  20
ATOM     20  O   UNL     1       8.231   7.447  18.650  0.00  0.00    +0.000 OA
BRANCH  20  21
ATOM     21  C   UNL     1       8.143   8.703  17.969  0.00  0.00    +0.000 C 
BRANCH  21  22
ATOM     22  C   UNL     1       8.928   9.739  18.760  0.00  0.00    +0.000 C 
BRANCH  22  24
ATOM     23  C   UNL     1      10.456  11.544  17.901  0.00  0.00    +0.000 C 
ATOM     24  C   UNL     1       9.021  11.061  18.007  0.00  0.00    +0.000 C 
ENDBRANCH  22  24
ENDBRANCH  21  22
ENDBRANCH  20  21
ENDBRANCH   1  20
TORSDOF 5
ENDMDL
MODEL 7
REMARK VINA RESULT:      -7.5      3.659      7.842
REMARK  Name = 
REMARK  7 active torsions:
REMARK  status: ('A' for Active; 'I' for Inactive)
REMARK    1  A    between atoms: C_1  and  C_2
REMARK    2  A    between atoms: C_2  and  C_3
REMARK    3  A    between atoms: C_3  and  C_4
REMARK    4  A    between atoms: C_4  and  O_5
REMARK    5  A    between atoms: O_5  and  C_6
REMARK    6  A    between atoms: C_11  and  N_12
REMARK    7  A    between atoms: C_15  and  C_16
REMARK                            x       y       z     vdW  Elec       q    Type
REMARK                         _______ _______ _______ _____ _____    ______ ____
ROOT
ATOM      1  C   UNL     1       2.123   6.182  19.751  0.00  0.00    +0.000 A 
ATOM      2  C   UNL     1       1.700   5.228  20.669  0.00  0.00    +0.000 A 
ATOM      3  C   UNL     1       2.086   3.904  20.517  0.00  0.00    +0.000 A 
ATOM      4 BR   UNL     1       1.472   2.614  21.753  0.00  0.00    +0.000 Br
ATOM      5  C   UNL     1       2.916   3.515  19.457  0.00  0.00    +0.000 A 
ATOM      6  C   UNL     1       3.377   4.468  18.547  0.00  0.00    +0.000 A 
ATOM      7  C   UNL     1       2.942   5.794  18.684  0.00  0.00    +0.000 A 
ENDROOT
BRANCH   6   8
ATOM      8  N   UNL     1       4.231   4.067  17.494  0.00  0.00    +0.000 N 
ATOM      9  C   UNL     1       5.385   4.736  17.048  0.00  0.00    +0.000 A 
ATOM     10  C   UNL     1       6.133   5.495  17.930  0.00  0.00    +0.000 A 
ATOM     11  C   UNL     1       7.187   6.202  17.412  0.00  0.00    +0.000 A 
ATOM     12  C   UNL     1       8.017   7.088  18.292  0.00  0.00    +0.000 C 
ATOM     13  N   UNL     1       7.526   6.127  16.114  0.00  0.00    +0.000 NA
ATOM     14  C   UNL     1       6.799   5.299  15.348  0.00  0.00    +0.000 A 
ATOM     15  N   UNL     1       7.166   5.222  14.017  0.00  0.00    +0.000 N 
ATOM     16  N   UNL     1       5.734   4.609  15.755  0.00  0.00    +0.000 NA
ATOM     17  H   UNL     1       3.733   3.722  16.676  0.00  0.00    +0.000 HD
ATOM     18  H   UNL     1       7.690   6.048  13.767  0.00  0.00    +0.000 HD
ATOM     19  H   UNL     1       6.364   4.985  13.450  0.00  0.00    +0.000 HD
ENDBRANCH   6   8
BRANCH   1  20
ATOM     20  O   UNL     1       1.790   7.507  19.794  0.00  0.00    +0.000 OA
BRANCH  20  21
ATOM     21  C   UNL     1       1.633   8.045  21.111  0.00  0.00    +0.000 C 
BRANCH  21  22
ATOM     22  C   UNL     1       0.384   8.911  21.136  0.00  0.00    +0.000 C 
BRANCH  22  24
ATOM     23  C   UNL     1      -0.767  10.587  22.618  0.00  0.00    +0.000 C 
ATOM     24  C   UNL     1      -0.018   9.269  22.562  0.00  0.00    +0.000 C 
ENDBRANCH  22  24
ENDBRANCH  21  22
ENDBRANCH  20  21
ENDBRANCH   1  20
TORSDOF 5
ENDMDL
MODEL 8
REMARK VINA RESULT:      -7.5      4.095      5.954
REMARK  Name = 
REMARK  7 active torsions:
REMARK  status: ('A' for Active; 'I' for Inactive)
REMARK    1  A    between atoms: C_1  and  C_2
REMARK    2  A    between atoms: C_2  and  C_3
REMARK    3  A    between atoms: C_3  and  C_4
REMARK    4  A    between atoms: C_4  and  O_5
REMARK    5  A    between atoms: O_5  and  C_6
REMARK    6  A    between atoms: C_11  and  N_12
REMARK    7  A    between atoms: C_15  and  C_16
REMARK                            x       y       z     vdW  Elec       q    Type
REMARK                         _______ _______ _______ _____ _____    ______ ____
ROOT
ATOM      1  C   UNL     1       3.476   4.083  17.961  0.00  0.00    +0.000 A 
ATOM      2  C   UNL     1       4.856   3.925  18.020  0.00  0.00    +0.000 A 
ATOM      3  C   UNL     1       5.687   5.022  17.844  0.00  0.00    +0.000 A 
ATOM      4 BR   UNL     1       7.559   4.781  17.890  0.00  0.00    +0.000 Br
ATOM      5  C   UNL     1       5.152   6.299  17.626  0.00  0.00    +0.000 A 
ATOM      6  C   UNL     1       3.768   6.480  17.600  0.00  0.00    +0.000 A 
ATOM      7  C   UNL     1       2.940   5.356  17.731  0.00  0.00    +0.000 A 
ENDROOT
BRANCH   6   8
ATOM      8  N   UNL     1       3.240   7.777  17.400  0.00  0.00    +0.000 N 
ATOM      9  C   UNL     1       2.282   8.425  18.198  0.00  0.00    +0.000 A 
ATOM     10  C   UNL     1       2.193   8.139  19.549  0.00  0.00    +0.000 A 
ATOM     11  C   UNL     1       1.173   8.728  20.249  0.00  0.00    +0.000 A 
ATOM     12  C   UNL     1       0.977   8.430  21.706  0.00  0.00    +0.000 C 
ATOM     13  N   UNL     1       0.321   9.594  19.675  0.00  0.00    +0.000 NA
ATOM     14  C   UNL     1       0.534   9.880  18.382  0.00  0.00    +0.000 A 
ATOM     15  N   UNL     1      -0.342  10.782  17.806  0.00  0.00    +0.000 N 
ATOM     16  N   UNL     1       1.469   9.324  17.613  0.00  0.00    +0.000 NA
ATOM     17  H   UNL     1       3.029   7.984  16.426  0.00  0.00    +0.000 HD
ATOM     18  H   UNL     1      -1.194  10.812  18.348  0.00  0.00    +0.000 HD
ATOM     19  H   UNL     1      -0.423  10.602  16.815  0.00  0.00    +0.000 HD
ENDBRANCH   6   8
BRANCH   1  20
ATOM     20  O   UNL     1       2.568   3.072  18.103  0.00  0.00    +0.000 OA
BRANCH  20  21
ATOM     21  C   UNL     1       1.222   3.502  18.335  0.00  0.00    +0.000 C 
BRANCH  21  22
ATOM     22  C   UNL     1       0.745   2.914  19.654  0.00  0.00    +0.000 C 
BRANCH  22  24
ATOM     23  C   UNL     1       2.310   2.962  21.624  0.00  0.00    +0.000 C 
ATOM     24  C   UNL     1       1.256   3.723  20.841  0.00  0.00    +0.000 C 
ENDBRANCH  22  24
ENDBRANCH  21  22
ENDBRANCH  20  21
ENDBRANCH   1  20
TORSDOF 5
ENDMDL
MODEL 9
REMARK VINA RESULT:      -7.3      1.499      2.078
REMARK  Name = 
REMARK  7 active torsions:
REMARK  status: ('A' for Active; 'I' for Inactive)
REMARK    1  A    between atoms: C_1  and  C_2
REMARK    2  A    between atoms: C_2  and  C_3
REMARK    3  A    between atoms: C_3  and  C_4
REMARK    4  A    between atoms: C_4  and  O_5
REMARK    5  A    between atoms: O_5  and  C_6
REMARK    6  A    between atoms: C_11  and  N_12
REMARK    7  A    between atoms: C_15  and  C_16
REMARK                            x       y       z     vdW  Elec       q    Type
REMARK                         _______ _______ _______ _____ _____    ______ ____
ROOT
ATOM      1  C   UNL     1       6.455   4.995  15.635  0.00  0.00    +0.000 A 
ATOM      2  C   UNL     1       7.285   6.003  16.113  0.00  0.00    +0.000 A 
ATOM      3  C   UNL     1       6.842   6.842  17.126  0.00  0.00    +0.000 A 
ATOM      4 BR   UNL     1       7.969   8.228  17.737  0.00  0.00    +0.000 Br
ATOM      5  C   UNL     1       5.570   6.675  17.690  0.00  0.00    +0.000 A 
ATOM      6  C   UNL     1       4.738   5.646  17.245  0.00  0.00    +0.000 A 
ATOM      7  C   UNL     1       5.179   4.836  16.189  0.00  0.00    +0.000 A 
ENDROOT
BRANCH   6   8
ATOM      8  N   UNL     1       3.466   5.476  17.837  0.00  0.00    +0.000 N 
ATOM      9  C   UNL     1       3.051   4.398  18.639  0.00  0.00    +0.000 A 
ATOM     10  C   UNL     1       3.970   3.715  19.415  0.00  0.00    +0.000 A 
ATOM     11  C   UNL     1       3.521   2.613  20.095  0.00  0.00    +0.000 A 
ATOM     12  C   UNL     1       4.464   1.787  20.918  0.00  0.00    +0.000 C 
ATOM     13  N   UNL     1       2.232   2.233  20.065  0.00  0.00    +0.000 NA
ATOM     14  C   UNL     1       1.394   3.004  19.357  0.00  0.00    +0.000 A 
ATOM     15  N   UNL     1       0.068   2.609  19.344  0.00  0.00    +0.000 N 
ATOM     16  N   UNL     1       1.747   4.064  18.631  0.00  0.00    +0.000 NA
ATOM     17  H   UNL     1       2.694   5.723  17.220  0.00  0.00    +0.000 HD
ATOM     18  H   UNL     1       0.010   1.629  19.578  0.00  0.00    +0.000 HD
ATOM     19  H   UNL     1      -0.376   2.914  18.490  0.00  0.00    +0.000 HD
ENDBRANCH   6   8
BRANCH   1  20
ATOM     20  O   UNL     1       6.781   4.126  14.633  0.00  0.00    +0.000 OA
BRANCH  20  21
ATOM     21  C   UNL     1       5.743   3.898  13.674  0.00  0.00    +0.000 C 
BRANCH  21  22
ATOM     22  C   UNL     1       6.377   3.415  12.378  0.00  0.00    +0.000 C 
BRANCH  22  24
ATOM     23  C   UNL     1       4.112   3.211  11.303  0.00  0.00    +0.000 C 
ATOM     24  C   UNL     1       5.428   2.515  11.596  0.00  0.00    +0.000 C 
ENDBRANCH  22  24
ENDBRANCH  21  22
ENDBRANCH  20  21
ENDBRANCH   1  20
TORSDOF 5
ENDMDL
