MODEL 1
REMARK VINA RESULT:      -8.8      0.000      0.000
REMARK  Name = 
REMARK  7 active torsions:
REMARK  status: ('A' for Active; 'I' for Inactive)
REMARK    1  A    between atoms: C_1  and  C_2
REMARK    2  A    between atoms: C_5  and  N_6
REMARK    3  A    between atoms: N_6  and  C_7
REMARK    4  A    between atoms: C_7  and  N_9
REMARK    5  A    between atoms: C_10  and  C_12
REMARK    6  A    between atoms: C_15  and  C_16
REMARK    7  A    between atoms: C_24  and  O_25
REMARK                            x       y       z     vdW  Elec       q    Type
REMARK                         _______ _______ _______ _____ _____    ______ ____
ROOT
ATOM      1  N   UNL     1       6.506   4.959  16.545  0.00  0.00    +0.000 N 
ATOM      2  C   UNL     1       6.314   6.335  16.564  0.00  0.00    +0.000 C 
ATOM      3  O   UNL     1       5.448   6.884  15.877  0.00  0.00    +0.000 OA
ATOM      4  H   UNL     1       7.248   4.604  17.139  0.00  0.00    +0.000 HD
ENDROOT
BRANCH   2   5
ATOM      5  C   UNL     1       7.177   7.055  17.474  0.00  0.00    +0.000 A 
ATOM      6  C   UNL     1       7.873   6.617  18.581  0.00  0.00    +0.000 A 
ATOM      7  C   UNL     1       8.620   7.720  19.056  0.00  0.00    +0.000 A 
ATOM      8  C   UNL     1       8.322   8.790  18.234  0.00  0.00    +0.000 A 
ATOM      9  O   UNL     1       7.429   8.389  17.273  0.00  0.00    +0.000 OA
BRANCH   8  10
ATOM     10  C   UNL     1       8.741  10.192  18.206  0.00  0.00    +0.000 A 
ATOM     11  C   UNL     1       9.845  10.622  18.965  0.00  0.00    +0.000 A 
ATOM     12  C   UNL     1      10.211  11.972  19.003  0.00  0.00    +0.000 A 
ATOM     13  C   UNL     1       9.481  12.908  18.277  0.00  0.00    +0.000 A 
ATOM     14 CL   UNL     1       9.898  14.574  18.363  0.00  0.00    +0.000 Cl
ATOM     15  C   UNL     1       8.406  12.500  17.492  0.00  0.00    +0.000 A 
ATOM     16  C   UNL     1       8.042  11.149  17.455  0.00  0.00    +0.000 A 
ENDBRANCH   8  10
ENDBRANCH   2   5
BRANCH   1  17
ATOM     17  C   UNL     1       5.869   4.000  15.772  0.00  0.00    +0.000 C 
ATOM     18  S   UNL     1       6.217   4.040  14.140  0.00  0.00    +0.000 S 
BRANCH  17  19
ATOM     19  N   UNL     1       5.055   3.140  16.482  0.00  0.00    +0.000 N 
ATOM     20  H   UNL     1       5.220   2.169  16.237  0.00  0.00    +0.000 HD
BRANCH  19  25
ATOM     21  C   UNL     1       1.023   4.117  20.482  0.00  0.00    +0.000 C 
ATOM     22  C   UNL     1       2.069   3.842  19.444  0.00  0.00    +0.000 A 
ATOM     23  C   UNL     1       1.711   3.663  18.109  0.00  0.00    +0.000 A 
ATOM     24  C   UNL     1       2.680   3.424  17.128  0.00  0.00    +0.000 A 
ATOM     25  C   UNL     1       4.036   3.349  17.447  0.00  0.00    +0.000 A 
ATOM     26  C   UNL     1       4.392   3.558  18.793  0.00  0.00    +0.000 A 
ATOM     27  C   UNL     1       3.424   3.789  19.778  0.00  0.00    +0.000 A 
BRANCH  26  28
ATOM     28  O   UNL     1       5.691   3.560  19.235  0.00  0.00    +0.000 OA
ATOM     29  H   UNL     1       5.717   3.898  20.143  0.00  0.00    +0.000 HD
ENDBRANCH  26  28
ENDBRANCH  19  25
ENDBRANCH  17  19
ENDBRANCH   1  17
TORSDOF 6
ENDMDL
MODEL 2
REMARK VINA RESULT:      -8.3      5.004      7.024
REMARK  Name = 
REMARK  7 active torsions:
REMARK  status: ('A' for Active; 'I' for Inactive)
REMARK    1  A    between atoms: C_1  and  C_2
REMARK    2  A    between atoms: C_5  and  N_6
REMARK    3  A    between atoms: N_6  and  C_7
REMARK    4  A    between atoms: C_7  and  N_9
REMARK    5  A    between atoms: C_10  and  C_12
REMARK    6  A    between atoms: C_15  and  C_16
REMARK    7  A    between atoms: C_24  and  O_25
REMARK                            x       y       z     vdW  Elec       q    Type
REMARK                         _______ _______ _______ _____ _____    ______ ____
ROOT
ATOM      1  N   UNL     1       3.008   4.814  17.958  0.00  0.00    +0.000 N 
ATOM      2  C   UNL     1       3.565   5.828  18.726  0.00  0.00    +0.000 C 
ATOM      3  O   UNL     1       4.588   5.655  19.396  0.00  0.00    +0.000 OA
ATOM      4  H   UNL     1       2.163   5.052  17.449  0.00  0.00    +0.000 HD
ENDROOT
BRANCH   2   5
ATOM      5  C   UNL     1       2.878   7.098  18.643  0.00  0.00    +0.000 A 
ATOM      6  C   UNL     1       2.746   7.976  17.588  0.00  0.00    +0.000 A 
ATOM      7  C   UNL     1       1.907   9.024  18.032  0.00  0.00    +0.000 A 
ATOM      8  C   UNL     1       1.590   8.754  19.350  0.00  0.00    +0.000 A 
ATOM      9  O   UNL     1       2.193   7.582  19.730  0.00  0.00    +0.000 OA
BRANCH   8  10
ATOM     10  C   UNL     1       0.793   9.448  20.362  0.00  0.00    +0.000 A 
ATOM     11  C   UNL     1       0.447   8.803  21.563  0.00  0.00    +0.000 A 
ATOM     12  C   UNL     1      -0.375   9.430  22.507  0.00  0.00    +0.000 A 
ATOM     13  C   UNL     1      -0.854  10.713  22.263  0.00  0.00    +0.000 A 
ATOM     14 CL   UNL     1      -1.905  11.465  23.398  0.00  0.00    +0.000 Cl
ATOM     15  C   UNL     1      -0.496  11.384  21.097  0.00  0.00    +0.000 A 
ATOM     16  C   UNL     1       0.326  10.755  20.155  0.00  0.00    +0.000 A 
ENDBRANCH   8  10
ENDBRANCH   2   5
BRANCH   1  17
ATOM     17  C   UNL     1       3.404   3.490  17.841  0.00  0.00    +0.000 C 
ATOM     18  S   UNL     1       2.233   2.352  18.186  0.00  0.00    +0.000 S 
BRANCH  17  19
ATOM     19  N   UNL     1       4.712   3.317  17.434  0.00  0.00    +0.000 N 
ATOM     20  H   UNL     1       5.230   2.711  18.061  0.00  0.00    +0.000 HD
BRANCH  19  25
ATOM     21  C   UNL     1       7.915   5.361  13.100  0.00  0.00    +0.000 C 
ATOM     22  C   UNL     1       7.070   4.847  14.227  0.00  0.00    +0.000 A 
ATOM     23  C   UNL     1       5.893   4.148  13.967  0.00  0.00    +0.000 A 
ATOM     24  C   UNL     1       5.105   3.648  15.010  0.00  0.00    +0.000 A 
ATOM     25  C   UNL     1       5.462   3.834  16.346  0.00  0.00    +0.000 A 
ATOM     26  C   UNL     1       6.666   4.517  16.600  0.00  0.00    +0.000 A 
ATOM     27  C   UNL     1       7.453   5.026  15.558  0.00  0.00    +0.000 A 
BRANCH  26  28
ATOM     28  O   UNL     1       7.160   4.725  17.863  0.00  0.00    +0.000 OA
ATOM     29  H   UNL     1       8.115   4.878  17.809  0.00  0.00    +0.000 HD
ENDBRANCH  26  28
ENDBRANCH  19  25
ENDBRANCH  17  19
ENDBRANCH   1  17
TORSDOF 6
ENDMDL
MODEL 3
REMARK VINA RESULT:      -8.1      5.102      7.051
REMARK  Name = 
REMARK  7 active torsions:
REMARK  status: ('A' for Active; 'I' for Inactive)
REMARK    1  A    between atoms: C_1  and  C_2
REMARK    2  A    between atoms: C_5  and  N_6
REMARK    3  A    between atoms: N_6  and  C_7
REMARK    4  A    between atoms: C_7  and  N_9
REMARK    5  A    between atoms: C_10  and  C_12
REMARK    6  A    between atoms: C_15  and  C_16
REMARK    7  A    between atoms: C_24  and  O_25
REMARK                            x       y       z     vdW  Elec       q    Type
REMARK                         _______ _______ _______ _____ _____    ______ ____
ROOT
ATOM      1  N   UNL     1       3.553   5.259  19.417  0.00  0.00    +0.000 N 
ATOM      2  C   UNL     1       2.565   5.705  18.550  0.00  0.00    +0.000 C 
ATOM      3  O   UNL     1       1.945   4.934  17.811  0.00  0.00    +0.000 OA
ATOM      4  H   UNL     1       4.010   5.971  19.977  0.00  0.00    +0.000 HD
ENDROOT
BRANCH   2   5
ATOM      5  C   UNL     1       2.300   7.125  18.612  0.00  0.00    +0.000 A 
ATOM      6  C   UNL     1       2.651   8.139  17.744  0.00  0.00    +0.000 A 
ATOM      7  C   UNL     1       2.069   9.326  18.247  0.00  0.00    +0.000 A 
ATOM      8  C   UNL     1       1.414   8.988  19.416  0.00  0.00    +0.000 A 
ATOM      9  O   UNL     1       1.564   7.645  19.648  0.00  0.00    +0.000 OA
BRANCH   8  10
ATOM     10  C   UNL     1       0.649   9.750  20.404  0.00  0.00    +0.000 A 
ATOM     11  C   UNL     1       0.542   9.294  21.730  0.00  0.00    +0.000 A 
ATOM     12  C   UNL     1      -0.244   9.974  22.666  0.00  0.00    +0.000 A 
ATOM     13  C   UNL     1      -0.930  11.124  22.287  0.00  0.00    +0.000 A 
ATOM     14 CL   UNL     1      -1.938  11.934  23.421  0.00  0.00    +0.000 Cl
ATOM     15  C   UNL     1      -0.812  11.614  20.989  0.00  0.00    +0.000 A 
ATOM     16  C   UNL     1      -0.024  10.932  20.055  0.00  0.00    +0.000 A 
ENDBRANCH   8  10
ENDBRANCH   2   5
BRANCH   1  17
ATOM     17  C   UNL     1       4.057   3.977  19.580  0.00  0.00    +0.000 C 
ATOM     18  S   UNL     1       3.135   2.953  20.522  0.00  0.00    +0.000 S 
BRANCH  17  19
ATOM     19  N   UNL     1       5.243   3.739  18.915  0.00  0.00    +0.000 N 
ATOM     20  H   UNL     1       5.918   3.255  19.499  0.00  0.00    +0.000 HD
BRANCH  19  25
ATOM     21  C   UNL     1       7.269   4.955  13.659  0.00  0.00    +0.000 C 
ATOM     22  C   UNL     1       6.733   4.658  15.027  0.00  0.00    +0.000 A 
ATOM     23  C   UNL     1       5.445   4.152  15.188  0.00  0.00    +0.000 A 
ATOM     24  C   UNL     1       4.940   3.854  16.459  0.00  0.00    +0.000 A 
ATOM     25  C   UNL     1       5.701   4.056  17.610  0.00  0.00    +0.000 A 
ATOM     26  C   UNL     1       7.011   4.542  17.438  0.00  0.00    +0.000 A 
ATOM     27  C   UNL     1       7.516   4.849  16.167  0.00  0.00    +0.000 A 
BRANCH  26  28
ATOM     28  O   UNL     1       7.882   4.740  18.479  0.00  0.00    +0.000 OA
ATOM     29  H   UNL     1       8.614   5.301  18.179  0.00  0.00    +0.000 HD
ENDBRANCH  26  28
ENDBRANCH  19  25
ENDBRANCH  17  19
ENDBRANCH   1  17
TORSDOF 6
ENDMDL
MODEL 4
REMARK VINA RESULT:      -8.1      4.201      6.822
REMARK  Name = 
REMARK  7 active torsions:
REMARK  status: ('A' for Active; 'I' for Inactive)
REMARK    1  A    between atoms: C_1  and  C_2
REMARK    2  A    between atoms: C_5  and  N_6
REMARK    3  A    between atoms: N_6  and  C_7
REMARK    4  A    between atoms: C_7  and  N_9
REMARK    5  A    between atoms: C_10  and  C_12
REMARK    6  A    between atoms: C_15  and  C_16
REMARK    7  A    between atoms: C_24  and  O_25
REMARK                            x       y       z     vdW  Elec       q    Type
REMARK                         _______ _______ _______ _____ _____    ______ ____
ROOT
ATOM      1  N   UNL     1       5.873   6.355  17.940  0.00  0.00    +0.000 N 
ATOM      2  C   UNL     1       5.438   5.311  18.744  0.00  0.00    +0.000 C 
ATOM      3  O   UNL     1       6.152   4.335  18.993  0.00  0.00    +0.000 OA
ATOM      4  H   UNL     1       5.210   7.108  17.788  0.00  0.00    +0.000 HD
ENDROOT
BRANCH   2   5
ATOM      5  C   UNL     1       4.109   5.478  19.289  0.00  0.00    +0.000 A 
ATOM      6  C   UNL     1       3.236   4.550  19.818  0.00  0.00    +0.000 A 
ATOM      7  C   UNL     1       2.106   5.268  20.275  0.00  0.00    +0.000 A 
ATOM      8  C   UNL     1       2.328   6.598  19.977  0.00  0.00    +0.000 A 
ATOM      9  O   UNL     1       3.547   6.729  19.363  0.00  0.00    +0.000 OA
BRANCH   8  10
ATOM     10  C   UNL     1       1.547   7.822  20.167  0.00  0.00    +0.000 A 
ATOM     11  C   UNL     1       0.823   8.029  21.355  0.00  0.00    +0.000 A 
ATOM     12  C   UNL     1       0.016   9.160  21.520  0.00  0.00    +0.000 A 
ATOM     13  C   UNL     1      -0.072  10.102  20.499  0.00  0.00    +0.000 A 
ATOM     14 CL   UNL     1      -1.102  11.466  20.678  0.00  0.00    +0.000 Cl
ATOM     15  C   UNL     1       0.663   9.934  19.328  0.00  0.00    +0.000 A 
ATOM     16  C   UNL     1       1.470   8.803  19.166  0.00  0.00    +0.000 A 
ENDBRANCH   8  10
ENDBRANCH   2   5
BRANCH   1  17
ATOM     17  C   UNL     1       7.071   6.487  17.252  0.00  0.00    +0.000 C 
ATOM     18  S   UNL     1       7.907   7.905  17.524  0.00  0.00    +0.000 S 
BRANCH  17  19
ATOM     19  N   UNL     1       7.397   5.406  16.458  0.00  0.00    +0.000 N 
ATOM     20  H   UNL     1       8.252   4.952  16.764  0.00  0.00    +0.000 HD
BRANCH  19  25
ATOM     21  C   UNL     1       5.128   3.051  11.713  0.00  0.00    +0.000 C 
ATOM     22  C   UNL     1       5.704   3.680  12.946  0.00  0.00    +0.000 A 
ATOM     23  C   UNL     1       5.138   3.437  14.195  0.00  0.00    +0.000 A 
ATOM     24  C   UNL     1       5.678   4.004  15.355  0.00  0.00    +0.000 A 
ATOM     25  C   UNL     1       6.797   4.836  15.306  0.00  0.00    +0.000 A 
ATOM     26  C   UNL     1       7.380   5.054  14.044  0.00  0.00    +0.000 A 
ATOM     27  C   UNL     1       6.837   4.494  12.880  0.00  0.00    +0.000 A 
BRANCH  26  28
ATOM     28  O   UNL     1       8.510   5.810  13.859  0.00  0.00    +0.000 OA
ATOM     29  H   UNL     1       8.569   6.471  14.565  0.00  0.00    +0.000 HD
ENDBRANCH  26  28
ENDBRANCH  19  25
ENDBRANCH  17  19
ENDBRANCH   1  17
TORSDOF 6
ENDMDL
MODEL 5
REMARK VINA RESULT:      -8.0      4.922      6.174
REMARK  Name = 
REMARK  7 active torsions:
REMARK  status: ('A' for Active; 'I' for Inactive)
REMARK    1  A    between atoms: C_1  and  C_2
REMARK    2  A    between atoms: C_5  and  N_6
REMARK    3  A    between atoms: N_6  and  C_7
REMARK    4  A    between atoms: C_7  and  N_9
REMARK    5  A    between atoms: C_10  and  C_12
REMARK    6  A    between atoms: C_15  and  C_16
REMARK    7  A    between atoms: C_24  and  O_25
REMARK                            x       y       z     vdW  Elec       q    Type
REMARK                         _______ _______ _______ _____ _____    ______ ____
ROOT
ATOM      1  N   UNL     1       3.913   5.328  17.116  0.00  0.00    +0.000 N 
ATOM      2  C   UNL     1       3.935   6.039  18.308  0.00  0.00    +0.000 C 
ATOM      3  O   UNL     1       4.594   5.664  19.283  0.00  0.00    +0.000 OA
ATOM      4  H   UNL     1       3.336   5.714  16.376  0.00  0.00    +0.000 HD
ENDROOT
BRANCH   2   5
ATOM      5  C   UNL     1       3.162   7.261  18.300  0.00  0.00    +0.000 A 
ATOM      6  C   UNL     1       3.002   8.211  17.312  0.00  0.00    +0.000 A 
ATOM      7  C   UNL     1       2.076   9.159  17.805  0.00  0.00    +0.000 A 
ATOM      8  C   UNL     1       1.735   8.761  19.083  0.00  0.00    +0.000 A 
ATOM      9  O   UNL     1       2.408   7.607  19.394  0.00  0.00    +0.000 OA
BRANCH   8  10
ATOM     10  C   UNL     1       0.857   9.314  20.115  0.00  0.00    +0.000 A 
ATOM     11  C   UNL     1       0.107  10.478  19.865  0.00  0.00    +0.000 A 
ATOM     12  C   UNL     1      -0.681  11.057  20.866  0.00  0.00    +0.000 A 
ATOM     13  C   UNL     1      -0.732  10.475  22.129  0.00  0.00    +0.000 A 
ATOM     14 CL   UNL     1      -1.659  11.213  23.376  0.00  0.00    +0.000 Cl
ATOM     15  C   UNL     1      -0.026   9.304  22.389  0.00  0.00    +0.000 A 
ATOM     16  C   UNL     1       0.761   8.726  21.386  0.00  0.00    +0.000 A 
ENDBRANCH   8  10
ENDBRANCH   2   5
BRANCH   1  17
ATOM     17  C   UNL     1       4.520   4.118  16.810  0.00  0.00    +0.000 C 
ATOM     18  S   UNL     1       5.876   4.215  15.843  0.00  0.00    +0.000 S 
BRANCH  17  19
ATOM     19  N   UNL     1       3.913   3.015  17.375  0.00  0.00    +0.000 N 
ATOM     20  H   UNL     1       4.010   2.187  16.795  0.00  0.00    +0.000 HD
BRANCH  19  25
ATOM     21  C   UNL     1       1.034   2.343  22.323  0.00  0.00    +0.000 C 
ATOM     22  C   UNL     1       1.781   2.497  21.031  0.00  0.00    +0.000 A 
ATOM     23  C   UNL     1       1.095   2.718  19.839  0.00  0.00    +0.000 A 
ATOM     24  C   UNL     1       1.782   2.881  18.630  0.00  0.00    +0.000 A 
ATOM     25  C   UNL     1       3.174   2.823  18.571  0.00  0.00    +0.000 A 
ATOM     26  C   UNL     1       3.861   2.627  19.784  0.00  0.00    +0.000 A 
ATOM     27  C   UNL     1       3.176   2.456  20.994  0.00  0.00    +0.000 A 
BRANCH  26  28
ATOM     28  O   UNL     1       5.230   2.599  19.876  0.00  0.00    +0.000 OA
ATOM     29  H   UNL     1       5.602   2.384  19.007  0.00  0.00    +0.000 HD
ENDBRANCH  26  28
ENDBRANCH  19  25
ENDBRANCH  17  19
ENDBRANCH   1  17
TORSDOF 6
ENDMDL
MODEL 6
REMARK VINA RESULT:      -8.0      8.214      9.903
REMARK  Name = 
REMARK  7 active torsions:
REMARK  status: ('A' for Active; 'I' for Inactive)
REMARK    1  A    between atoms: C_1  and  C_2
REMARK    2  A    between atoms: C_5  and  N_6
REMARK    3  A    between atoms: N_6  and  C_7
REMARK    4  A    between atoms: C_7  and  N_9
REMARK    5  A    between atoms: C_10  and  C_12
REMARK    6  A    between atoms: C_15  and  C_16
REMARK    7  A    between atoms: C_24  and  O_25
REMARK                            x       y       z     vdW  Elec       q    Type
REMARK                         _______ _______ _______ _____ _____    ______ ____
ROOT
ATOM      1  N   UNL     1      -1.635  10.239  17.372  0.00  0.00    +0.000 N 
ATOM      2  C   UNL     1      -0.719  10.845  18.223  0.00  0.00    +0.000 C 
ATOM      3  O   UNL     1      -0.761  12.052  18.479  0.00  0.00    +0.000 OA
ATOM      4  H   UNL     1      -1.511   9.244  17.219  0.00  0.00    +0.000 HD
ENDROOT
BRANCH   2   5
ATOM      5  C   UNL     1       0.253   9.946  18.806  0.00  0.00    +0.000 A 
ATOM      6  C   UNL     1       0.609   9.748  20.124  0.00  0.00    +0.000 A 
ATOM      7  C   UNL     1       1.554   8.695  20.137  0.00  0.00    +0.000 A 
ATOM      8  C   UNL     1       1.754   8.319  18.822  0.00  0.00    +0.000 A 
ATOM      9  O   UNL     1       0.969   9.092  18.005  0.00  0.00    +0.000 OA
BRANCH   8  10
ATOM     10  C   UNL     1       2.607   7.323  18.174  0.00  0.00    +0.000 A 
ATOM     11  C   UNL     1       2.314   5.952  18.284  0.00  0.00    +0.000 A 
ATOM     12  C   UNL     1       3.161   4.986  17.729  0.00  0.00    +0.000 A 
ATOM     13  C   UNL     1       4.311   5.382  17.051  0.00  0.00    +0.000 A 
ATOM     14 CL   UNL     1       5.380   4.196  16.413  0.00  0.00    +0.000 Cl
ATOM     15  C   UNL     1       4.603   6.734  16.900  0.00  0.00    +0.000 A 
ATOM     16  C   UNL     1       3.753   7.698  17.455  0.00  0.00    +0.000 A 
ENDBRANCH   8  10
ENDBRANCH   2   5
BRANCH   1  17
ATOM     17  C   UNL     1      -2.662  10.818  16.641  0.00  0.00    +0.000 C 
ATOM     18  S   UNL     1      -2.851  10.247  15.085  0.00  0.00    +0.000 S 
BRANCH  17  19
ATOM     19  N   UNL     1      -3.387  11.771  17.328  0.00  0.00    +0.000 N 
ATOM     20  H   UNL     1      -3.070  12.713  17.123  0.00  0.00    +0.000 HD
BRANCH  19  25
ATOM     21  C   UNL     1      -7.681  11.616  21.169  0.00  0.00    +0.000 C 
ATOM     22  C   UNL     1      -6.556  11.637  20.178  0.00  0.00    +0.000 A 
ATOM     23  C   UNL     1      -6.671  10.967  18.962  0.00  0.00    +0.000 A 
ATOM     24  C   UNL     1      -5.636  10.995  18.021  0.00  0.00    +0.000 A 
ATOM     25  C   UNL     1      -4.450  11.688  18.264  0.00  0.00    +0.000 A 
ATOM     26  C   UNL     1      -4.352  12.385  19.483  0.00  0.00    +0.000 A 
ATOM     27  C   UNL     1      -5.384  12.352  20.430  0.00  0.00    +0.000 A 
BRANCH  26  28
ATOM     28  O   UNL     1      -3.263  13.145  19.829  0.00  0.00    +0.000 OA
ATOM     29  H   UNL     1      -2.591  13.072  19.133  0.00  0.00    +0.000 HD
ENDBRANCH  26  28
ENDBRANCH  19  25
ENDBRANCH  17  19
ENDBRANCH   1  17
TORSDOF 6
ENDMDL
MODEL 7
REMARK VINA RESULT:      -7.9      4.152      6.735
REMARK  Name = 
REMARK  7 active torsions:
REMARK  status: ('A' for Active; 'I' for Inactive)
REMARK    1  A    between atoms: C_1  and  C_2
REMARK    2  A    between atoms: C_5  and  N_6
REMARK    3  A    between atoms: N_6  and  C_7
REMARK    4  A    between atoms: C_7  and  N_9
REMARK    5  A    between atoms: C_10  and  C_12
REMARK    6  A    between atoms: C_15  and  C_16
REMARK    7  A    between atoms: C_24  and  O_25
REMARK                            x       y       z     vdW  Elec       q    Type
REMARK                         _______ _______ _______ _____ _____    ______ ____
ROOT
ATOM      1  N   UNL     1       5.888   6.345  18.041  0.00  0.00    +0.000 N 
ATOM      2  C   UNL     1       5.456   5.385  18.947  0.00  0.00    +0.000 C 
ATOM      3  O   UNL     1       6.198   4.484  19.349  0.00  0.00    +0.000 OA
ATOM      4  H   UNL     1       5.202   7.040  17.766  0.00  0.00    +0.000 HD
ENDROOT
BRANCH   2   5
ATOM      5  C   UNL     1       4.093   5.550  19.402  0.00  0.00    +0.000 A 
ATOM      6  C   UNL     1       3.176   4.616  19.835  0.00  0.00    +0.000 A 
ATOM      7  C   UNL     1       2.023   5.331  20.235  0.00  0.00    +0.000 A 
ATOM      8  C   UNL     1       2.279   6.668  20.000  0.00  0.00    +0.000 A 
ATOM      9  O   UNL     1       3.540   6.804  19.478  0.00  0.00    +0.000 OA
BRANCH   8  10
ATOM     10  C   UNL     1       1.498   7.894  20.176  0.00  0.00    +0.000 A 
ATOM     11  C   UNL     1       1.433   8.851  19.148  0.00  0.00    +0.000 A 
ATOM     12  C   UNL     1       0.749  10.059  19.330  0.00  0.00    +0.000 A 
ATOM     13  C   UNL     1       0.118  10.321  20.542  0.00  0.00    +0.000 A 
ATOM     14 CL   UNL     1      -0.679  11.825  20.787  0.00  0.00    +0.000 Cl
ATOM     15  C   UNL     1       0.141   9.373  21.562  0.00  0.00    +0.000 A 
ATOM     16  C   UNL     1       0.824   8.165  21.377  0.00  0.00    +0.000 A 
ENDBRANCH   8  10
ENDBRANCH   2   5
BRANCH   1  17
ATOM     17  C   UNL     1       7.114   6.453  17.402  0.00  0.00    +0.000 C 
ATOM     18  S   UNL     1       7.931   7.888  17.644  0.00  0.00    +0.000 S 
BRANCH  17  19
ATOM     19  N   UNL     1       7.481   5.339  16.675  0.00  0.00    +0.000 N 
ATOM     20  H   UNL     1       8.247   4.834  17.109  0.00  0.00    +0.000 HD
BRANCH  19  25
ATOM     21  C   UNL     1       5.439   3.116  11.765  0.00  0.00    +0.000 C 
ATOM     22  C   UNL     1       5.986   3.679  13.042  0.00  0.00    +0.000 A 
ATOM     23  C   UNL     1       7.005   4.630  13.018  0.00  0.00    +0.000 A 
ATOM     24  C   UNL     1       7.510   5.177  14.203  0.00  0.00    +0.000 A 
ATOM     25  C   UNL     1       7.021   4.789  15.450  0.00  0.00    +0.000 A 
ATOM     26  C   UNL     1       5.973   3.848  15.465  0.00  0.00    +0.000 A 
ATOM     27  C   UNL     1       5.471   3.294  14.281  0.00  0.00    +0.000 A 
BRANCH  26  28
ATOM     28  O   UNL     1       5.368   3.417  16.619  0.00  0.00    +0.000 OA
ATOM     29  H   UNL     1       4.807   4.127  16.967  0.00  0.00    +0.000 HD
ENDBRANCH  26  28
ENDBRANCH  19  25
ENDBRANCH  17  19
ENDBRANCH   1  17
TORSDOF 6
ENDMDL
MODEL 8
REMARK VINA RESULT:      -7.9      4.987      7.184
REMARK  Name = 
REMARK  7 active torsions:
REMARK  status: ('A' for Active; 'I' for Inactive)
REMARK    1  A    between atoms: C_1  and  C_2
REMARK    2  A    between atoms: C_5  and  N_6
REMARK    3  A    between atoms: N_6  and  C_7
REMARK    4  A    between atoms: C_7  and  N_9
REMARK    5  A    between atoms: C_10  and  C_12
REMARK    6  A    between atoms: C_15  and  C_16
REMARK    7  A    between atoms: C_24  and  O_25
REMARK                            x       y       z     vdW  Elec       q    Type
REMARK                         _______ _______ _______ _____ _____    ______ ____
ROOT
ATOM      1  N   UNL     1       3.297   4.811  17.904  0.00  0.00    +0.000 N 
ATOM      2  C   UNL     1       3.229   5.540  19.084  0.00  0.00    +0.000 C 
ATOM      3  O   UNL     1       3.628   5.084  20.159  0.00  0.00    +0.000 OA
ATOM      4  H   UNL     1       2.935   5.270  17.074  0.00  0.00    +0.000 HD
ENDROOT
BRANCH   2   5
ATOM      5  C   UNL     1       2.692   6.875  18.941  0.00  0.00    +0.000 A 
ATOM      6  C   UNL     1       2.803   7.777  17.903  0.00  0.00    +0.000 A 
ATOM      7  C   UNL     1       2.019   8.901  18.254  0.00  0.00    +0.000 A 
ATOM      8  C   UNL     1       1.488   8.646  19.504  0.00  0.00    +0.000 A 
ATOM      9  O   UNL     1       1.909   7.413  19.933  0.00  0.00    +0.000 OA
BRANCH   8  10
ATOM     10  C   UNL     1       0.627   9.405  20.412  0.00  0.00    +0.000 A 
ATOM     11  C   UNL     1      -0.012  10.579  19.974  0.00  0.00    +0.000 A 
ATOM     12  C   UNL     1      -0.780  11.352  20.852  0.00  0.00    +0.000 A 
ATOM     13  C   UNL     1      -0.923  10.956  22.178  0.00  0.00    +0.000 A 
ATOM     14 CL   UNL     1      -1.824  11.931  23.271  0.00  0.00    +0.000 Cl
ATOM     15  C   UNL     1      -0.328   9.779  22.625  0.00  0.00    +0.000 A 
ATOM     16  C   UNL     1       0.438   9.007  21.745  0.00  0.00    +0.000 A 
ENDBRANCH   8  10
ENDBRANCH   2   5
BRANCH   1  17
ATOM     17  C   UNL     1       3.729   3.508  17.707  0.00  0.00    +0.000 C 
ATOM     18  S   UNL     1       2.604   2.318  18.030  0.00  0.00    +0.000 S 
BRANCH  17  19
ATOM     19  N   UNL     1       5.027   3.397  17.251  0.00  0.00    +0.000 N 
ATOM     20  H   UNL     1       5.610   2.860  17.885  0.00  0.00    +0.000 HD
BRANCH  19  25
ATOM     21  C   UNL     1       7.908   5.391  12.675  0.00  0.00    +0.000 C 
ATOM     22  C   UNL     1       7.146   4.890  13.866  0.00  0.00    +0.000 A 
ATOM     23  C   UNL     1       5.952   4.192  13.700  0.00  0.00    +0.000 A 
ATOM     24  C   UNL     1       5.242   3.704  14.802  0.00  0.00    +0.000 A 
ATOM     25  C   UNL     1       5.696   3.901  16.106  0.00  0.00    +0.000 A 
ATOM     26  C   UNL     1       6.917   4.584  16.265  0.00  0.00    +0.000 A 
ATOM     27  C   UNL     1       7.626   5.080  15.163  0.00  0.00    +0.000 A 
BRANCH  26  28
ATOM     28  O   UNL     1       7.503   4.803  17.486  0.00  0.00    +0.000 OA
ATOM     29  H   UNL     1       7.238   4.097  18.096  0.00  0.00    +0.000 HD
ENDBRANCH  26  28
ENDBRANCH  19  25
ENDBRANCH  17  19
ENDBRANCH   1  17
TORSDOF 6
ENDMDL
MODEL 9
REMARK VINA RESULT:      -7.8      4.270      6.740
REMARK  Name = 
REMARK  7 active torsions:
REMARK  status: ('A' for Active; 'I' for Inactive)
REMARK    1  A    between atoms: C_1  and  C_2
REMARK    2  A    between atoms: C_5  and  N_6
REMARK    3  A    between atoms: N_6  and  C_7
REMARK    4  A    between atoms: C_7  and  N_9
REMARK    5  A    between atoms: C_10  and  C_12
REMARK    6  A    between atoms: C_15  and  C_16
REMARK    7  A    between atoms: C_24  and  O_25
REMARK                            x       y       z     vdW  Elec       q    Type
REMARK                         _______ _______ _______ _____ _____    ______ ____
ROOT
ATOM      1  N   UNL     1       5.851   6.108  18.458  0.00  0.00    +0.000 N 
ATOM      2  C   UNL     1       5.251   5.081  19.176  0.00  0.00    +0.000 C 
ATOM      3  O   UNL     1       5.846   4.031  19.436  0.00  0.00    +0.000 OA
ATOM      4  H   UNL     1       5.278   6.928  18.289  0.00  0.00    +0.000 HD
ENDROOT
BRANCH   2   5
ATOM      5  C   UNL     1       3.903   5.358  19.619  0.00  0.00    +0.000 A 
ATOM      6  C   UNL     1       2.927   4.509  20.098  0.00  0.00    +0.000 A 
ATOM      7  C   UNL     1       1.824   5.318  20.459  0.00  0.00    +0.000 A 
ATOM      8  C   UNL     1       2.166   6.622  20.155  0.00  0.00    +0.000 A 
ATOM      9  O   UNL     1       3.432   6.648  19.629  0.00  0.00    +0.000 OA
BRANCH   8  10
ATOM     10  C   UNL     1       1.467   7.903  20.266  0.00  0.00    +0.000 A 
ATOM     11  C   UNL     1       0.747   8.224  21.430  0.00  0.00    +0.000 A 
ATOM     12  C   UNL     1       0.016   9.414  21.521  0.00  0.00    +0.000 A 
ATOM     13  C   UNL     1       0.002  10.300  20.448  0.00  0.00    +0.000 A 
ATOM     14 CL   UNL     1      -0.936  11.739  20.537  0.00  0.00    +0.000 Cl
ATOM     15  C   UNL     1       0.736  10.019  19.299  0.00  0.00    +0.000 A 
ATOM     16  C   UNL     1       1.467   8.829  19.212  0.00  0.00    +0.000 A 
ENDBRANCH   8  10
ENDBRANCH   2   5
BRANCH   1  17
ATOM     17  C   UNL     1       7.109   6.147  17.876  0.00  0.00    +0.000 C 
ATOM     18  S   UNL     1       8.035   7.485  18.248  0.00  0.00    +0.000 S 
BRANCH  17  19
ATOM     19  N   UNL     1       7.411   5.054  17.089  0.00  0.00    +0.000 N 
ATOM     20  H   UNL     1       8.104   4.452  17.521  0.00  0.00    +0.000 HD
BRANCH  19  25
ATOM     21  C   UNL     1       5.436   3.359  11.947  0.00  0.00    +0.000 C 
ATOM     22  C   UNL     1       5.964   3.784  13.284  0.00  0.00    +0.000 A 
ATOM     23  C   UNL     1       7.037   4.669  13.372  0.00  0.00    +0.000 A 
ATOM     24  C   UNL     1       7.527   5.087  14.615  0.00  0.00    +0.000 A 
ATOM     25  C   UNL     1       6.968   4.633  15.809  0.00  0.00    +0.000 A 
ATOM     26  C   UNL     1       5.867   3.761  15.711  0.00  0.00    +0.000 A 
ATOM     27  C   UNL     1       5.379   3.334  14.469  0.00  0.00    +0.000 A 
BRANCH  26  28
ATOM     28  O   UNL     1       5.192   3.277  16.804  0.00  0.00    +0.000 OA
ATOM     29  H   UNL     1       4.709   2.476  16.550  0.00  0.00    +0.000 HD
ENDBRANCH  26  28
ENDBRANCH  19  25
ENDBRANCH  17  19
ENDBRANCH   1  17
TORSDOF 6
ENDMDL
