MODEL 1
REMARK VINA RESULT:      -6.4      0.000      0.000
REMARK  Name = 
REMARK  4 active torsions:
REMARK  status: ('A' for Active; 'I' for Inactive)
REMARK    1  A    between atoms: C_4  and  C_5
REMARK    2  A    between atoms: C_5  and  N_6
REMARK    3  A    between atoms: N_15  and  C_16
REMARK    4  A    between atoms: C_16  and  C_17
REMARK                            x       y       z     vdW  Elec       q    Type
REMARK                         _______ _______ _______ _____ _____    ______ ____
ROOT
ATOM      1  N   UNL     1       1.993   8.022  18.505  0.00  0.00    +0.000 NA
ATOM      2  C   UNL     1       1.513   7.884  19.896  0.00  0.00    +0.000 C 
ATOM      3  C   UNL     1       1.533   6.523  20.518  0.00  0.00    +0.000 C 
ATOM      4  C   UNL     1       2.665   5.593  20.136  0.00  0.00    +0.000 C 
ATOM      5  C   UNL     1       3.578   5.853  18.884  0.00  0.00    +0.000 C 
ATOM      6  C   UNL     1       5.003   5.391  19.480  0.00  0.00    +0.000 C 
ATOM      7  O   UNL     1       5.627   4.135  19.158  0.00  0.00    +0.000 OA
ATOM      8  C   UNL     1       4.818   2.987  18.919  0.00  0.00    +0.000 C 
ATOM      9  C   UNL     1       4.448   2.897  17.438  0.00  0.00    +0.000 C 
ATOM     10  N   UNL     1       4.191   4.206  16.810  0.00  0.00    +0.000 NA
ATOM     11  C   UNL     1       3.182   4.959  17.632  0.00  0.00    +0.000 C 
ATOM     12  C   UNL     1       3.390   7.445  18.434  0.00  0.00    +0.000 C 
ENDROOT
BRANCH   1  13
ATOM     13  C   UNL     1       1.783   9.516  18.320  0.00  0.00    +0.000 C 
BRANCH  13  17
ATOM     14  C   UNL     1      -1.759  10.983  18.447  0.00  0.00    +0.000 A 
ATOM     15  C   UNL     1      -1.178  11.947  19.244  0.00  0.00    +0.000 A 
ATOM     16  S   UNL     1       0.508  11.728  19.355  0.00  0.00    +0.000 S 
ATOM     17  C   UNL     1       0.500  10.311  18.331  0.00  0.00    +0.000 A 
ATOM     18  C   UNL     1      -0.797  10.029  17.945  0.00  0.00    +0.000 A 
ENDBRANCH  13  17
ENDBRANCH   1  13
BRANCH  10  19
ATOM     19  C   UNL     1       5.439   4.923  16.449  0.00  0.00    +0.000 C 
BRANCH  19  20
ATOM     20  C   UNL     1       5.889   4.607  15.058  0.00  0.00    +0.000 A 
ATOM     21  C   UNL     1       5.399   3.725  14.116  0.00  0.00    +0.000 A 
ATOM     22  N   UNL     1       6.238   3.841  13.050  0.00  0.00    +0.000 N 
ATOM     23  N   UNL     1       7.193   4.756  13.272  0.00  0.00    +0.000 NA
ATOM     24  N   UNL     1       6.997   5.239  14.494  0.00  0.00    +0.000 NA
ATOM     25  H   UNL     1       6.235   3.352  12.163  0.00  0.00    +0.000 HD
ENDBRANCH  19  20
ENDBRANCH  10  19
TORSDOF 4
ENDMDL
MODEL 2
REMARK VINA RESULT:      -6.3      4.936      9.921
REMARK  Name = 
REMARK  4 active torsions:
REMARK  status: ('A' for Active; 'I' for Inactive)
REMARK    1  A    between atoms: C_4  and  C_5
REMARK    2  A    between atoms: C_5  and  N_6
REMARK    3  A    between atoms: N_15  and  C_16
REMARK    4  A    between atoms: C_16  and  C_17
REMARK                            x       y       z     vdW  Elec       q    Type
REMARK                         _______ _______ _______ _____ _____    ______ ____
ROOT
ATOM      1  N   UNL     1       1.445   7.643  20.041  0.00  0.00    +0.000 NA
ATOM      2  C   UNL     1       2.243   7.764  18.803  0.00  0.00    +0.000 C 
ATOM      3  C   UNL     1       1.882   8.843  17.831  0.00  0.00    +0.000 C 
ATOM      4  C   UNL     1       1.372  10.152  18.394  0.00  0.00    +0.000 C 
ATOM      5  C   UNL     1       0.878  10.292  19.879  0.00  0.00    +0.000 C 
ATOM      6  C   UNL     1       1.461  11.754  20.229  0.00  0.00    +0.000 C 
ATOM      7  O   UNL     1       0.645  12.939  20.282  0.00  0.00    +0.000 OA
ATOM      8  C   UNL     1      -0.468  13.069  19.403  0.00  0.00    +0.000 C 
ATOM      9  C   UNL     1      -1.725  12.480  20.046  0.00  0.00    +0.000 C 
ATOM     10  N   UNL     1      -1.469  11.267  20.845  0.00  0.00    +0.000 NA
ATOM     11  C   UNL     1      -0.705  10.277  20.011  0.00  0.00    +0.000 C 
ATOM     12  C   UNL     1       1.457   8.987  20.737  0.00  0.00    +0.000 C 
ENDROOT
BRANCH   1  13
ATOM     13  C   UNL     1       2.153   6.458  20.675  0.00  0.00    +0.000 C 
BRANCH  13  17
ATOM     14  C   UNL     1       1.150   2.871  19.756  0.00  0.00    +0.000 A 
ATOM     15  C   UNL     1       2.439   2.786  19.271  0.00  0.00    +0.000 A 
ATOM     16  S   UNL     1       3.322   4.206  19.603  0.00  0.00    +0.000 S 
ATOM     17  C   UNL     1       1.979   4.983  20.408  0.00  0.00    +0.000 A 
ATOM     18  C   UNL     1       0.881   4.144  20.386  0.00  0.00    +0.000 A 
ENDBRANCH  13  17
ENDBRANCH   1  13
BRANCH  10  19
ATOM     19  C   UNL     1      -0.929  11.573  22.193  0.00  0.00    +0.000 C 
BRANCH  19  20
ATOM     20  C   UNL     1      -1.871  12.407  23.002  0.00  0.00    +0.000 A 
ATOM     21  C   UNL     1      -1.770  13.698  23.478  0.00  0.00    +0.000 A 
ATOM     22  N   UNL     1      -2.917  13.907  24.183  0.00  0.00    +0.000 N 
ATOM     23  N   UNL     1      -3.720  12.834  24.146  0.00  0.00    +0.000 NA
ATOM     24  N   UNL     1      -3.101  11.905  23.426  0.00  0.00    +0.000 NA
ATOM     25  H   UNL     1      -3.222  14.720  24.704  0.00  0.00    +0.000 HD
ENDBRANCH  19  20
ENDBRANCH  10  19
TORSDOF 4
ENDMDL
MODEL 3
REMARK VINA RESULT:      -6.1      4.963      9.666
REMARK  Name = 
REMARK  4 active torsions:
REMARK  status: ('A' for Active; 'I' for Inactive)
REMARK    1  A    between atoms: C_4  and  C_5
REMARK    2  A    between atoms: C_5  and  N_6
REMARK    3  A    between atoms: N_15  and  C_16
REMARK    4  A    between atoms: C_16  and  C_17
REMARK                            x       y       z     vdW  Elec       q    Type
REMARK                         _______ _______ _______ _____ _____    ______ ____
ROOT
ATOM      1  N   UNL     1       1.367   7.577  19.768  0.00  0.00    +0.000 NA
ATOM      2  C   UNL     1       2.386   7.590  18.697  0.00  0.00    +0.000 C 
ATOM      3  C   UNL     1       2.277   8.634  17.630  0.00  0.00    +0.000 C 
ATOM      4  C   UNL     1       1.753   9.996  18.032  0.00  0.00    +0.000 C 
ATOM      5  C   UNL     1       1.003  10.240  19.391  0.00  0.00    +0.000 C 
ATOM      6  C   UNL     1       1.599  11.686  19.782  0.00  0.00    +0.000 C 
ATOM      7  O   UNL     1       0.862  12.912  19.631  0.00  0.00    +0.000 OA
ATOM      8  C   UNL     1      -0.060  13.054  18.554  0.00  0.00    +0.000 C 
ATOM      9  C   UNL     1      -1.447  12.566  18.974  0.00  0.00    +0.000 C 
ATOM     10  N   UNL     1      -1.418  11.385  19.857  0.00  0.00    +0.000 NA
ATOM     11  C   UNL     1      -0.575  10.314  19.223  0.00  0.00    +0.000 C 
ATOM     12  C   UNL     1       1.333   8.953  20.396  0.00  0.00    +0.000 C 
ENDROOT
BRANCH   1  13
ATOM     13  C   UNL     1       1.872   6.392  20.573  0.00  0.00    +0.000 C 
BRANCH  13  17
ATOM     14  C   UNL     1       1.430   2.744  19.471  0.00  0.00    +0.000 A 
ATOM     15  C   UNL     1       2.022   2.455  20.683  0.00  0.00    +0.000 A 
ATOM     16  S   UNL     1       2.290   3.869  21.596  0.00  0.00    +0.000 S 
ATOM     17  C   UNL     1       1.617   4.918  20.370  0.00  0.00    +0.000 A 
ATOM     18  C   UNL     1       1.222   4.161  19.284  0.00  0.00    +0.000 A 
ENDBRANCH  13  17
ENDBRANCH   1  13
BRANCH  10  19
ATOM     19  C   UNL     1      -1.119  11.733  21.269  0.00  0.00    +0.000 C 
BRANCH  19  20
ATOM     20  C   UNL     1      -2.361  12.006  22.058  0.00  0.00    +0.000 A 
ATOM     21  C   UNL     1      -3.562  12.584  21.702  0.00  0.00    +0.000 A 
ATOM     22  N   UNL     1      -4.301  12.602  22.846  0.00  0.00    +0.000 N 
ATOM     23  N   UNL     1      -3.635  12.049  23.870  0.00  0.00    +0.000 NA
ATOM     24  N   UNL     1      -2.447  11.675  23.410  0.00  0.00    +0.000 NA
ATOM     25  H   UNL     1      -5.233  12.961  23.014  0.00  0.00    +0.000 HD
ENDBRANCH  19  20
ENDBRANCH  10  19
TORSDOF 4
ENDMDL
MODEL 4
REMARK VINA RESULT:      -6.1      7.556      9.665
REMARK  Name = 
REMARK  4 active torsions:
REMARK  status: ('A' for Active; 'I' for Inactive)
REMARK    1  A    between atoms: C_4  and  C_5
REMARK    2  A    between atoms: C_5  and  N_6
REMARK    3  A    between atoms: N_15  and  C_16
REMARK    4  A    between atoms: C_16  and  C_17
REMARK                            x       y       z     vdW  Elec       q    Type
REMARK                         _______ _______ _______ _____ _____    ______ ____
ROOT
ATOM      1  N   UNL     1      -4.097  11.730  17.298  0.00  0.00    +0.000 NA
ATOM      2  C   UNL     1      -4.004  10.397  16.666  0.00  0.00    +0.000 C 
ATOM      3  C   UNL     1      -2.644   9.862  16.341  0.00  0.00    +0.000 C 
ATOM      4  C   UNL     1      -1.512  10.203  17.287  0.00  0.00    +0.000 C 
ATOM      5  C   UNL     1      -1.625  11.352  18.352  0.00  0.00    +0.000 C 
ATOM      6  C   UNL     1      -0.845  10.666  19.585  0.00  0.00    +0.000 C 
ATOM      7  O   UNL     1       0.500  11.012  19.962  0.00  0.00    +0.000 OA
ATOM      8  C   UNL     1       1.437  11.392  18.959  0.00  0.00    +0.000 C 
ATOM      9  C   UNL     1       1.383  12.902  18.725  0.00  0.00    +0.000 C 
ATOM     10  N   UNL     1       0.022  13.466  18.808  0.00  0.00    +0.000 NA
ATOM     11  C   UNL     1      -0.892  12.688  17.904  0.00  0.00    +0.000 C 
ATOM     12  C   UNL     1      -3.239  11.715  18.545  0.00  0.00    +0.000 C 
ENDROOT
BRANCH   1  13
ATOM     13  C   UNL     1      -5.608  11.836  17.423  0.00  0.00    +0.000 C 
BRANCH  13  17
ATOM     14  C   UNL     1      -7.485  10.236  20.361  0.00  0.00    +0.000 A 
ATOM     15  C   UNL     1      -7.594  11.534  20.815  0.00  0.00    +0.000 A 
ATOM     16  S   UNL     1      -6.959  12.641  19.685  0.00  0.00    +0.000 S 
ATOM     17  C   UNL     1      -6.509  11.391  18.549  0.00  0.00    +0.000 A 
ATOM     18  C   UNL     1      -6.839  10.155  19.071  0.00  0.00    +0.000 A 
ENDBRANCH  13  17
ENDBRANCH   1  13
BRANCH  10  19
ATOM     19  C   UNL     1      -0.427  13.672  20.208  0.00  0.00    +0.000 C 
BRANCH  19  20
ATOM     20  C   UNL     1       0.514  14.540  20.981  0.00  0.00    +0.000 A 
ATOM     21  C   UNL     1       0.737  15.901  20.949  0.00  0.00    +0.000 A 
ATOM     22  N   UNL     1       1.740  16.118  21.846  0.00  0.00    +0.000 N 
ATOM     23  N   UNL     1       2.124  14.978  22.440  0.00  0.00    +0.000 NA
ATOM     24  N   UNL     1       1.386  14.001  21.927  0.00  0.00    +0.000 NA
ATOM     25  H   UNL     1       2.207  16.979  22.105  0.00  0.00    +0.000 HD
ENDBRANCH  19  20
ENDBRANCH  10  19
TORSDOF 4
ENDMDL
MODEL 5
REMARK VINA RESULT:      -6.1      8.211     12.320
REMARK  Name = 
REMARK  4 active torsions:
REMARK  status: ('A' for Active; 'I' for Inactive)
REMARK    1  A    between atoms: C_4  and  C_5
REMARK    2  A    between atoms: C_5  and  N_6
REMARK    3  A    between atoms: N_15  and  C_16
REMARK    4  A    between atoms: C_16  and  C_17
REMARK                            x       y       z     vdW  Elec       q    Type
REMARK                         _______ _______ _______ _____ _____    ______ ____
ROOT
ATOM      1  N   UNL     1      -2.207  12.549  22.051  0.00  0.00    +0.000 NA
ATOM      2  C   UNL     1      -1.541  13.774  22.542  0.00  0.00    +0.000 C 
ATOM      3  C   UNL     1      -2.167  15.096  22.222  0.00  0.00    +0.000 C 
ATOM      4  C   UNL     1      -3.679  15.163  22.176  0.00  0.00    +0.000 C 
ATOM      5  C   UNL     1      -4.574  13.875  22.090  0.00  0.00    +0.000 C 
ATOM      6  C   UNL     1      -5.785  14.314  23.060  0.00  0.00    +0.000 C 
ATOM      7  O   UNL     1      -7.072  14.739  22.577  0.00  0.00    +0.000 OA
ATOM      8  C   UNL     1      -7.163  15.456  21.349  0.00  0.00    +0.000 C 
ATOM      9  C   UNL     1      -7.323  14.486  20.177  0.00  0.00    +0.000 C 
ATOM     10  N   UNL     1      -6.544  13.243  20.326  0.00  0.00    +0.000 NA
ATOM     11  C   UNL     1      -5.112  13.589  20.623  0.00  0.00    +0.000 C 
ATOM     12  C   UNL     1      -3.640  12.571  22.537  0.00  0.00    +0.000 C 
ENDROOT
BRANCH   1  13
ATOM     13  C   UNL     1      -1.241  11.510  22.596  0.00  0.00    +0.000 C 
BRANCH  13  17
ATOM     14  C   UNL     1       0.875   9.236  20.345  0.00  0.00    +0.000 A 
ATOM     15  C   UNL     1       1.332   8.717  21.540  0.00  0.00    +0.000 A 
ATOM     16  S   UNL     1       0.513   9.404  22.867  0.00  0.00    +0.000 S 
ATOM     17  C   UNL     1      -0.480  10.434  21.862  0.00  0.00    +0.000 A 
ATOM     18  C   UNL     1      -0.146  10.240  20.535  0.00  0.00    +0.000 A 
ENDBRANCH  13  17
ENDBRANCH   1  13
BRANCH  10  19
ATOM     19  C   UNL     1      -7.201  12.260  21.223  0.00  0.00    +0.000 C 
BRANCH  19  20
ATOM     20  C   UNL     1      -7.293  10.902  20.602  0.00  0.00    +0.000 A 
ATOM     21  C   UNL     1      -7.017  10.461  19.324  0.00  0.00    +0.000 A 
ATOM     22  N   UNL     1      -7.325   9.134  19.332  0.00  0.00    +0.000 N 
ATOM     23  N   UNL     1      -7.746   8.734  20.541  0.00  0.00    +0.000 NA
ATOM     24  N   UNL     1      -7.731   9.799  21.334  0.00  0.00    +0.000 NA
ATOM     25  H   UNL     1      -7.281   8.451  18.585  0.00  0.00    +0.000 HD
ENDBRANCH  19  20
ENDBRANCH  10  19
TORSDOF 4
ENDMDL
MODEL 6
REMARK VINA RESULT:      -6.1      2.962      4.056
REMARK  Name = 
REMARK  4 active torsions:
REMARK  status: ('A' for Active; 'I' for Inactive)
REMARK    1  A    between atoms: C_4  and  C_5
REMARK    2  A    between atoms: C_5  and  N_6
REMARK    3  A    between atoms: N_15  and  C_16
REMARK    4  A    between atoms: C_16  and  C_17
REMARK                            x       y       z     vdW  Elec       q    Type
REMARK                         _______ _______ _______ _____ _____    ______ ____
ROOT
ATOM      1  N   UNL     1       2.549   6.457  19.284  0.00  0.00    +0.000 NA
ATOM      2  C   UNL     1       1.612   5.341  19.039  0.00  0.00    +0.000 C 
ATOM      3  C   UNL     1       1.800   4.519  17.801  0.00  0.00    +0.000 C 
ATOM      4  C   UNL     1       3.217   4.283  17.325  0.00  0.00    +0.000 C 
ATOM      5  C   UNL     1       4.431   5.135  17.844  0.00  0.00    +0.000 C 
ATOM      6  C   UNL     1       5.554   3.984  17.949  0.00  0.00    +0.000 C 
ATOM      7  O   UNL     1       6.613   3.821  16.987  0.00  0.00    +0.000 OA
ATOM      8  C   UNL     1       6.374   4.129  15.617  0.00  0.00    +0.000 C 
ATOM      9  C   UNL     1       6.690   5.600  15.340  0.00  0.00    +0.000 C 
ATOM     10  N   UNL     1       6.317   6.504  16.444  0.00  0.00    +0.000 NA
ATOM     11  C   UNL     1       4.881   6.262  16.818  0.00  0.00    +0.000 C 
ATOM     12  C   UNL     1       3.956   5.903  19.244  0.00  0.00    +0.000 C 
ENDROOT
BRANCH   1  13
ATOM     13  C   UNL     1       1.978   6.973  20.595  0.00  0.00    +0.000 C 
BRANCH  13  17
ATOM     14  C   UNL     1       0.400  10.246  21.824  0.00  0.00    +0.000 A 
ATOM     15  C   UNL     1       0.557  10.648  20.514  0.00  0.00    +0.000 A 
ATOM     16  S   UNL     1       1.149   9.380  19.542  0.00  0.00    +0.000 S 
ATOM     17  C   UNL     1       1.220   8.248  20.873  0.00  0.00    +0.000 A 
ATOM     18  C   UNL     1       0.806   8.875  22.033  0.00  0.00    +0.000 A 
ENDBRANCH  13  17
ENDBRANCH   1  13
BRANCH  10  19
ATOM     19  C   UNL     1       7.312   6.504  17.546  0.00  0.00    +0.000 C 
BRANCH  19  20
ATOM     20  C   UNL     1       7.777   7.884  17.886  0.00  0.00    +0.000 A 
ATOM     21  C   UNL     1       7.438   9.117  17.368  0.00  0.00    +0.000 A 
ATOM     22  N   UNL     1       8.213  10.011  18.043  0.00  0.00    +0.000 N 
ATOM     23  N   UNL     1       8.983   9.403  18.957  0.00  0.00    +0.000 NA
ATOM     24  N   UNL     1       8.731   8.102  18.880  0.00  0.00    +0.000 NA
ATOM     25  H   UNL     1       8.280  11.017  17.948  0.00  0.00    +0.000 HD
ENDBRANCH  19  20
ENDBRANCH  10  19
TORSDOF 4
ENDMDL
MODEL 7
REMARK VINA RESULT:      -6.1      8.387     12.306
REMARK  Name = 
REMARK  4 active torsions:
REMARK  status: ('A' for Active; 'I' for Inactive)
REMARK    1  A    between atoms: C_4  and  C_5
REMARK    2  A    between atoms: C_5  and  N_6
REMARK    3  A    between atoms: N_15  and  C_16
REMARK    4  A    between atoms: C_16  and  C_17
REMARK                            x       y       z     vdW  Elec       q    Type
REMARK                         _______ _______ _______ _____ _____    ______ ____
ROOT
ATOM      1  N   UNL     1      -2.268  12.487  22.568  0.00  0.00    +0.000 NA
ATOM      2  C   UNL     1      -1.646  13.669  23.202  0.00  0.00    +0.000 C 
ATOM      3  C   UNL     1      -2.237  15.015  22.921  0.00  0.00    +0.000 C 
ATOM      4  C   UNL     1      -3.738  15.099  22.745  0.00  0.00    +0.000 C 
ATOM      5  C   UNL     1      -4.626  13.829  22.490  0.00  0.00    +0.000 C 
ATOM      6  C   UNL     1      -5.917  14.210  23.376  0.00  0.00    +0.000 C 
ATOM      7  O   UNL     1      -7.155  14.679  22.811  0.00  0.00    +0.000 OA
ATOM      8  C   UNL     1      -7.133  15.481  21.634  0.00  0.00    +0.000 C 
ATOM      9  C   UNL     1      -7.191  14.597  20.388  0.00  0.00    +0.000 C 
ATOM     10  N   UNL     1      -6.431  13.339  20.517  0.00  0.00    +0.000 NA
ATOM     11  C   UNL     1      -5.030  13.651  20.964  0.00  0.00    +0.000 C 
ATOM     12  C   UNL     1      -3.739  12.488  22.925  0.00  0.00    +0.000 C 
ENDROOT
BRANCH   1  13
ATOM     13  C   UNL     1      -1.357  11.404  23.122  0.00  0.00    +0.000 C 
BRANCH  13  17
ATOM     14  C   UNL     1       0.484   8.555  21.331  0.00  0.00    +0.000 A 
ATOM     15  C   UNL     1       0.781   9.525  20.396  0.00  0.00    +0.000 A 
ATOM     16  S   UNL     1       0.221  11.056  20.891  0.00  0.00    +0.000 S 
ATOM     17  C   UNL     1      -0.451  10.448  22.386  0.00  0.00    +0.000 A 
ATOM     18  C   UNL     1      -0.246   9.083  22.461  0.00  0.00    +0.000 A 
ENDBRANCH  13  17
ENDBRANCH   1  13
BRANCH  10  19
ATOM     19  C   UNL     1      -7.169  12.302  21.280  0.00  0.00    +0.000 C 
BRANCH  19  20
ATOM     20  C   UNL     1      -7.260  11.009  20.533  0.00  0.00    +0.000 A 
ATOM     21  C   UNL     1      -7.916   9.830  20.821  0.00  0.00    +0.000 A 
ATOM     22  N   UNL     1      -7.606   8.990  19.795  0.00  0.00    +0.000 N 
ATOM     23  N   UNL     1      -6.823   9.591  18.887  0.00  0.00    +0.000 NA
ATOM     24  N   UNL     1      -6.601  10.828  19.317  0.00  0.00    +0.000 NA
ATOM     25  H   UNL     1      -7.873   8.026  19.640  0.00  0.00    +0.000 HD
ENDBRANCH  19  20
ENDBRANCH  10  19
TORSDOF 4
ENDMDL
MODEL 8
REMARK VINA RESULT:      -6.0      1.301      1.539
REMARK  Name = 
REMARK  4 active torsions:
REMARK  status: ('A' for Active; 'I' for Inactive)
REMARK    1  A    between atoms: C_4  and  C_5
REMARK    2  A    between atoms: C_5  and  N_6
REMARK    3  A    between atoms: N_15  and  C_16
REMARK    4  A    between atoms: C_16  and  C_17
REMARK                            x       y       z     vdW  Elec       q    Type
REMARK                         _______ _______ _______ _____ _____    ______ ____
ROOT
ATOM      1  N   UNL     1       1.991   7.263  19.304  0.00  0.00    +0.000 NA
ATOM      2  C   UNL     1       1.208   6.844  20.486  0.00  0.00    +0.000 C 
ATOM      3  C   UNL     1       0.978   5.381  20.699  0.00  0.00    +0.000 C 
ATOM      4  C   UNL     1       2.084   4.430  20.294  0.00  0.00    +0.000 C 
ATOM      5  C   UNL     1       3.267   4.869  19.358  0.00  0.00    +0.000 C 
ATOM      6  C   UNL     1       4.484   4.077  20.059  0.00  0.00    +0.000 C 
ATOM      7  O   UNL     1       5.055   2.869  19.524  0.00  0.00    +0.000 OA
ATOM      8  C   UNL     1       4.224   1.944  18.829  0.00  0.00    +0.000 C 
ATOM      9  C   UNL     1       4.181   2.285  17.338  0.00  0.00    +0.000 C 
ATOM     10  N   UNL     1       4.177   3.733  17.061  0.00  0.00    +0.000 NA
ATOM     11  C   UNL     1       3.081   4.386  17.856  0.00  0.00    +0.000 C 
ATOM     12  C   UNL     1       3.316   6.533  19.340  0.00  0.00    +0.000 C 
ENDROOT
BRANCH   1  13
ATOM     13  C   UNL     1       1.952   8.768  19.505  0.00  0.00    +0.000 C 
BRANCH  13  17
ATOM     14  C   UNL     1      -0.318  11.231  21.376  0.00  0.00    +0.000 A 
ATOM     15  C   UNL     1      -0.931  11.377  20.149  0.00  0.00    +0.000 A 
ATOM     16  S   UNL     1      -0.271  10.312  18.994  0.00  0.00    +0.000 S 
ATOM     17  C   UNL     1       0.873   9.624  20.123  0.00  0.00    +0.000 A 
ATOM     18  C   UNL     1       0.735  10.242  21.351  0.00  0.00    +0.000 A 
ENDBRANCH  13  17
ENDBRANCH   1  13
BRANCH  10  19
ATOM     19  C   UNL     1       5.530   4.337  17.154  0.00  0.00    +0.000 C 
BRANCH  19  20
ATOM     20  C   UNL     1       6.145   4.553  15.808  0.00  0.00    +0.000 A 
ATOM     21  C   UNL     1       5.870   3.993  14.577  0.00  0.00    +0.000 A 
ATOM     22  N   UNL     1       6.779   4.544  13.725  0.00  0.00    +0.000 N 
ATOM     23  N   UNL     1       7.574   5.422  14.354  0.00  0.00    +0.000 NA
ATOM     24  N   UNL     1       7.202   5.445  15.629  0.00  0.00    +0.000 NA
ATOM     25  H   UNL     1       6.926   4.383  12.736  0.00  0.00    +0.000 HD
ENDBRANCH  19  20
ENDBRANCH  10  19
TORSDOF 4
ENDMDL
MODEL 9
REMARK VINA RESULT:      -6.0      2.038      2.562
REMARK  Name = 
REMARK  4 active torsions:
REMARK  status: ('A' for Active; 'I' for Inactive)
REMARK    1  A    between atoms: C_4  and  C_5
REMARK    2  A    between atoms: C_5  and  N_6
REMARK    3  A    between atoms: N_15  and  C_16
REMARK    4  A    between atoms: C_16  and  C_17
REMARK                            x       y       z     vdW  Elec       q    Type
REMARK                         _______ _______ _______ _____ _____    ______ ____
ROOT
ATOM      1  N   UNL     1       1.958   6.732  19.936  0.00  0.00    +0.000 NA
ATOM      2  C   UNL     1       0.866   6.170  20.759  0.00  0.00    +0.000 C 
ATOM      3  C   UNL     1       0.437   4.760  20.496  0.00  0.00    +0.000 C 
ATOM      4  C   UNL     1       1.503   3.768  20.083  0.00  0.00    +0.000 C 
ATOM      5  C   UNL     1       2.922   4.220  19.581  0.00  0.00    +0.000 C 
ATOM      6  C   UNL     1       3.835   3.085  20.271  0.00  0.00    +0.000 C 
ATOM      7  O   UNL     1       4.391   1.970  19.551  0.00  0.00    +0.000 OA
ATOM      8  C   UNL     1       3.668   1.401  18.464  0.00  0.00    +0.000 C 
ATOM      9  C   UNL     1       4.033   2.105  17.156  0.00  0.00    +0.000 C 
ATOM     10  N   UNL     1       4.251   3.556  17.304  0.00  0.00    +0.000 NA
ATOM     11  C   UNL     1       3.066   4.166  18.000  0.00  0.00    +0.000 C 
ATOM     12  C   UNL     1       3.149   5.803  20.044  0.00  0.00    +0.000 C 
ENDROOT
BRANCH   1  13
ATOM     13  C   UNL     1       2.029   8.124  20.541  0.00  0.00    +0.000 C 
BRANCH  13  17
ATOM     14  C   UNL     1      -0.302  10.332  22.640  0.00  0.00    +0.000 A 
ATOM     15  C   UNL     1      -0.666  10.862  21.420  0.00  0.00    +0.000 A 
ATOM     16  S   UNL     1       0.090  10.037  20.134  0.00  0.00    +0.000 S 
ATOM     17  C   UNL     1       0.941   8.939  21.196  0.00  0.00    +0.000 A 
ATOM     18  C   UNL     1       0.641   9.245  22.510  0.00  0.00    +0.000 A 
ENDBRANCH  13  17
ENDBRANCH   1  13
BRANCH  10  19
ATOM     19  C   UNL     1       5.594   3.880  17.848  0.00  0.00    +0.000 C 
BRANCH  19  20
ATOM     20  C   UNL     1       6.405   4.700  16.895  0.00  0.00    +0.000 A 
ATOM     21  C   UNL     1       6.829   4.451  15.606  0.00  0.00    +0.000 A 
ATOM     22  N   UNL     1       7.567   5.541  15.257  0.00  0.00    +0.000 N 
ATOM     23  N   UNL     1       7.599   6.450  16.244  0.00  0.00    +0.000 NA
ATOM     24  N   UNL     1       6.892   5.957  17.254  0.00  0.00    +0.000 NA
ATOM     25  H   UNL     1       8.068   5.742  14.400  0.00  0.00    +0.000 HD
ENDBRANCH  19  20
ENDBRANCH  10  19
TORSDOF 4
ENDMDL
