MODEL 1
REMARK VINA RESULT:      -7.7      0.000      0.000
REMARK  Name = 
REMARK  5 active torsions:
REMARK  status: ('A' for Active; 'I' for Inactive)
REMARK    1  A    between atoms: C_1  and  C_2
REMARK    2  A    between atoms: C_5  and  C_6
REMARK    3  A    between atoms: C_9  and  C_11
REMARK    4  A    between atoms: C_16  and  O_17
REMARK    5  A    between atoms: C_16  and  C_18
REMARK                            x       y       z     vdW  Elec       q    Type
REMARK                         _______ _______ _______ _____ _____    ______ ____
ROOT
ATOM      1  C   UNL     1       2.410   6.510  18.454  0.00  0.00    +0.000 C 
ATOM      2  N   UNL     1       3.665   6.189  18.458  0.00  0.00    +0.000 NA
ATOM      3  N   UNL     1       3.731   4.857  18.138  0.00  0.00    +0.000 N 
ATOM      4  C   UNL     1       4.922   4.131  18.208  0.00  0.00    +0.000 C 
ATOM      5  O   UNL     1       4.878   2.900  18.114  0.00  0.00    +0.000 OA
ATOM      6  C   UNL     1       2.413   4.210  18.209  0.00  0.00    +0.000 C 
ATOM      7  C   UNL     1       1.477   5.411  18.045  0.00  0.00    +0.000 C 
ENDROOT
BRANCH   1  12
ATOM      8  C   UNL     1       0.538  11.770  19.911  0.00  0.00    +0.000 C 
ATOM      9  C   UNL     1       1.021  10.405  19.516  0.00  0.00    +0.000 A 
ATOM     10  C   UNL     1       1.444  10.145  18.208  0.00  0.00    +0.000 A 
ATOM     11  C   UNL     1       1.896   8.873  17.848  0.00  0.00    +0.000 A 
ATOM     12  C   UNL     1       1.931   7.859  18.800  0.00  0.00    +0.000 A 
ATOM     13  C   UNL     1       1.512   8.107  20.112  0.00  0.00    +0.000 A 
ATOM     14  C   UNL     1       1.053   9.376  20.465  0.00  0.00    +0.000 A 
ENDBRANCH   1  12
BRANCH   4  15
ATOM     15  C   UNL     1       6.151   4.883  18.440  0.00  0.00    +0.000 A 
ATOM     16  C   UNL     1       6.986   5.639  17.625  0.00  0.00    +0.000 A 
ATOM     17  C   UNL     1       7.964   6.228  18.461  0.00  0.00    +0.000 A 
ATOM     18  C   UNL     1       7.709   5.764  19.728  0.00  0.00    +0.000 A 
ATOM     19  O   UNL     1       6.635   4.937  19.726  0.00  0.00    +0.000 OA
ENDBRANCH   4  15
BRANCH   6  20
ATOM     20  C   UNL     1       2.188   3.457  19.563  0.00  0.00    +0.000 C 
ATOM     21  F   UNL     1       2.349   2.118  19.461  0.00  0.00    +0.000 F 
ATOM     22  F   UNL     1       3.040   3.874  20.532  0.00  0.00    +0.000 F 
ATOM     23  F   UNL     1       0.932   3.673  20.028  0.00  0.00    +0.000 F 
ENDBRANCH   6  20
BRANCH   6  24
ATOM     24  O   UNL     1       2.233   3.373  17.053  0.00  0.00    +0.000 OA
ATOM     25  H   UNL     1       2.734   2.553  17.244  0.00  0.00    +0.000 HD
ENDBRANCH   6  24
TORSDOF 4
ENDMDL
MODEL 2
REMARK VINA RESULT:      -7.6      0.213      1.264
REMARK  Name = 
REMARK  5 active torsions:
REMARK  status: ('A' for Active; 'I' for Inactive)
REMARK    1  A    between atoms: C_1  and  C_2
REMARK    2  A    between atoms: C_5  and  C_6
REMARK    3  A    between atoms: C_9  and  C_11
REMARK    4  A    between atoms: C_16  and  O_17
REMARK    5  A    between atoms: C_16  and  C_18
REMARK                            x       y       z     vdW  Elec       q    Type
REMARK                         _______ _______ _______ _____ _____    ______ ____
ROOT
ATOM      1  C   UNL     1       2.415   6.519  18.474  0.00  0.00    +0.000 C 
ATOM      2  N   UNL     1       3.681   6.245  18.428  0.00  0.00    +0.000 NA
ATOM      3  N   UNL     1       3.786   4.935  18.033  0.00  0.00    +0.000 N 
ATOM      4  C   UNL     1       5.003   4.251  18.033  0.00  0.00    +0.000 C 
ATOM      5  O   UNL     1       5.000   3.026  17.873  0.00  0.00    +0.000 OA
ATOM      6  C   UNL     1       2.494   4.237  18.104  0.00  0.00    +0.000 C 
ATOM      7  C   UNL     1       1.511   5.409  18.031  0.00  0.00    +0.000 C 
ENDROOT
BRANCH   1  12
ATOM      8  C   UNL     1       0.382  11.678  20.068  0.00  0.00    +0.000 C 
ATOM      9  C   UNL     1       0.915  10.333  19.670  0.00  0.00    +0.000 A 
ATOM     10  C   UNL     1       1.047   9.306  20.610  0.00  0.00    +0.000 A 
ATOM     11  C   UNL     1       1.542   8.056  20.232  0.00  0.00    +0.000 A 
ATOM     12  C   UNL     1       1.899   7.828  18.906  0.00  0.00    +0.000 A 
ATOM     13  C   UNL     1       1.770   8.848  17.955  0.00  0.00    +0.000 A 
ATOM     14  C   UNL     1       1.284  10.097  18.339  0.00  0.00    +0.000 A 
ENDBRANCH   1  12
BRANCH   4  15
ATOM     15  C   UNL     1       6.210   5.034  18.272  0.00  0.00    +0.000 A 
ATOM     16  C   UNL     1       6.931   5.951  17.514  0.00  0.00    +0.000 A 
ATOM     17  C   UNL     1       7.952   6.470  18.346  0.00  0.00    +0.000 A 
ATOM     18  C   UNL     1       7.835   5.812  19.546  0.00  0.00    +0.000 A 
ATOM     19  O   UNL     1       6.806   4.930  19.508  0.00  0.00    +0.000 OA
ENDBRANCH   4  15
BRANCH   6  20
ATOM     20  C   UNL     1       2.335   3.405  19.421  0.00  0.00    +0.000 C 
ATOM     21  F   UNL     1       3.228   3.746  20.378  0.00  0.00    +0.000 F 
ATOM     22  F   UNL     1       1.105   3.546  19.974  0.00  0.00    +0.000 F 
ATOM     23  F   UNL     1       2.501   2.081  19.174  0.00  0.00    +0.000 F 
ENDBRANCH   6  20
BRANCH   6  24
ATOM     24  O   UNL     1       2.311   3.456  16.910  0.00  0.00    +0.000 OA
ATOM     25  H   UNL     1       3.214   3.244  16.596  0.00  0.00    +0.000 HD
ENDBRANCH   6  24
TORSDOF 4
ENDMDL
MODEL 3
REMARK VINA RESULT:      -7.6      1.039      1.220
REMARK  Name = 
REMARK  5 active torsions:
REMARK  status: ('A' for Active; 'I' for Inactive)
REMARK    1  A    between atoms: C_1  and  C_2
REMARK    2  A    between atoms: C_5  and  C_6
REMARK    3  A    between atoms: C_9  and  C_11
REMARK    4  A    between atoms: C_16  and  O_17
REMARK    5  A    between atoms: C_16  and  C_18
REMARK                            x       y       z     vdW  Elec       q    Type
REMARK                         _______ _______ _______ _____ _____    ______ ____
ROOT
ATOM      1  C   UNL     1       2.335   6.111  19.124  0.00  0.00    +0.000 C 
ATOM      2  N   UNL     1       3.576   5.761  18.996  0.00  0.00    +0.000 NA
ATOM      3  N   UNL     1       3.611   4.392  19.080  0.00  0.00    +0.000 N 
ATOM      4  C   UNL     1       4.809   3.679  19.145  0.00  0.00    +0.000 C 
ATOM      5  O   UNL     1       4.774   2.478  19.432  0.00  0.00    +0.000 OA
ATOM      6  C   UNL     1       2.342   3.842  19.579  0.00  0.00    +0.000 C 
ATOM      7  C   UNL     1       1.367   4.973  19.238  0.00  0.00    +0.000 C 
ENDROOT
BRANCH   1  12
ATOM      8  C   UNL     1       0.627  11.620  19.266  0.00  0.00    +0.000 C 
ATOM      9  C   UNL     1       1.069  10.187  19.212  0.00  0.00    +0.000 A 
ATOM     10  C   UNL     1       1.558   9.631  18.025  0.00  0.00    +0.000 A 
ATOM     11  C   UNL     1       1.970   8.297  17.983  0.00  0.00    +0.000 A 
ATOM     12  C   UNL     1       1.900   7.517  19.134  0.00  0.00    +0.000 A 
ATOM     13  C   UNL     1       1.415   8.063  20.328  0.00  0.00    +0.000 A 
ATOM     14  C   UNL     1       0.995   9.392  20.363  0.00  0.00    +0.000 A 
ENDBRANCH   1  12
BRANCH   4  15
ATOM     15  C   UNL     1       6.044   4.422  18.916  0.00  0.00    +0.000 A 
ATOM     16  C   UNL     1       6.795   4.716  17.783  0.00  0.00    +0.000 A 
ATOM     17  C   UNL     1       7.834   5.588  18.186  0.00  0.00    +0.000 A 
ATOM     18  C   UNL     1       7.696   5.741  19.544  0.00  0.00    +0.000 A 
ATOM     19  O   UNL     1       6.637   5.027  19.999  0.00  0.00    +0.000 OA
ENDBRANCH   4  15
BRANCH   6  20
ATOM     20  C   UNL     1       2.386   3.533  21.112  0.00  0.00    +0.000 C 
ATOM     21  F   UNL     1       1.183   3.177  21.619  0.00  0.00    +0.000 F 
ATOM     22  F   UNL     1       3.242   2.526  21.411  0.00  0.00    +0.000 F 
ATOM     23  F   UNL     1       2.805   4.621  21.809  0.00  0.00    +0.000 F 
ENDBRANCH   6  20
BRANCH   6  24
ATOM     24  O   UNL     1       1.971   2.707  18.777  0.00  0.00    +0.000 OA
ATOM     25  H   UNL     1       2.744   2.107  18.800  0.00  0.00    +0.000 HD
ENDBRANCH   6  24
TORSDOF 4
ENDMDL
MODEL 4
REMARK VINA RESULT:      -7.6      1.421      2.059
REMARK  Name = 
REMARK  5 active torsions:
REMARK  status: ('A' for Active; 'I' for Inactive)
REMARK    1  A    between atoms: C_1  and  C_2
REMARK    2  A    between atoms: C_5  and  C_6
REMARK    3  A    between atoms: C_9  and  C_11
REMARK    4  A    between atoms: C_16  and  O_17
REMARK    5  A    between atoms: C_16  and  C_18
REMARK                            x       y       z     vdW  Elec       q    Type
REMARK                         _______ _______ _______ _____ _____    ______ ____
ROOT
ATOM      1  C   UNL     1       2.721   6.519  18.671  0.00  0.00    +0.000 C 
ATOM      2  N   UNL     1       3.995   6.627  18.459  0.00  0.00    +0.000 NA
ATOM      3  N   UNL     1       4.386   5.481  17.814  0.00  0.00    +0.000 N 
ATOM      4  C   UNL     1       5.728   5.182  17.572  0.00  0.00    +0.000 C 
ATOM      5  O   UNL     1       6.026   4.048  17.183  0.00  0.00    +0.000 OA
ATOM      6  C   UNL     1       3.348   4.442  17.867  0.00  0.00    +0.000 C 
ATOM      7  C   UNL     1       2.090   5.281  18.109  0.00  0.00    +0.000 C 
ENDROOT
BRANCH   1  12
ATOM      8  C   UNL     1      -0.343  10.574  21.401  0.00  0.00    +0.000 C 
ATOM      9  C   UNL     1       0.459   9.513  20.706  0.00  0.00    +0.000 A 
ATOM     10  C   UNL     1       0.797   8.325  21.362  0.00  0.00    +0.000 A 
ATOM     11  C   UNL     1       1.542   7.340  20.708  0.00  0.00    +0.000 A 
ATOM     12  C   UNL     1       1.943   7.541  19.391  0.00  0.00    +0.000 A 
ATOM     13  C   UNL     1       1.609   8.725  18.724  0.00  0.00    +0.000 A 
ATOM     14  C   UNL     1       0.874   9.710  19.383  0.00  0.00    +0.000 A 
ENDBRANCH   1  12
BRANCH   4  15
ATOM     15  C   UNL     1       6.707   6.229  17.847  0.00  0.00    +0.000 A 
ATOM     16  C   UNL     1       7.740   6.364  18.768  0.00  0.00    +0.000 A 
ATOM     17  C   UNL     1       8.421   7.565  18.457  0.00  0.00    +0.000 A 
ATOM     18  C   UNL     1       7.743   8.124  17.401  0.00  0.00    +0.000 A 
ATOM     19  O   UNL     1       6.697   7.342  17.039  0.00  0.00    +0.000 OA
ENDBRANCH   4  15
BRANCH   6  20
ATOM     20  C   UNL     1       3.600   3.402  19.009  0.00  0.00    +0.000 C 
ATOM     21  F   UNL     1       4.540   3.802  19.897  0.00  0.00    +0.000 F 
ATOM     22  F   UNL     1       2.480   3.142  19.727  0.00  0.00    +0.000 F 
ATOM     23  F   UNL     1       4.017   2.217  18.496  0.00  0.00    +0.000 F 
ENDBRANCH   6  20
BRANCH   6  24
ATOM     24  O   UNL     1       3.212   3.841  16.567  0.00  0.00    +0.000 OA
ATOM     25  H   UNL     1       2.765   4.514  16.014  0.00  0.00    +0.000 HD
ENDBRANCH   6  24
TORSDOF 4
ENDMDL
MODEL 5
REMARK VINA RESULT:      -7.5      2.498      5.779
REMARK  Name = 
REMARK  5 active torsions:
REMARK  status: ('A' for Active; 'I' for Inactive)
REMARK    1  A    between atoms: C_1  and  C_2
REMARK    2  A    between atoms: C_5  and  C_6
REMARK    3  A    between atoms: C_9  and  C_11
REMARK    4  A    between atoms: C_16  and  O_17
REMARK    5  A    between atoms: C_16  and  C_18
REMARK                            x       y       z     vdW  Elec       q    Type
REMARK                         _______ _______ _______ _____ _____    ______ ____
ROOT
ATOM      1  C   UNL     1       4.499   4.457  17.658  0.00  0.00    +0.000 C 
ATOM      2  N   UNL     1       3.805   5.443  18.132  0.00  0.00    +0.000 NA
ATOM      3  N   UNL     1       3.092   4.949  19.195  0.00  0.00    +0.000 N 
ATOM      4  C   UNL     1       2.110   5.697  19.847  0.00  0.00    +0.000 C 
ATOM      5  O   UNL     1       1.362   5.128  20.651  0.00  0.00    +0.000 OA
ATOM      6  C   UNL     1       3.113   3.479  19.232  0.00  0.00    +0.000 C 
ATOM      7  C   UNL     1       4.377   3.174  18.422  0.00  0.00    +0.000 C 
ENDROOT
BRANCH   1  12
ATOM      8  C   UNL     1       7.799   4.951  12.952  0.00  0.00    +0.000 C 
ATOM      9  C   UNL     1       6.955   4.822  14.185  0.00  0.00    +0.000 A 
ATOM     10  C   UNL     1       7.450   5.205  15.436  0.00  0.00    +0.000 A 
ATOM     11  C   UNL     1       6.657   5.085  16.581  0.00  0.00    +0.000 A 
ATOM     12  C   UNL     1       5.362   4.588  16.473  0.00  0.00    +0.000 A 
ATOM     13  C   UNL     1       4.855   4.203  15.226  0.00  0.00    +0.000 A 
ATOM     14  C   UNL     1       5.653   4.315  14.088  0.00  0.00    +0.000 A 
ENDBRANCH   1  12
BRANCH   4  15
ATOM     15  C   UNL     1       1.999   7.108  19.495  0.00  0.00    +0.000 A 
ATOM     16  C   UNL     1       2.243   7.833  18.333  0.00  0.00    +0.000 A 
ATOM     17  C   UNL     1       1.828   9.164  18.578  0.00  0.00    +0.000 A 
ATOM     18  C   UNL     1       1.403   9.195  19.883  0.00  0.00    +0.000 A 
ATOM     19  O   UNL     1       1.522   7.971  20.453  0.00  0.00    +0.000 OA
ENDBRANCH   4  15
BRANCH   6  20
ATOM     20  C   UNL     1       1.830   2.846  18.598  0.00  0.00    +0.000 C 
ATOM     21  F   UNL     1       0.991   2.311  19.514  0.00  0.00    +0.000 F 
ATOM     22  F   UNL     1       1.104   3.749  17.893  0.00  0.00    +0.000 F 
ATOM     23  F   UNL     1       2.161   1.853  17.734  0.00  0.00    +0.000 F 
ENDBRANCH   6  20
BRANCH   6  24
ATOM     24  O   UNL     1       3.359   3.043  20.580  0.00  0.00    +0.000 OA
ATOM     25  H   UNL     1       3.358   2.064  20.542  0.00  0.00    +0.000 HD
ENDBRANCH   6  24
TORSDOF 4
ENDMDL
MODEL 6
REMARK VINA RESULT:      -7.5      0.702      1.086
REMARK  Name = 
REMARK  5 active torsions:
REMARK  status: ('A' for Active; 'I' for Inactive)
REMARK    1  A    between atoms: C_1  and  C_2
REMARK    2  A    between atoms: C_5  and  C_6
REMARK    3  A    between atoms: C_9  and  C_11
REMARK    4  A    between atoms: C_16  and  O_17
REMARK    5  A    between atoms: C_16  and  C_18
REMARK                            x       y       z     vdW  Elec       q    Type
REMARK                         _______ _______ _______ _____ _____    ______ ____
ROOT
ATOM      1  C   UNL     1       2.404   6.338  18.748  0.00  0.00    +0.000 C 
ATOM      2  N   UNL     1       3.676   6.160  18.578  0.00  0.00    +0.000 NA
ATOM      3  N   UNL     1       3.826   4.929  17.990  0.00  0.00    +0.000 N 
ATOM      4  C   UNL     1       5.077   4.337  17.808  0.00  0.00    +0.000 C 
ATOM      5  O   UNL     1       5.132   3.148  17.472  0.00  0.00    +0.000 OA
ATOM      6  C   UNL     1       2.585   4.142  18.045  0.00  0.00    +0.000 C 
ATOM      7  C   UNL     1       1.534   5.243  18.210  0.00  0.00    +0.000 C 
ENDROOT
BRANCH   1  12
ATOM      8  C   UNL     1       0.239  10.985  21.394  0.00  0.00    +0.000 C 
ATOM      9  C   UNL     1       0.796   9.783  20.691  0.00  0.00    +0.000 A 
ATOM     10  C   UNL     1       1.127   9.835  19.333  0.00  0.00    +0.000 A 
ATOM     11  C   UNL     1       1.649   8.713  18.685  0.00  0.00    +0.000 A 
ATOM     12  C   UNL     1       1.848   7.535  19.400  0.00  0.00    +0.000 A 
ATOM     13  C   UNL     1       1.523   7.471  20.759  0.00  0.00    +0.000 A 
ATOM     14  C   UNL     1       0.994   8.591  21.400  0.00  0.00    +0.000 A 
ENDBRANCH   1  12
BRANCH   4  15
ATOM     15  C   UNL     1       6.252   5.158  18.078  0.00  0.00    +0.000 A 
ATOM     16  C   UNL     1       6.890   6.184  17.389  0.00  0.00    +0.000 A 
ATOM     17  C   UNL     1       7.919   6.674  18.228  0.00  0.00    +0.000 A 
ATOM     18  C   UNL     1       7.890   5.894  19.358  0.00  0.00    +0.000 A 
ATOM     19  O   UNL     1       6.907   4.965  19.272  0.00  0.00    +0.000 OA
ENDBRANCH   4  15
BRANCH   6  20
ATOM     20  C   UNL     1       2.575   3.123  19.233  0.00  0.00    +0.000 C 
ATOM     21  F   UNL     1       1.386   3.067  19.877  0.00  0.00    +0.000 F 
ATOM     22  F   UNL     1       2.855   1.859  18.832  0.00  0.00    +0.000 F 
ATOM     23  F   UNL     1       3.512   3.455  20.158  0.00  0.00    +0.000 F 
ENDBRANCH   6  20
BRANCH   6  24
ATOM     24  O   UNL     1       2.357   3.527  16.764  0.00  0.00    +0.000 OA
ATOM     25  H   UNL     1       2.700   2.614  16.848  0.00  0.00    +0.000 HD
ENDBRANCH   6  24
TORSDOF 4
ENDMDL
MODEL 7
REMARK VINA RESULT:      -7.5      1.409      1.639
REMARK  Name = 
REMARK  5 active torsions:
REMARK  status: ('A' for Active; 'I' for Inactive)
REMARK    1  A    between atoms: C_1  and  C_2
REMARK    2  A    between atoms: C_5  and  C_6
REMARK    3  A    between atoms: C_9  and  C_11
REMARK    4  A    between atoms: C_16  and  O_17
REMARK    5  A    between atoms: C_16  and  C_18
REMARK                            x       y       z     vdW  Elec       q    Type
REMARK                         _______ _______ _______ _____ _____    ______ ____
ROOT
ATOM      1  C   UNL     1       2.700   6.556  18.650  0.00  0.00    +0.000 C 
ATOM      2  N   UNL     1       3.975   6.653  18.442  0.00  0.00    +0.000 NA
ATOM      3  N   UNL     1       4.360   5.499  17.809  0.00  0.00    +0.000 N 
ATOM      4  C   UNL     1       5.701   5.188  17.576  0.00  0.00    +0.000 C 
ATOM      5  O   UNL     1       5.993   4.048  17.198  0.00  0.00    +0.000 OA
ATOM      6  C   UNL     1       3.314   4.467  17.868  0.00  0.00    +0.000 C 
ATOM      7  C   UNL     1       2.061   5.318  18.097  0.00  0.00    +0.000 C 
ENDROOT
BRANCH   1  12
ATOM      8  C   UNL     1      -0.317  10.560  21.506  0.00  0.00    +0.000 C 
ATOM      9  C   UNL     1       0.462   9.525  20.749  0.00  0.00    +0.000 A 
ATOM     10  C   UNL     1       0.863   9.753  19.428  0.00  0.00    +0.000 A 
ATOM     11  C   UNL     1       1.590   8.787  18.729  0.00  0.00    +0.000 A 
ATOM     12  C   UNL     1       1.926   7.590  19.356  0.00  0.00    +0.000 A 
ATOM     13  C   UNL     1       1.533   7.351  20.678  0.00  0.00    +0.000 A 
ATOM     14  C   UNL     1       0.798   8.315  21.369  0.00  0.00    +0.000 A 
ENDBRANCH   1  12
BRANCH   4  15
ATOM     15  C   UNL     1       6.686   6.230  17.844  0.00  0.00    +0.000 A 
ATOM     16  C   UNL     1       7.725   6.361  18.760  0.00  0.00    +0.000 A 
ATOM     17  C   UNL     1       8.410   7.559  18.445  0.00  0.00    +0.000 A 
ATOM     18  C   UNL     1       7.729   8.120  17.392  0.00  0.00    +0.000 A 
ATOM     19  O   UNL     1       6.677   7.343  17.036  0.00  0.00    +0.000 OA
ENDBRANCH   4  15
BRANCH   6  20
ATOM     20  C   UNL     1       3.555   3.436  19.021  0.00  0.00    +0.000 C 
ATOM     21  F   UNL     1       4.020   2.244  18.582  0.00  0.00    +0.000 F 
ATOM     22  F   UNL     1       4.450   3.885  19.935  0.00  0.00    +0.000 F 
ATOM     23  F   UNL     1       2.401   3.190  19.692  0.00  0.00    +0.000 F 
ENDBRANCH   6  20
BRANCH   6  24
ATOM     24  O   UNL     1       3.180   3.855  16.573  0.00  0.00    +0.000 OA
ATOM     25  H   UNL     1       3.402   2.911  16.706  0.00  0.00    +0.000 HD
ENDBRANCH   6  24
TORSDOF 4
ENDMDL
MODEL 8
REMARK VINA RESULT:      -7.5      2.508      5.760
REMARK  Name = 
REMARK  5 active torsions:
REMARK  status: ('A' for Active; 'I' for Inactive)
REMARK    1  A    between atoms: C_1  and  C_2
REMARK    2  A    between atoms: C_5  and  C_6
REMARK    3  A    between atoms: C_9  and  C_11
REMARK    4  A    between atoms: C_16  and  O_17
REMARK    5  A    between atoms: C_16  and  C_18
REMARK                            x       y       z     vdW  Elec       q    Type
REMARK                         _______ _______ _______ _____ _____    ______ ____
ROOT
ATOM      1  C   UNL     1       4.505   4.411  17.575  0.00  0.00    +0.000 C 
ATOM      2  N   UNL     1       3.814   5.392  18.064  0.00  0.00    +0.000 NA
ATOM      3  N   UNL     1       3.129   4.892  19.143  0.00  0.00    +0.000 N 
ATOM      4  C   UNL     1       2.156   5.632  19.817  0.00  0.00    +0.000 C 
ATOM      5  O   UNL     1       1.430   5.059  20.636  0.00  0.00    +0.000 OA
ATOM      6  C   UNL     1       3.162   3.423  19.179  0.00  0.00    +0.000 C 
ATOM      7  C   UNL     1       4.409   3.126  18.341  0.00  0.00    +0.000 C 
ENDROOT
BRANCH   1  12
ATOM      8  C   UNL     1       7.861   4.963  12.914  0.00  0.00    +0.000 C 
ATOM      9  C   UNL     1       6.974   4.820  14.116  0.00  0.00    +0.000 A 
ATOM     10  C   UNL     1       5.676   4.312  13.994  0.00  0.00    +0.000 A 
ATOM     11  C   UNL     1       4.858   4.179  15.118  0.00  0.00    +0.000 A 
ATOM     12  C   UNL     1       5.340   4.548  16.371  0.00  0.00    +0.000 A 
ATOM     13  C   UNL     1       6.637   5.056  16.505  0.00  0.00    +0.000 A 
ATOM     14  C   UNL     1       7.448   5.196  15.380  0.00  0.00    +0.000 A 
ENDBRANCH   1  12
BRANCH   4  15
ATOM     15  C   UNL     1       2.027   7.043  19.467  0.00  0.00    +0.000 A 
ATOM     16  C   UNL     1       2.232   7.769  18.299  0.00  0.00    +0.000 A 
ATOM     17  C   UNL     1       1.817   9.097  18.554  0.00  0.00    +0.000 A 
ATOM     18  C   UNL     1       1.430   9.127  19.872  0.00  0.00    +0.000 A 
ATOM     19  O   UNL     1       1.572   7.904  20.439  0.00  0.00    +0.000 OA
ENDBRANCH   4  15
BRANCH   6  20
ATOM     20  C   UNL     1       1.870   2.780  18.573  0.00  0.00    +0.000 C 
ATOM     21  F   UNL     1       1.083   3.672  17.928  0.00  0.00    +0.000 F 
ATOM     22  F   UNL     1       2.151   1.800  17.680  0.00  0.00    +0.000 F 
ATOM     23  F   UNL     1       1.113   2.214  19.548  0.00  0.00    +0.000 F 
ENDBRANCH   6  20
BRANCH   6  24
ATOM     24  O   UNL     1       3.441   2.988  20.521  0.00  0.00    +0.000 OA
ATOM     25  H   UNL     1       2.728   3.371  21.073  0.00  0.00    +0.000 HD
ENDBRANCH   6  24
TORSDOF 4
ENDMDL
MODEL 9
REMARK VINA RESULT:      -7.4      1.168      1.663
REMARK  Name = 
REMARK  5 active torsions:
REMARK  status: ('A' for Active; 'I' for Inactive)
REMARK    1  A    between atoms: C_1  and  C_2
REMARK    2  A    between atoms: C_5  and  C_6
REMARK    3  A    between atoms: C_9  and  C_11
REMARK    4  A    between atoms: C_16  and  O_17
REMARK    5  A    between atoms: C_16  and  C_18
REMARK                            x       y       z     vdW  Elec       q    Type
REMARK                         _______ _______ _______ _____ _____    ______ ____
ROOT
ATOM      1  C   UNL     1       2.185   6.132  19.578  0.00  0.00    +0.000 C 
ATOM      2  N   UNL     1       3.412   5.814  19.310  0.00  0.00    +0.000 NA
ATOM      3  N   UNL     1       3.458   4.444  19.244  0.00  0.00    +0.000 N 
ATOM      4  C   UNL     1       4.660   3.743  19.131  0.00  0.00    +0.000 C 
ATOM      5  O   UNL     1       4.654   2.517  19.290  0.00  0.00    +0.000 OA
ATOM      6  C   UNL     1       2.238   3.828  19.785  0.00  0.00    +0.000 C 
ATOM      7  C   UNL     1       1.233   4.976  19.651  0.00  0.00    +0.000 C 
ENDROOT
BRANCH   1  12
ATOM      8  C   UNL     1       0.472  11.600  20.250  0.00  0.00    +0.000 C 
ATOM      9  C   UNL     1       0.921  10.177  20.092  0.00  0.00    +0.000 A 
ATOM     10  C   UNL     1       0.875   9.287  21.170  0.00  0.00    +0.000 A 
ATOM     11  C   UNL     1       1.291   7.962  21.015  0.00  0.00    +0.000 A 
ATOM     12  C   UNL     1       1.748   7.524  19.776  0.00  0.00    +0.000 A 
ATOM     13  C   UNL     1       1.797   8.405  18.689  0.00  0.00    +0.000 A 
ATOM     14  C   UNL     1       1.389   9.729  18.851  0.00  0.00    +0.000 A 
ENDBRANCH   1  12
BRANCH   4  15
ATOM     15  C   UNL     1       5.868   4.521  18.880  0.00  0.00    +0.000 A 
ATOM     16  C   UNL     1       6.474   5.015  17.729  0.00  0.00    +0.000 A 
ATOM     17  C   UNL     1       7.572   5.808  18.143  0.00  0.00    +0.000 A 
ATOM     18  C   UNL     1       7.610   5.717  19.513  0.00  0.00    +0.000 A 
ATOM     19  O   UNL     1       6.605   4.929  19.967  0.00  0.00    +0.000 OA
ENDBRANCH   4  15
BRANCH   6  20
ATOM     20  C   UNL     1       2.413   3.358  21.268  0.00  0.00    +0.000 C 
ATOM     21  F   UNL     1       1.285   2.829  21.796  0.00  0.00    +0.000 F 
ATOM     22  F   UNL     1       3.378   2.415  21.400  0.00  0.00    +0.000 F 
ATOM     23  F   UNL     1       2.774   4.399  22.062  0.00  0.00    +0.000 F 
ENDBRANCH   6  20
BRANCH   6  24
ATOM     24  O   UNL     1       1.804   2.780  18.901  0.00  0.00    +0.000 OA
ATOM     25  H   UNL     1       1.970   3.116  17.996  0.00  0.00    +0.000 HD
ENDBRANCH   6  24
TORSDOF 4
ENDMDL
