MODEL 1
REMARK VINA RESULT:      -6.7      0.000      0.000
REMARK  Name = 
REMARK  8 active torsions:
REMARK  status: ('A' for Active; 'I' for Inactive)
REMARK    1  A    between atoms: C_1  and  C_2
REMARK    2  A    between atoms: C_2  and  C_3
REMARK    3  A    between atoms: N_5  and  C_6
REMARK    4  A    between atoms: C_6  and  C_7
REMARK    5  A    between atoms: C_7  and  C_8
REMARK    6  A    between atoms: N_11  and  C_12
REMARK    7  A    between atoms: C_12  and  C_13
REMARK    8  A    between atoms: C_30  and  C_31
REMARK                            x       y       z     vdW  Elec       q    Type
REMARK                         _______ _______ _______ _____ _____    ______ ____
ROOT
ATOM      1  C   UNL     1      -1.438  13.208  20.132  0.00  0.00    +0.000 C 
ATOM      2  C   UNL     1      -0.949  13.353  18.655  0.00  0.00    +0.000 C 
ATOM      3  C   UNL     1      -1.287  12.152  17.759  0.00  0.00    +0.000 C 
ATOM      4  O   UNL     1      -2.684  11.885  17.759  0.00  0.00    +0.000 OA
ATOM      5  C   UNL     1      -3.170  11.558  19.054  0.00  0.00    +0.000 C 
ATOM      6  C   UNL     1      -2.913  12.704  20.020  0.00  0.00    +0.000 C 
ENDROOT
BRANCH   1   7
ATOM      7  C   UNL     1      -0.374  12.387  21.000  0.00  0.00    +0.000 C 
ATOM      8  C   UNL     1       1.133  12.415  20.689  0.00  0.00    +0.000 C 
ATOM      9  C   UNL     1       1.616  11.397  19.660  0.00  0.00    +0.000 C 
ATOM     10  N   UNL     1       1.136  10.028  19.860  0.00  0.00    +0.000 NA
ATOM     11  C   UNL     1      -0.270   9.932  20.292  0.00  0.00    +0.000 C 
ATOM     12  C   UNL     1      -0.726  10.936  21.345  0.00  0.00    +0.000 C 
BRANCH  10  13
ATOM     13  C   UNL     1       1.272   9.239  18.610  0.00  0.00    +0.000 C 
BRANCH  13  14
ATOM     14  C   UNL     1       2.218   8.059  18.644  0.00  0.00    +0.000 A 
ATOM     15  C   UNL     1       2.147   7.114  19.682  0.00  0.00    +0.000 A 
ATOM     16  C   UNL     1       2.949   5.972  19.644  0.00  0.00    +0.000 A 
ATOM     17  C   UNL     1       3.830   5.764  18.581  0.00  0.00    +0.000 A 
ATOM     18  C   UNL     1       3.926   6.707  17.562  0.00  0.00    +0.000 A 
ATOM     19  C   UNL     1       3.126   7.850  17.596  0.00  0.00    +0.000 A 
ENDBRANCH  13  14
ENDBRANCH  10  13
ENDBRANCH   1   7
BRANCH   1  20
ATOM     20  C   UNL     1      -1.635  14.617  20.890  0.00  0.00    +0.000 C 
BRANCH  20  23
ATOM     21  C   UNL     1       0.238  15.615  22.220  0.00  0.00    +0.000 C 
ATOM     22  O   UNL     1      -0.070  14.967  23.221  0.00  0.00    +0.000 OA
ATOM     23  N   UNL     1      -0.470  15.504  21.014  0.00  0.00    +0.000 N 
ATOM     24  C   UNL     1      -0.150  16.290  19.889  0.00  0.00    +0.000 A 
ATOM     25  C   UNL     1      -1.134  17.047  19.282  0.00  0.00    +0.000 A 
ATOM     26  C   UNL     1      -0.835  17.725  18.109  0.00  0.00    +0.000 A 
ATOM     27  C   UNL     1       0.439  17.606  17.570  0.00  0.00    +0.000 A 
ATOM     28  C   UNL     1       1.390  16.839  18.236  0.00  0.00    +0.000 A 
ATOM     29  N   UNL     1       1.102  16.199  19.403  0.00  0.00    +0.000 NA
BRANCH  28  30
ATOM     30  C   UNL     1       2.782  16.668  17.641  0.00  0.00    +0.000 C 
ATOM     31  F   UNL     1       3.091  15.368  17.369  0.00  0.00    +0.000 F 
ATOM     32  F   UNL     1       2.948  17.339  16.467  0.00  0.00    +0.000 F 
ATOM     33  F   UNL     1       3.772  17.108  18.473  0.00  0.00    +0.000 F 
ENDBRANCH  28  30
BRANCH  21  35
ATOM     34  C   UNL     1       2.776  16.021  22.456  0.00  0.00    +0.000 C 
ATOM     35  C   UNL     1       1.395  16.624  22.259  0.00  0.00    +0.000 C 
ENDBRANCH  21  35
ENDBRANCH  20  23
ENDBRANCH   1  20
TORSDOF 7
ENDMDL
MODEL 2
REMARK VINA RESULT:      -6.7      4.183      5.889
REMARK  Name = 
REMARK  8 active torsions:
REMARK  status: ('A' for Active; 'I' for Inactive)
REMARK    1  A    between atoms: C_1  and  C_2
REMARK    2  A    between atoms: C_2  and  C_3
REMARK    3  A    between atoms: N_5  and  C_6
REMARK    4  A    between atoms: C_6  and  C_7
REMARK    5  A    between atoms: C_7  and  C_8
REMARK    6  A    between atoms: N_11  and  C_12
REMARK    7  A    between atoms: C_12  and  C_13
REMARK    8  A    between atoms: C_30  and  C_31
REMARK                            x       y       z     vdW  Elec       q    Type
REMARK                         _______ _______ _______ _____ _____    ______ ____
ROOT
ATOM      1  C   UNL     1      -0.781  12.370  19.541  0.00  0.00    +0.000 C 
ATOM      2  C   UNL     1      -0.398  12.889  20.964  0.00  0.00    +0.000 C 
ATOM      3  C   UNL     1       1.090  12.739  21.310  0.00  0.00    +0.000 C 
ATOM      4  O   UNL     1       1.913  13.385  20.346  0.00  0.00    +0.000 OA
ATOM      5  C   UNL     1       1.754  12.834  19.045  0.00  0.00    +0.000 C 
ATOM      6  C   UNL     1       0.309  12.962  18.590  0.00  0.00    +0.000 C 
ENDROOT
BRANCH   1   7
ATOM      7  C   UNL     1      -1.049  10.792  19.570  0.00  0.00    +0.000 C 
ATOM      8  C   UNL     1      -0.318   9.855  20.548  0.00  0.00    +0.000 C 
ATOM      9  C   UNL     1       1.033   9.327  20.075  0.00  0.00    +0.000 C 
ATOM     10  N   UNL     1       1.056   8.799  18.710  0.00  0.00    +0.000 NA
ATOM     11  C   UNL     1       0.263   9.577  17.742  0.00  0.00    +0.000 C 
ATOM     12  C   UNL     1      -1.099  10.068  18.220  0.00  0.00    +0.000 C 
BRANCH  10  13
ATOM     13  C   UNL     1       2.448   8.738  18.198  0.00  0.00    +0.000 C 
BRANCH  13  14
ATOM     14  C   UNL     1       3.021   7.364  17.931  0.00  0.00    +0.000 A 
ATOM     15  C   UNL     1       2.314   6.209  18.303  0.00  0.00    +0.000 A 
ATOM     16  C   UNL     1       2.800   4.947  17.953  0.00  0.00    +0.000 A 
ATOM     17  C   UNL     1       3.994   4.826  17.239  0.00  0.00    +0.000 A 
ATOM     18  C   UNL     1       4.716   5.963  16.890  0.00  0.00    +0.000 A 
ATOM     19  C   UNL     1       4.232   7.226  17.237  0.00  0.00    +0.000 A 
ENDBRANCH  13  14
ENDBRANCH  10  13
ENDBRANCH   1   7
BRANCH   1  20
ATOM     20  C   UNL     1      -2.123  13.035  18.947  0.00  0.00    +0.000 C 
BRANCH  20  23
ATOM     21  C   UNL     1      -4.385  11.972  19.119  0.00  0.00    +0.000 C 
ATOM     22  O   UNL     1      -4.245  11.400  18.037  0.00  0.00    +0.000 OA
ATOM     23  N   UNL     1      -3.387  12.797  19.660  0.00  0.00    +0.000 N 
ATOM     24  C   UNL     1      -3.574  13.496  20.869  0.00  0.00    +0.000 A 
ATOM     25  C   UNL     1      -3.376  14.862  20.906  0.00  0.00    +0.000 A 
ATOM     26  C   UNL     1      -3.449  15.521  22.125  0.00  0.00    +0.000 A 
ATOM     27  C   UNL     1      -3.701  14.782  23.274  0.00  0.00    +0.000 A 
ATOM     28  C   UNL     1      -3.905  13.409  23.169  0.00  0.00    +0.000 A 
ATOM     29  N   UNL     1      -3.861  12.771  21.967  0.00  0.00    +0.000 NA
BRANCH  28  30
ATOM     30  C   UNL     1      -4.146  12.579  24.422  0.00  0.00    +0.000 C 
ATOM     31  F   UNL     1      -5.462  12.281  24.620  0.00  0.00    +0.000 F 
ATOM     32  F   UNL     1      -3.497  11.381  24.405  0.00  0.00    +0.000 F 
ATOM     33  F   UNL     1      -3.745  13.213  25.564  0.00  0.00    +0.000 F 
ENDBRANCH  28  30
BRANCH  21  35
ATOM     34  C   UNL     1      -6.780  11.019  19.251  0.00  0.00    +0.000 C 
ATOM     35  C   UNL     1      -5.693  11.849  19.914  0.00  0.00    +0.000 C 
ENDBRANCH  21  35
ENDBRANCH  20  23
ENDBRANCH   1  20
TORSDOF 7
ENDMDL
MODEL 3
REMARK VINA RESULT:      -6.6      4.133      5.514
REMARK  Name = 
REMARK  8 active torsions:
REMARK  status: ('A' for Active; 'I' for Inactive)
REMARK    1  A    between atoms: C_1  and  C_2
REMARK    2  A    between atoms: C_2  and  C_3
REMARK    3  A    between atoms: N_5  and  C_6
REMARK    4  A    between atoms: C_6  and  C_7
REMARK    5  A    between atoms: C_7  and  C_8
REMARK    6  A    between atoms: N_11  and  C_12
REMARK    7  A    between atoms: C_12  and  C_13
REMARK    8  A    between atoms: C_30  and  C_31
REMARK                            x       y       z     vdW  Elec       q    Type
REMARK                         _______ _______ _______ _____ _____    ______ ____
ROOT
ATOM      1  C   UNL     1      -0.617  12.555  19.833  0.00  0.00    +0.000 C 
ATOM      2  C   UNL     1       0.328  12.972  21.006  0.00  0.00    +0.000 C 
ATOM      3  C   UNL     1       1.823  12.783  20.708  0.00  0.00    +0.000 C 
ATOM      4  O   UNL     1       2.208  13.486  19.532  0.00  0.00    +0.000 OA
ATOM      5  C   UNL     1       1.515  13.027  18.379  0.00  0.00    +0.000 C 
ATOM      6  C   UNL     1       0.016  13.200  18.558  0.00  0.00    +0.000 C 
ENDROOT
BRANCH   1   7
ATOM      7  C   UNL     1      -0.908  10.982  19.876  0.00  0.00    +0.000 C 
ATOM      8  C   UNL     1      -0.111  10.026  20.781  0.00  0.00    +0.000 C 
ATOM      9  C   UNL     1       1.184   9.479  20.187  0.00  0.00    +0.000 C 
ATOM     10  N   UNL     1       1.079   8.961  18.822  0.00  0.00    +0.000 NA
ATOM     11  C   UNL     1       0.217   9.760  17.932  0.00  0.00    +0.000 C 
ATOM     12  C   UNL     1      -1.089  10.270  18.532  0.00  0.00    +0.000 C 
BRANCH  10  13
ATOM     13  C   UNL     1       2.419   8.882  18.189  0.00  0.00    +0.000 C 
BRANCH  13  14
ATOM     14  C   UNL     1       2.980   7.498  17.944  0.00  0.00    +0.000 A 
ATOM     15  C   UNL     1       2.305   6.359  18.411  0.00  0.00    +0.000 A 
ATOM     16  C   UNL     1       2.773   5.084  18.085  0.00  0.00    +0.000 A 
ATOM     17  C   UNL     1       3.918   4.935  17.298  0.00  0.00    +0.000 A 
ATOM     18  C   UNL     1       4.608   6.058  16.852  0.00  0.00    +0.000 A 
ATOM     19  C   UNL     1       4.143   7.333  17.177  0.00  0.00    +0.000 A 
ENDBRANCH  13  14
ENDBRANCH  10  13
ENDBRANCH   1   7
BRANCH   1  20
ATOM     20  C   UNL     1      -2.059  13.273  19.877  0.00  0.00    +0.000 C 
BRANCH  20  23
ATOM     21  C   UNL     1      -1.760  15.582  20.804  0.00  0.00    +0.000 C 
ATOM     22  O   UNL     1      -1.083  15.929  19.834  0.00  0.00    +0.000 OA
ATOM     23  N   UNL     1      -2.295  14.289  20.913  0.00  0.00    +0.000 N 
ATOM     24  C   UNL     1      -3.019  13.878  22.050  0.00  0.00    +0.000 A 
ATOM     25  C   UNL     1      -2.637  12.737  22.727  0.00  0.00    +0.000 A 
ATOM     26  C   UNL     1      -3.424  12.278  23.774  0.00  0.00    +0.000 A 
ATOM     27  C   UNL     1      -4.584  12.972  24.096  0.00  0.00    +0.000 A 
ATOM     28  C   UNL     1      -4.907  14.124  23.385  0.00  0.00    +0.000 A 
ATOM     29  N   UNL     1      -4.116  14.587  22.378  0.00  0.00    +0.000 NA
BRANCH  28  30
ATOM     30  C   UNL     1      -6.193  14.876  23.701  0.00  0.00    +0.000 C 
ATOM     31  F   UNL     1      -6.837  15.325  22.586  0.00  0.00    +0.000 F 
ATOM     32  F   UNL     1      -7.105  14.120  24.373  0.00  0.00    +0.000 F 
ATOM     33  F   UNL     1      -5.982  15.988  24.466  0.00  0.00    +0.000 F 
ENDBRANCH  28  30
BRANCH  21  35
ATOM     34  C   UNL     1      -0.842  16.717  22.932  0.00  0.00    +0.000 C 
ATOM     35  C   UNL     1      -2.010  16.541  21.975  0.00  0.00    +0.000 C 
ENDBRANCH  21  35
ENDBRANCH  20  23
ENDBRANCH   1  20
TORSDOF 7
ENDMDL
MODEL 4
REMARK VINA RESULT:      -6.6      0.277      1.138
REMARK  Name = 
REMARK  8 active torsions:
REMARK  status: ('A' for Active; 'I' for Inactive)
REMARK    1  A    between atoms: C_1  and  C_2
REMARK    2  A    between atoms: C_2  and  C_3
REMARK    3  A    between atoms: N_5  and  C_6
REMARK    4  A    between atoms: C_6  and  C_7
REMARK    5  A    between atoms: C_7  and  C_8
REMARK    6  A    between atoms: N_11  and  C_12
REMARK    7  A    between atoms: C_12  and  C_13
REMARK    8  A    between atoms: C_30  and  C_31
REMARK                            x       y       z     vdW  Elec       q    Type
REMARK                         _______ _______ _______ _____ _____    ______ ____
ROOT
ATOM      1  C   UNL     1      -1.405  13.155  20.123  0.00  0.00    +0.000 C 
ATOM      2  C   UNL     1      -0.961  13.343  18.637  0.00  0.00    +0.000 C 
ATOM      3  C   UNL     1      -1.297  12.155  17.724  0.00  0.00    +0.000 C 
ATOM      4  O   UNL     1      -2.688  11.855  17.757  0.00  0.00    +0.000 OA
ATOM      5  C   UNL     1      -3.130  11.489  19.057  0.00  0.00    +0.000 C 
ATOM      6  C   UNL     1      -2.871  12.619  20.041  0.00  0.00    +0.000 C 
ENDROOT
BRANCH   1   7
ATOM      7  C   UNL     1      -0.298  12.340  20.943  0.00  0.00    +0.000 C 
ATOM      8  C   UNL     1       1.192  12.372  20.561  0.00  0.00    +0.000 C 
ATOM      9  C   UNL     1       1.629  11.352  19.514  0.00  0.00    +0.000 C 
ATOM     10  N   UNL     1       1.164   9.982  19.740  0.00  0.00    +0.000 NA
ATOM     11  C   UNL     1      -0.219   9.883  20.238  0.00  0.00    +0.000 C 
ATOM     12  C   UNL     1      -0.629  10.889  21.308  0.00  0.00    +0.000 C 
BRANCH  10  13
ATOM     13  C   UNL     1       1.244   9.190  18.488  0.00  0.00    +0.000 C 
BRANCH  13  14
ATOM     14  C   UNL     1       2.180   8.001  18.488  0.00  0.00    +0.000 A 
ATOM     15  C   UNL     1       3.152   7.854  17.485  0.00  0.00    +0.000 A 
ATOM     16  C   UNL     1       4.080   6.813  17.556  0.00  0.00    +0.000 A 
ATOM     17  C   UNL     1       4.044   5.910  18.620  0.00  0.00    +0.000 A 
ATOM     18  C   UNL     1       3.068   6.031  19.605  0.00  0.00    +0.000 A 
ATOM     19  C   UNL     1       2.139   7.070  19.537  0.00  0.00    +0.000 A 
ENDBRANCH  13  14
ENDBRANCH  10  13
ENDBRANCH   1   7
BRANCH   1  20
ATOM     20  C   UNL     1      -1.612  14.542  20.918  0.00  0.00    +0.000 C 
BRANCH  20  23
ATOM     21  C   UNL     1       0.240  15.558  22.264  0.00  0.00    +0.000 C 
ATOM     22  O   UNL     1      -0.071  14.906  23.263  0.00  0.00    +0.000 OA
ATOM     23  N   UNL     1      -0.457  15.441  21.052  0.00  0.00    +0.000 N 
ATOM     24  C   UNL     1      -0.135  16.231  19.930  0.00  0.00    +0.000 A 
ATOM     25  C   UNL     1      -1.121  16.978  19.315  0.00  0.00    +0.000 A 
ATOM     26  C   UNL     1      -0.818  17.659  18.145  0.00  0.00    +0.000 A 
ATOM     27  C   UNL     1       0.462  17.553  17.617  0.00  0.00    +0.000 A 
ATOM     28  C   UNL     1       1.415  16.795  18.291  0.00  0.00    +0.000 A 
ATOM     29  N   UNL     1       1.122  16.152  19.456  0.00  0.00    +0.000 NA
BRANCH  28  30
ATOM     30  C   UNL     1       2.813  16.638  17.708  0.00  0.00    +0.000 C 
ATOM     31  F   UNL     1       3.000  17.361  16.567  0.00  0.00    +0.000 F 
ATOM     32  F   UNL     1       3.797  17.038  18.561  0.00  0.00    +0.000 F 
ATOM     33  F   UNL     1       3.104  15.348  17.369  0.00  0.00    +0.000 F 
ENDBRANCH  28  30
BRANCH  21  35
ATOM     34  C   UNL     1       1.011  17.953  22.843  0.00  0.00    +0.000 C 
ATOM     35  C   UNL     1       1.386  16.578  22.314  0.00  0.00    +0.000 C 
ENDBRANCH  21  35
ENDBRANCH  20  23
ENDBRANCH   1  20
TORSDOF 7
ENDMDL
MODEL 5
REMARK VINA RESULT:      -6.5      3.686      7.399
REMARK  Name = 
REMARK  8 active torsions:
REMARK  status: ('A' for Active; 'I' for Inactive)
REMARK    1  A    between atoms: C_1  and  C_2
REMARK    2  A    between atoms: C_2  and  C_3
REMARK    3  A    between atoms: N_5  and  C_6
REMARK    4  A    between atoms: C_6  and  C_7
REMARK    5  A    between atoms: C_7  and  C_8
REMARK    6  A    between atoms: N_11  and  C_12
REMARK    7  A    between atoms: C_12  and  C_13
REMARK    8  A    between atoms: C_30  and  C_31
REMARK                            x       y       z     vdW  Elec       q    Type
REMARK                         _______ _______ _______ _____ _____    ______ ____
ROOT
ATOM      1  C   UNL     1      -2.488  13.561  22.935  0.00  0.00    +0.000 C 
ATOM      2  C   UNL     1      -3.517  12.413  23.192  0.00  0.00    +0.000 C 
ATOM      3  C   UNL     1      -4.965  12.772  22.827  0.00  0.00    +0.000 C 
ATOM      4  O   UNL     1      -5.069  13.191  21.471  0.00  0.00    +0.000 OA
ATOM      5  C   UNL     1      -4.296  14.354  21.206  0.00  0.00    +0.000 C 
ATOM      6  C   UNL     1      -2.828  14.093  21.505  0.00  0.00    +0.000 C 
ENDROOT
BRANCH   1   7
ATOM      7  C   UNL     1      -2.446  14.568  24.177  0.00  0.00    +0.000 C 
ATOM      8  C   UNL     1      -3.445  15.729  24.325  0.00  0.00    +0.000 C 
ATOM      9  C   UNL     1      -3.058  17.029  23.627  0.00  0.00    +0.000 C 
ATOM     10  N   UNL     1      -1.682  17.475  23.851  0.00  0.00    +0.000 NA
ATOM     11  C   UNL     1      -0.683  16.392  23.856  0.00  0.00    +0.000 C 
ATOM     12  C   UNL     1      -1.074  15.112  24.588  0.00  0.00    +0.000 C 
BRANCH  10  13
ATOM     13  C   UNL     1      -1.273  18.452  22.811  0.00  0.00    +0.000 C 
BRANCH  13  14
ATOM     14  C   UNL     1      -0.973  17.902  21.434  0.00  0.00    +0.000 A 
ATOM     15  C   UNL     1      -2.008  17.673  20.513  0.00  0.00    +0.000 A 
ATOM     16  C   UNL     1      -1.710  17.270  19.209  0.00  0.00    +0.000 A 
ATOM     17  C   UNL     1      -0.382  17.085  18.817  0.00  0.00    +0.000 A 
ATOM     18  C   UNL     1       0.649  17.283  19.730  0.00  0.00    +0.000 A 
ATOM     19  C   UNL     1       0.354  17.686  21.033  0.00  0.00    +0.000 A 
ENDBRANCH  13  14
ENDBRANCH  10  13
ENDBRANCH   1   7
BRANCH   1  20
ATOM     20  C   UNL     1      -0.976  13.041  22.735  0.00  0.00    +0.000 C 
BRANCH  20  23
ATOM     21  C   UNL     1      -0.536  10.599  22.396  0.00  0.00    +0.000 C 
ATOM     22  O   UNL     1      -0.537  10.387  23.610  0.00  0.00    +0.000 OA
ATOM     23  N   UNL     1      -0.752  11.879  21.864  0.00  0.00    +0.000 N 
ATOM     24  C   UNL     1      -0.692  12.128  20.478  0.00  0.00    +0.000 A 
ATOM     25  C   UNL     1       0.141  13.120  19.998  0.00  0.00    +0.000 A 
ATOM     26  C   UNL     1       0.105  13.434  18.647  0.00  0.00    +0.000 A 
ATOM     27  C   UNL     1      -0.780  12.754  17.821  0.00  0.00    +0.000 A 
ATOM     28  C   UNL     1      -1.584  11.755  18.363  0.00  0.00    +0.000 A 
ATOM     29  N   UNL     1      -1.525  11.429  19.685  0.00  0.00    +0.000 NA
BRANCH  28  30
ATOM     30  C   UNL     1      -2.587  11.023  17.481  0.00  0.00    +0.000 C 
ATOM     31  F   UNL     1      -3.587  11.831  17.026  0.00  0.00    +0.000 F 
ATOM     32  F   UNL     1      -2.022  10.476  16.369  0.00  0.00    +0.000 F 
ATOM     33  F   UNL     1      -3.217  10.000  18.130  0.00  0.00    +0.000 F 
ENDBRANCH  28  30
BRANCH  21  35
ATOM     34  C   UNL     1       1.072   8.738  21.611  0.00  0.00    +0.000 C 
ATOM     35  C   UNL     1      -0.244   9.470  21.398  0.00  0.00    +0.000 C 
ENDBRANCH  21  35
ENDBRANCH  20  23
ENDBRANCH   1  20
TORSDOF 7
ENDMDL
MODEL 6
REMARK VINA RESULT:      -6.5      3.888      7.400
REMARK  Name = 
REMARK  8 active torsions:
REMARK  status: ('A' for Active; 'I' for Inactive)
REMARK    1  A    between atoms: C_1  and  C_2
REMARK    2  A    between atoms: C_2  and  C_3
REMARK    3  A    between atoms: N_5  and  C_6
REMARK    4  A    between atoms: C_6  and  C_7
REMARK    5  A    between atoms: C_7  and  C_8
REMARK    6  A    between atoms: N_11  and  C_12
REMARK    7  A    between atoms: C_12  and  C_13
REMARK    8  A    between atoms: C_30  and  C_31
REMARK                            x       y       z     vdW  Elec       q    Type
REMARK                         _______ _______ _______ _____ _____    ______ ____
ROOT
ATOM      1  C   UNL     1      -1.885  14.226  22.571  0.00  0.00    +0.000 C 
ATOM      2  C   UNL     1      -2.728  14.049  21.268  0.00  0.00    +0.000 C 
ATOM      3  C   UNL     1      -3.621  15.250  20.927  0.00  0.00    +0.000 C 
ATOM      4  O   UNL     1      -2.860  16.448  20.826  0.00  0.00    +0.000 OA
ATOM      5  C   UNL     1      -2.208  16.776  22.045  0.00  0.00    +0.000 C 
ATOM      6  C   UNL     1      -1.266  15.657  22.459  0.00  0.00    +0.000 C 
ENDROOT
BRANCH   1   7
ATOM      7  C   UNL     1      -2.747  13.823  23.858  0.00  0.00    +0.000 C 
ATOM      8  C   UNL     1      -3.549  12.512  23.930  0.00  0.00    +0.000 C 
ATOM      9  C   UNL     1      -4.961  12.568  23.356  0.00  0.00    +0.000 C 
ATOM     10  N   UNL     1      -5.768  13.711  23.785  0.00  0.00    +0.000 NA
ATOM     11  C   UNL     1      -5.027  14.983  23.868  0.00  0.00    +0.000 C 
ATOM     12  C   UNL     1      -3.629  14.914  24.475  0.00  0.00    +0.000 C 
BRANCH  10  13
ATOM     13  C   UNL     1      -6.909  13.922  22.859  0.00  0.00    +0.000 C 
BRANCH  13  14
ATOM     14  C   UNL     1      -6.992  13.010  21.655  0.00  0.00    +0.000 A 
ATOM     15  C   UNL     1      -7.590  11.743  21.757  0.00  0.00    +0.000 A 
ATOM     16  C   UNL     1      -7.760  10.956  20.616  0.00  0.00    +0.000 A 
ATOM     17  C   UNL     1      -7.332  11.420  19.370  0.00  0.00    +0.000 A 
ATOM     18  C   UNL     1      -6.714  12.663  19.264  0.00  0.00    +0.000 A 
ATOM     19  C   UNL     1      -6.543  13.452  20.402  0.00  0.00    +0.000 A 
ENDBRANCH  13  14
ENDBRANCH  10  13
ENDBRANCH   1   7
BRANCH   1  20
ATOM     20  C   UNL     1      -0.563  13.305  22.619  0.00  0.00    +0.000 C 
BRANCH  20  23
ATOM     21  C   UNL     1      -0.480  10.813  22.374  0.00  0.00    +0.000 C 
ATOM     22  O   UNL     1      -0.464  10.651  23.595  0.00  0.00    +0.000 OA
ATOM     23  N   UNL     1      -0.537  12.090  21.793  0.00  0.00    +0.000 N 
ATOM     24  C   UNL     1      -0.495  12.273  20.396  0.00  0.00    +0.000 A 
ATOM     25  C   UNL     1       0.448  13.118  19.846  0.00  0.00    +0.000 A 
ATOM     26  C   UNL     1       0.405  13.381  18.484  0.00  0.00    +0.000 A 
ATOM     27  C   UNL     1      -0.597  12.800  17.719  0.00  0.00    +0.000 A 
ATOM     28  C   UNL     1      -1.511  11.946  18.330  0.00  0.00    +0.000 A 
ATOM     29  N   UNL     1      -1.447  11.667  19.662  0.00  0.00    +0.000 NA
BRANCH  28  30
ATOM     30  C   UNL     1      -2.638  11.328  17.513  0.00  0.00    +0.000 C 
ATOM     31  F   UNL     1      -2.860  10.018  17.815  0.00  0.00    +0.000 F 
ATOM     32  F   UNL     1      -3.834  11.955  17.692  0.00  0.00    +0.000 F 
ATOM     33  F   UNL     1      -2.393  11.352  16.170  0.00  0.00    +0.000 F 
ENDBRANCH  28  30
BRANCH  21  35
ATOM     34  C   UNL     1       0.949   8.889  21.416  0.00  0.00    +0.000 C 
ATOM     35  C   UNL     1      -0.386   9.616  21.418  0.00  0.00    +0.000 C 
ENDBRANCH  21  35
ENDBRANCH  20  23
ENDBRANCH   1  20
TORSDOF 7
ENDMDL
MODEL 7
REMARK VINA RESULT:      -6.4      5.484      8.138
REMARK  Name = 
REMARK  8 active torsions:
REMARK  status: ('A' for Active; 'I' for Inactive)
REMARK    1  A    between atoms: C_1  and  C_2
REMARK    2  A    between atoms: C_2  and  C_3
REMARK    3  A    between atoms: N_5  and  C_6
REMARK    4  A    between atoms: C_6  and  C_7
REMARK    5  A    between atoms: C_7  and  C_8
REMARK    6  A    between atoms: N_11  and  C_12
REMARK    7  A    between atoms: C_12  and  C_13
REMARK    8  A    between atoms: C_30  and  C_31
REMARK                            x       y       z     vdW  Elec       q    Type
REMARK                         _______ _______ _______ _____ _____    ______ ____
ROOT
ATOM      1  C   UNL     1       5.434  16.194  19.546  0.00  0.00    +0.000 C 
ATOM      2  C   UNL     1       5.965  17.405  20.380  0.00  0.00    +0.000 C 
ATOM      3  C   UNL     1       5.578  17.365  21.865  0.00  0.00    +0.000 C 
ATOM      4  O   UNL     1       6.009  16.156  22.480  0.00  0.00    +0.000 OA
ATOM      5  C   UNL     1       5.414  15.009  21.887  0.00  0.00    +0.000 C 
ATOM      6  C   UNL     1       5.765  14.934  20.410  0.00  0.00    +0.000 C 
ENDROOT
BRANCH   1   7
ATOM      7  C   UNL     1       3.933  16.461  19.060  0.00  0.00    +0.000 C 
ATOM      8  C   UNL     1       2.759  16.573  20.049  0.00  0.00    +0.000 C 
ATOM      9  C   UNL     1       2.094  15.257  20.439  0.00  0.00    +0.000 C 
ATOM     10  N   UNL     1       1.771  14.363  19.326  0.00  0.00    +0.000 NA
ATOM     11  C   UNL     1       2.798  14.309  18.270  0.00  0.00    +0.000 C 
ATOM     12  C   UNL     1       3.429  15.639  17.869  0.00  0.00    +0.000 C 
BRANCH  10  13
ATOM     13  C   UNL     1       1.562  12.976  19.813  0.00  0.00    +0.000 C 
BRANCH  13  14
ATOM     14  C   UNL     1       0.569  12.125  19.052  0.00  0.00    +0.000 A 
ATOM     15  C   UNL     1       0.829  10.767  18.807  0.00  0.00    +0.000 A 
ATOM     16  C   UNL     1      -0.141   9.966  18.201  0.00  0.00    +0.000 A 
ATOM     17  C   UNL     1      -1.372  10.512  17.829  0.00  0.00    +0.000 A 
ATOM     18  C   UNL     1      -1.629  11.863  18.043  0.00  0.00    +0.000 A 
ATOM     19  C   UNL     1      -0.661  12.666  18.648  0.00  0.00    +0.000 A 
ENDBRANCH  13  14
ENDBRANCH  10  13
ENDBRANCH   1   7
BRANCH   1  20
ATOM     20  C   UNL     1       6.286  15.904  18.210  0.00  0.00    +0.000 C 
BRANCH  20  23
ATOM     21  C   UNL     1       8.583  16.898  18.328  0.00  0.00    +0.000 C 
ATOM     22  O   UNL     1       8.138  18.043  18.233  0.00  0.00    +0.000 OA
ATOM     23  N   UNL     1       7.745  15.772  18.334  0.00  0.00    +0.000 N 
ATOM     24  C   UNL     1       8.261  14.462  18.384  0.00  0.00    +0.000 A 
ATOM     25  C   UNL     1       7.884  13.543  17.425  0.00  0.00    +0.000 A 
ATOM     26  C   UNL     1       8.305  12.226  17.550  0.00  0.00    +0.000 A 
ATOM     27  C   UNL     1       9.079  11.870  18.647  0.00  0.00    +0.000 A 
ATOM     28  C   UNL     1       9.437  12.846  19.572  0.00  0.00    +0.000 A 
ATOM     29  N   UNL     1       9.046  14.143  19.430  0.00  0.00    +0.000 NA
BRANCH  28  30
ATOM     30  C   UNL     1      10.255  12.467  20.800  0.00  0.00    +0.000 C 
ATOM     31  F   UNL     1       9.736  11.405  21.480  0.00  0.00    +0.000 F 
ATOM     32  F   UNL     1      11.539  12.121  20.502  0.00  0.00    +0.000 F 
ATOM     33  F   UNL     1      10.335  13.477  21.716  0.00  0.00    +0.000 F 
ENDBRANCH  28  30
BRANCH  21  35
ATOM     34  C   UNL     1      10.821  16.692  17.059  0.00  0.00    +0.000 C 
ATOM     35  C   UNL     1      10.094  16.642  18.393  0.00  0.00    +0.000 C 
ENDBRANCH  21  35
ENDBRANCH  20  23
ENDBRANCH   1  20
TORSDOF 7
ENDMDL
MODEL 8
REMARK VINA RESULT:      -6.4      4.650      6.677
REMARK  Name = 
REMARK  8 active torsions:
REMARK  status: ('A' for Active; 'I' for Inactive)
REMARK    1  A    between atoms: C_1  and  C_2
REMARK    2  A    between atoms: C_2  and  C_3
REMARK    3  A    between atoms: N_5  and  C_6
REMARK    4  A    between atoms: C_6  and  C_7
REMARK    5  A    between atoms: C_7  and  C_8
REMARK    6  A    between atoms: N_11  and  C_12
REMARK    7  A    between atoms: C_12  and  C_13
REMARK    8  A    between atoms: C_30  and  C_31
REMARK                            x       y       z     vdW  Elec       q    Type
REMARK                         _______ _______ _______ _____ _____    ______ ____
ROOT
ATOM      1  C   UNL     1      -1.895  13.122  20.635  0.00  0.00    +0.000 C 
ATOM      2  C   UNL     1      -2.311  11.845  21.435  0.00  0.00    +0.000 C 
ATOM      3  C   UNL     1      -1.370  11.496  22.597  0.00  0.00    +0.000 C 
ATOM      4  O   UNL     1      -1.239  12.586  23.502  0.00  0.00    +0.000 OA
ATOM      5  C   UNL     1      -0.686  13.739  22.880  0.00  0.00    +0.000 C 
ATOM      6  C   UNL     1      -1.566  14.191  21.726  0.00  0.00    +0.000 C 
ENDROOT
BRANCH   1   7
ATOM      7  C   UNL     1      -0.811  12.757  19.516  0.00  0.00    +0.000 C 
ATOM      8  C   UNL     1      -0.957  11.526  18.604  0.00  0.00    +0.000 C 
ATOM      9  C   UNL     1      -0.400  10.220  19.161  0.00  0.00    +0.000 C 
ATOM     10  N   UNL     1       0.944  10.304  19.734  0.00  0.00    +0.000 NA
ATOM     11  C   UNL     1       1.199  11.528  20.513  0.00  0.00    +0.000 C 
ATOM     12  C   UNL     1       0.664  12.830  19.925  0.00  0.00    +0.000 C 
BRANCH  10  13
ATOM     13  C   UNL     1       1.205   9.146  20.626  0.00  0.00    +0.000 C 
BRANCH  13  14
ATOM     14  C   UNL     1       1.705   7.877  19.972  0.00  0.00    +0.000 A 
ATOM     15  C   UNL     1       2.295   7.911  18.698  0.00  0.00    +0.000 A 
ATOM     16  C   UNL     1       2.851   6.752  18.152  0.00  0.00    +0.000 A 
ATOM     17  C   UNL     1       2.817   5.552  18.866  0.00  0.00    +0.000 A 
ATOM     18  C   UNL     1       2.211   5.502  20.118  0.00  0.00    +0.000 A 
ATOM     19  C   UNL     1       1.655   6.658  20.666  0.00  0.00    +0.000 A 
ENDBRANCH  13  14
ENDBRANCH  10  13
ENDBRANCH   1   7
BRANCH   1  20
ATOM     20  C   UNL     1      -3.118  13.823  19.853  0.00  0.00    +0.000 C 
BRANCH  20  23
ATOM     21  C   UNL     1      -4.922  12.204  19.224  0.00  0.00    +0.000 C 
ATOM     22  O   UNL     1      -4.217  11.692  18.352  0.00  0.00    +0.000 OA
ATOM     23  N   UNL     1      -4.464  13.260  20.026  0.00  0.00    +0.000 N 
ATOM     24  C   UNL     1      -5.293  13.880  20.982  0.00  0.00    +0.000 A 
ATOM     25  C   UNL     1      -5.463  15.251  20.952  0.00  0.00    +0.000 A 
ATOM     26  C   UNL     1      -6.186  15.863  21.966  0.00  0.00    +0.000 A 
ATOM     27  C   UNL     1      -6.701  15.080  22.991  0.00  0.00    +0.000 A 
ATOM     28  C   UNL     1      -6.507  13.702  22.958  0.00  0.00    +0.000 A 
ATOM     29  N   UNL     1      -5.822  13.102  21.945  0.00  0.00    +0.000 NA
BRANCH  28  30
ATOM     30  C   UNL     1      -7.034  12.833  24.092  0.00  0.00    +0.000 C 
ATOM     31  F   UNL     1      -7.783  11.781  23.654  0.00  0.00    +0.000 F 
ATOM     32  F   UNL     1      -6.044  12.288  24.853  0.00  0.00    +0.000 F 
ATOM     33  F   UNL     1      -7.843  13.518  24.952  0.00  0.00    +0.000 F 
ENDBRANCH  28  30
BRANCH  21  35
ATOM     34  C   UNL     1      -7.381  12.270  18.441  0.00  0.00    +0.000 C 
ATOM     35  C   UNL     1      -6.368  11.739  19.443  0.00  0.00    +0.000 C 
ENDBRANCH  21  35
ENDBRANCH  20  23
ENDBRANCH   1  20
TORSDOF 7
ENDMDL
MODEL 9
REMARK VINA RESULT:      -6.4      4.048      7.304
REMARK  Name = 
REMARK  8 active torsions:
REMARK  status: ('A' for Active; 'I' for Inactive)
REMARK    1  A    between atoms: C_1  and  C_2
REMARK    2  A    between atoms: C_2  and  C_3
REMARK    3  A    between atoms: N_5  and  C_6
REMARK    4  A    between atoms: C_6  and  C_7
REMARK    5  A    between atoms: C_7  and  C_8
REMARK    6  A    between atoms: N_11  and  C_12
REMARK    7  A    between atoms: C_12  and  C_13
REMARK    8  A    between atoms: C_30  and  C_31
REMARK                            x       y       z     vdW  Elec       q    Type
REMARK                         _______ _______ _______ _____ _____    ______ ____
ROOT
ATOM      1  C   UNL     1       1.223  14.788  20.164  0.00  0.00    +0.000 C 
ATOM      2  C   UNL     1       1.996  13.546  20.713  0.00  0.00    +0.000 C 
ATOM      3  C   UNL     1       3.293  13.890  21.460  0.00  0.00    +0.000 C 
ATOM      4  O   UNL     1       3.048  14.793  22.532  0.00  0.00    +0.000 OA
ATOM      5  C   UNL     1       2.512  16.031  22.083  0.00  0.00    +0.000 C 
ATOM      6  C   UNL     1       1.198  15.804  21.352  0.00  0.00    +0.000 C 
ENDROOT
BRANCH   1   7
ATOM      7  C   UNL     1       1.808  15.231  18.742  0.00  0.00    +0.000 C 
ATOM      8  C   UNL     1       2.897  14.423  18.015  0.00  0.00    +0.000 C 
ATOM      9  C   UNL     1       4.336  14.764  18.392  0.00  0.00    +0.000 C 
ATOM     10  N   UNL     1       4.656  16.192  18.415  0.00  0.00    +0.000 NA
ATOM     11  C   UNL     1       3.595  17.045  18.979  0.00  0.00    +0.000 C 
ATOM     12  C   UNL     1       2.165  16.711  18.566  0.00  0.00    +0.000 C 
BRANCH  10  13
ATOM     13  C   UNL     1       5.890  16.438  19.204  0.00  0.00    +0.000 C 
BRANCH  13  14
ATOM     14  C   UNL     1       6.957  15.366  19.159  0.00  0.00    +0.000 A 
ATOM     15  C   UNL     1       7.603  15.049  17.953  0.00  0.00    +0.000 A 
ATOM     16  C   UNL     1       8.661  14.138  17.943  0.00  0.00    +0.000 A 
ATOM     17  C   UNL     1       9.079  13.533  19.130  0.00  0.00    +0.000 A 
ATOM     18  C   UNL     1       8.428  13.821  20.326  0.00  0.00    +0.000 A 
ATOM     19  C   UNL     1       7.370  14.731  20.339  0.00  0.00    +0.000 A 
ENDBRANCH  13  14
ENDBRANCH  10  13
ENDBRANCH   1   7
BRANCH   1  20
ATOM     20  C   UNL     1      -0.349  14.522  19.933  0.00  0.00    +0.000 C 
BRANCH  20  23
ATOM     21  C   UNL     1      -0.918  12.526  18.530  0.00  0.00    +0.000 C 
ATOM     22  O   UNL     1      -0.632  13.123  17.490  0.00  0.00    +0.000 OA
ATOM     23  N   UNL     1      -0.802  13.131  19.791  0.00  0.00    +0.000 N 
ATOM     24  C   UNL     1      -1.185  12.466  20.973  0.00  0.00    +0.000 A 
ATOM     25  C   UNL     1      -2.083  13.065  21.834  0.00  0.00    +0.000 A 
ATOM     26  C   UNL     1      -2.363  12.454  23.048  0.00  0.00    +0.000 A 
ATOM     27  C   UNL     1      -1.716  11.267  23.368  0.00  0.00    +0.000 A 
ATOM     28  C   UNL     1      -0.831  10.706  22.451  0.00  0.00    +0.000 A 
ATOM     29  N   UNL     1      -0.582  11.294  21.248  0.00  0.00    +0.000 NA
BRANCH  28  30
ATOM     30  C   UNL     1      -0.086   9.425  22.801  0.00  0.00    +0.000 C 
ATOM     31  F   UNL     1       0.072   9.248  24.143  0.00  0.00    +0.000 F 
ATOM     32  F   UNL     1      -0.714   8.302  22.354  0.00  0.00    +0.000 F 
ATOM     33  F   UNL     1       1.176   9.388  22.281  0.00  0.00    +0.000 F 
ENDBRANCH  28  30
BRANCH  21  35
ATOM     34  C   UNL     1      -0.488  10.034  18.012  0.00  0.00    +0.000 C 
ATOM     35  C   UNL     1      -1.467  11.093  18.492  0.00  0.00    +0.000 C 
ENDBRANCH  21  35
ENDBRANCH  20  23
ENDBRANCH   1  20
TORSDOF 7
ENDMDL
