MODEL 1
REMARK VINA RESULT:      -7.9      0.000      0.000
REMARK  Name = 
REMARK  5 active torsions:
REMARK  status: ('A' for Active; 'I' for Inactive)
REMARK    1  A    between atoms: C_1  and  N_2
REMARK    2  A    between atoms: N_2  and  C_3
REMARK    3  A    between atoms: N_2  and  C_4
REMARK    4  A    between atoms: C_7  and  C_8
REMARK    5  A    between atoms: C_15  and  O_16
REMARK                            x       y       z     vdW  Elec       q    Type
REMARK                         _______ _______ _______ _____ _____    ______ ____
ROOT
ATOM      1  C   UNL     1       2.980   6.795  18.157  0.00  0.00    +0.000 A 
ATOM      2  C   UNL     1       2.321   5.639  18.003  0.00  0.00    +0.000 A 
ATOM      3  C   UNL     1       3.058   4.437  17.667  0.00  0.00    +0.000 A 
ATOM      4  O   UNL     1       2.589   3.328  17.857  0.00  0.00    +0.000 OA
ATOM      5  C   UNL     1       4.355   4.646  17.044  0.00  0.00    +0.000 A 
ATOM      6  C   UNL     1       4.934   3.582  16.347  0.00  0.00    +0.000 A 
ATOM      7  C   UNL     1       6.038   3.824  15.545  0.00  0.00    +0.000 A 
ATOM      8  C   UNL     1       6.555   5.116  15.483  0.00  0.00    +0.000 A 
ATOM      9  C   UNL     1       6.019   6.166  16.245  0.00  0.00    +0.000 A 
ATOM     10  C   UNL     1       4.895   5.933  17.038  0.00  0.00    +0.000 A 
ATOM     11  O   UNL     1       4.312   6.973  17.753  0.00  0.00    +0.000 OA
ENDROOT
BRANCH   1  15
ATOM     12  C   UNL     1       0.332   9.845  19.785  0.00  0.00    +0.000 A 
ATOM     13  C   UNL     1       0.937   8.883  20.591  0.00  0.00    +0.000 A 
ATOM     14  C   UNL     1       1.866   7.973  20.071  0.00  0.00    +0.000 A 
ATOM     15  C   UNL     1       2.222   7.951  18.707  0.00  0.00    +0.000 A 
ATOM     16  C   UNL     1       1.771   9.018  17.939  0.00  0.00    +0.000 A 
ATOM     17  C   UNL     1       0.843   9.940  18.475  0.00  0.00    +0.000 A 
BRANCH  12  19
ATOM     18  C   UNL     1      -1.533  11.417  19.302  0.00  0.00    +0.000 C 
ATOM     19  N   UNL     1      -0.702  10.666  20.245  0.00  0.00    +0.000 N 
ATOM     20  C   UNL     1      -0.557  11.247  21.580  0.00  0.00    +0.000 C 
ENDBRANCH  12  19
ENDBRANCH   1  15
BRANCH   8  21
ATOM     21  O   UNL     1       7.589   5.392  14.634  0.00  0.00    +0.000 OA
ATOM     22  H   UNL     1       7.683   4.649  14.011  0.00  0.00    +0.000 HD
ENDBRANCH   8  21
TORSDOF 3
ENDMDL
MODEL 2
REMARK VINA RESULT:      -7.7      0.776      1.328
REMARK  Name = 
REMARK  5 active torsions:
REMARK  status: ('A' for Active; 'I' for Inactive)
REMARK    1  A    between atoms: C_1  and  N_2
REMARK    2  A    between atoms: N_2  and  C_3
REMARK    3  A    between atoms: N_2  and  C_4
REMARK    4  A    between atoms: C_7  and  C_8
REMARK    5  A    between atoms: C_15  and  O_16
REMARK                            x       y       z     vdW  Elec       q    Type
REMARK                         _______ _______ _______ _____ _____    ______ ____
ROOT
ATOM      1  C   UNL     1       3.029   6.478  18.127  0.00  0.00    +0.000 A 
ATOM      2  C   UNL     1       2.454   5.286  17.915  0.00  0.00    +0.000 A 
ATOM      3  C   UNL     1       3.275   4.158  17.523  0.00  0.00    +0.000 A 
ATOM      4  O   UNL     1       2.886   3.011  17.658  0.00  0.00    +0.000 OA
ATOM      5  C   UNL     1       4.555   4.489  16.917  0.00  0.00    +0.000 A 
ATOM      6  C   UNL     1       5.209   3.504  16.172  0.00  0.00    +0.000 A 
ATOM      7  C   UNL     1       6.293   3.862  15.387  0.00  0.00    +0.000 A 
ATOM      8  C   UNL     1       6.717   5.189  15.390  0.00  0.00    +0.000 A 
ATOM      9  C   UNL     1       6.107   6.160  16.200  0.00  0.00    +0.000 A 
ATOM     10  C   UNL     1       5.001   5.810  16.976  0.00  0.00    +0.000 A 
ATOM     11  O   UNL     1       4.346   6.769  17.737  0.00  0.00    +0.000 OA
ENDROOT
BRANCH   1  15
ATOM     12  C   UNL     1       1.017   9.924  19.870  0.00  0.00    +0.000 A 
ATOM     13  C   UNL     1       1.219   9.801  18.497  0.00  0.00    +0.000 A 
ATOM     14  C   UNL     1       1.775   8.642  17.941  0.00  0.00    +0.000 A 
ATOM     15  C   UNL     1       2.190   7.549  18.729  0.00  0.00    +0.000 A 
ATOM     16  C   UNL     1       1.821   7.583  20.068  0.00  0.00    +0.000 A 
ATOM     17  C   UNL     1       1.249   8.753  20.619  0.00  0.00    +0.000 A 
BRANCH  12  19
ATOM     18  C   UNL     1       1.336  12.364  20.223  0.00  0.00    +0.000 C 
ATOM     19  N   UNL     1       0.602  11.121  20.463  0.00  0.00    +0.000 N 
ATOM     20  C   UNL     1      -0.110  11.029  21.737  0.00  0.00    +0.000 C 
ENDBRANCH  12  19
ENDBRANCH   1  15
BRANCH   8  21
ATOM     21  O   UNL     1       7.729   5.579  14.560  0.00  0.00    +0.000 OA
ATOM     22  H   UNL     1       8.226   4.788  14.286  0.00  0.00    +0.000 HD
ENDBRANCH   8  21
TORSDOF 3
ENDMDL
MODEL 3
REMARK VINA RESULT:      -7.3      0.864      1.440
REMARK  Name = 
REMARK  5 active torsions:
REMARK  status: ('A' for Active; 'I' for Inactive)
REMARK    1  A    between atoms: C_1  and  N_2
REMARK    2  A    between atoms: N_2  and  C_3
REMARK    3  A    between atoms: N_2  and  C_4
REMARK    4  A    between atoms: C_7  and  C_8
REMARK    5  A    between atoms: C_15  and  O_16
REMARK                            x       y       z     vdW  Elec       q    Type
REMARK                         _______ _______ _______ _____ _____    ______ ____
ROOT
ATOM      1  C   UNL     1       2.884   6.885  18.408  0.00  0.00    +0.000 A 
ATOM      2  C   UNL     1       2.441   5.637  18.615  0.00  0.00    +0.000 A 
ATOM      3  C   UNL     1       3.310   4.515  18.324  0.00  0.00    +0.000 A 
ATOM      4  O   UNL     1       3.111   3.414  18.807  0.00  0.00    +0.000 OA
ATOM      5  C   UNL     1       4.389   4.779  17.385  0.00  0.00    +0.000 A 
ATOM      6  C   UNL     1       5.007   3.690  16.764  0.00  0.00    +0.000 A 
ATOM      7  C   UNL     1       5.857   3.919  15.694  0.00  0.00    +0.000 A 
ATOM      8  C   UNL     1       6.093   5.231  15.291  0.00  0.00    +0.000 A 
ATOM      9  C   UNL     1       5.533   6.327  15.967  0.00  0.00    +0.000 A 
ATOM     10  C   UNL     1       4.659   6.101  17.032  0.00  0.00    +0.000 A 
ATOM     11  O   UNL     1       4.047   7.169  17.675  0.00  0.00    +0.000 OA
ENDROOT
BRANCH   1  15
ATOM     12  C   UNL     1       0.889  10.460  19.892  0.00  0.00    +0.000 A 
ATOM     13  C   UNL     1       1.169  10.276  18.539  0.00  0.00    +0.000 A 
ATOM     14  C   UNL     1       1.718   9.079  18.063  0.00  0.00    +0.000 A 
ATOM     15  C   UNL     1       2.047   8.005  18.916  0.00  0.00    +0.000 A 
ATOM     16  C   UNL     1       1.600   8.105  20.228  0.00  0.00    +0.000 A 
ATOM     17  C   UNL     1       1.036   9.314  20.698  0.00  0.00    +0.000 A 
BRANCH  12  19
ATOM     18  C   UNL     1      -0.657  11.773  21.329  0.00  0.00    +0.000 C 
ATOM     19  N   UNL     1       0.480  11.692  20.412  0.00  0.00    +0.000 N 
ATOM     20  C   UNL     1       0.743  12.884  19.605  0.00  0.00    +0.000 C 
ENDBRANCH  12  19
ENDBRANCH   1  15
BRANCH   8  21
ATOM     21  O   UNL     1       6.860   5.473  14.187  0.00  0.00    +0.000 OA
ATOM     22  H   UNL     1       7.187   4.622  13.845  0.00  0.00    +0.000 HD
ENDBRANCH   8  21
TORSDOF 3
ENDMDL
MODEL 4
REMARK VINA RESULT:      -7.2      1.545      3.148
REMARK  Name = 
REMARK  5 active torsions:
REMARK  status: ('A' for Active; 'I' for Inactive)
REMARK    1  A    between atoms: C_1  and  N_2
REMARK    2  A    between atoms: N_2  and  C_3
REMARK    3  A    between atoms: N_2  and  C_4
REMARK    4  A    between atoms: C_7  and  C_8
REMARK    5  A    between atoms: C_15  and  O_16
REMARK                            x       y       z     vdW  Elec       q    Type
REMARK                         _______ _______ _______ _____ _____    ______ ____
ROOT
ATOM      1  C   UNL     1       2.551   7.133  18.206  0.00  0.00    +0.000 A 
ATOM      2  C   UNL     1       3.830   7.070  17.811  0.00  0.00    +0.000 A 
ATOM      3  C   UNL     1       4.319   5.867  17.169  0.00  0.00    +0.000 A 
ATOM      4  O   UNL     1       5.332   5.873  16.490  0.00  0.00    +0.000 OA
ATOM      5  C   UNL     1       3.559   4.656  17.434  0.00  0.00    +0.000 A 
ATOM      6  C   UNL     1       4.170   3.423  17.190  0.00  0.00    +0.000 A 
ATOM      7  C   UNL     1       3.567   2.268  17.661  0.00  0.00    +0.000 A 
ATOM      8  C   UNL     1       2.354   2.369  18.338  0.00  0.00    +0.000 A 
ATOM      9  C   UNL     1       1.703   3.602  18.512  0.00  0.00    +0.000 A 
ATOM     10  C   UNL     1       2.316   4.770  18.059  0.00  0.00    +0.000 A 
ATOM     11  O   UNL     1       1.718   6.006  18.276  0.00  0.00    +0.000 OA
ENDROOT
BRANCH   1  15
ATOM     12  C   UNL     1       0.549  10.786  19.477  0.00  0.00    +0.000 A 
ATOM     13  C   UNL     1       0.732   9.704  20.336  0.00  0.00    +0.000 A 
ATOM     14  C   UNL     1       1.467   8.577  19.947  0.00  0.00    +0.000 A 
ATOM     15  C   UNL     1       2.037   8.452  18.663  0.00  0.00    +0.000 A 
ATOM     16  C   UNL     1       2.022   9.594  17.872  0.00  0.00    +0.000 A 
ATOM     17  C   UNL     1       1.287  10.732  18.277  0.00  0.00    +0.000 A 
BRANCH  12  19
ATOM     18  C   UNL     1      -1.221  11.769  20.919  0.00  0.00    +0.000 C 
ATOM     19  N   UNL     1      -0.299  11.854  19.786  0.00  0.00    +0.000 N 
ATOM     20  C   UNL     1      -0.708  12.728  18.687  0.00  0.00    +0.000 C 
ENDBRANCH  12  19
ENDBRANCH   1  15
BRANCH   8  21
ATOM     21  O   UNL     1       1.787   1.253  18.883  0.00  0.00    +0.000 OA
ATOM     22  H   UNL     1       2.097   1.166  19.802  0.00  0.00    +0.000 HD
ENDBRANCH   8  21
TORSDOF 3
ENDMDL
MODEL 5
REMARK VINA RESULT:      -7.2      1.464      2.056
REMARK  Name = 
REMARK  5 active torsions:
REMARK  status: ('A' for Active; 'I' for Inactive)
REMARK    1  A    between atoms: C_1  and  N_2
REMARK    2  A    between atoms: N_2  and  C_3
REMARK    3  A    between atoms: N_2  and  C_4
REMARK    4  A    between atoms: C_7  and  C_8
REMARK    5  A    between atoms: C_15  and  O_16
REMARK                            x       y       z     vdW  Elec       q    Type
REMARK                         _______ _______ _______ _____ _____    ______ ____
ROOT
ATOM      1  C   UNL     1       3.776   6.877  18.269  0.00  0.00    +0.000 A 
ATOM      2  C   UNL     1       4.325   6.060  19.177  0.00  0.00    +0.000 A 
ATOM      3  C   UNL     1       5.596   5.427  18.890  0.00  0.00    +0.000 A 
ATOM      4  O   UNL     1       6.297   4.974  19.779  0.00  0.00    +0.000 OA
ATOM      5  C   UNL     1       5.946   5.321  17.483  0.00  0.00    +0.000 A 
ATOM      6  C   UNL     1       6.928   4.400  17.111  0.00  0.00    +0.000 A 
ATOM      7  C   UNL     1       7.103   4.105  15.769  0.00  0.00    +0.000 A 
ATOM      8  C   UNL     1       6.313   4.762  14.828  0.00  0.00    +0.000 A 
ATOM      9  C   UNL     1       5.381   5.745  15.198  0.00  0.00    +0.000 A 
ATOM     10  C   UNL     1       5.186   6.029  16.550  0.00  0.00    +0.000 A 
ATOM     11  O   UNL     1       4.226   6.954  16.941  0.00  0.00    +0.000 OA
ENDROOT
BRANCH   1  15
ATOM     12  C   UNL     1       0.626   9.619  19.505  0.00  0.00    +0.000 A 
ATOM     13  C   UNL     1       1.050   9.527  18.181  0.00  0.00    +0.000 A 
ATOM     14  C   UNL     1       1.990   8.569  17.779  0.00  0.00    +0.000 A 
ATOM     15  C   UNL     1       2.586   7.668  18.685  0.00  0.00    +0.000 A 
ATOM     16  C   UNL     1       2.036   7.626  19.960  0.00  0.00    +0.000 A 
ATOM     17  C   UNL     1       1.078   8.588  20.354  0.00  0.00    +0.000 A 
BRANCH  12  19
ATOM     18  C   UNL     1      -0.422  10.854  21.391  0.00  0.00    +0.000 C 
ATOM     19  N   UNL     1      -0.196  10.655  19.959  0.00  0.00    +0.000 N 
ATOM     20  C   UNL     1      -1.269  11.100  19.069  0.00  0.00    +0.000 C 
ENDBRANCH  12  19
ENDBRANCH   1  15
BRANCH   8  21
ATOM     21  O   UNL     1       6.410   4.424  13.508  0.00  0.00    +0.000 OA
ATOM     22  H   UNL     1       7.195   4.863  13.133  0.00  0.00    +0.000 HD
ENDBRANCH   8  21
TORSDOF 3
ENDMDL
MODEL 6
REMARK VINA RESULT:      -7.1      3.603      8.277
REMARK  Name = 
REMARK  5 active torsions:
REMARK  status: ('A' for Active; 'I' for Inactive)
REMARK    1  A    between atoms: C_1  and  N_2
REMARK    2  A    between atoms: N_2  and  C_3
REMARK    3  A    between atoms: N_2  and  C_4
REMARK    4  A    between atoms: C_7  and  C_8
REMARK    5  A    between atoms: C_15  and  O_16
REMARK                            x       y       z     vdW  Elec       q    Type
REMARK                         _______ _______ _______ _____ _____    ______ ____
ROOT
ATOM      1  C   UNL     1       0.998   8.680  20.702  0.00  0.00    +0.000 A 
ATOM      2  C   UNL     1       1.228   8.865  22.010  0.00  0.00    +0.000 A 
ATOM      3  C   UNL     1       0.336   9.710  22.778  0.00  0.00    +0.000 A 
ATOM      4  O   UNL     1       0.281   9.637  23.994  0.00  0.00    +0.000 OA
ATOM      5  C   UNL     1      -0.436  10.675  22.012  0.00  0.00    +0.000 A 
ATOM      6  C   UNL     1      -0.999  11.760  22.689  0.00  0.00    +0.000 A 
ATOM      7  C   UNL     1      -1.523  12.813  21.957  0.00  0.00    +0.000 A 
ATOM      8  C   UNL     1      -1.499  12.743  20.566  0.00  0.00    +0.000 A 
ATOM      9  C   UNL     1      -1.004  11.616  19.889  0.00  0.00    +0.000 A 
ATOM     10  C   UNL     1      -0.455  10.563  20.621  0.00  0.00    +0.000 A 
ATOM     11  O   UNL     1       0.095   9.467  19.969  0.00  0.00    +0.000 OA
ENDROOT
BRANCH   1  15
ATOM     12  C   UNL     1       2.937   5.600  18.312  0.00  0.00    +0.000 A 
ATOM     13  C   UNL     1       2.911   6.937  17.918  0.00  0.00    +0.000 A 
ATOM     14  C   UNL     1       2.374   7.932  18.744  0.00  0.00    +0.000 A 
ATOM     15  C   UNL     1       1.804   7.645  20.001  0.00  0.00    +0.000 A 
ATOM     16  C   UNL     1       1.995   6.356  20.481  0.00  0.00    +0.000 A 
ATOM     17  C   UNL     1       2.548   5.359  19.645  0.00  0.00    +0.000 A 
BRANCH  12  19
ATOM     18  C   UNL     1       2.630   3.287  17.454  0.00  0.00    +0.000 C 
ATOM     19  N   UNL     1       3.331   4.572  17.450  0.00  0.00    +0.000 N 
ATOM     20  C   UNL     1       4.735   4.539  17.040  0.00  0.00    +0.000 C 
ENDBRANCH  12  19
ENDBRANCH   1  15
BRANCH   8  21
ATOM     21  O   UNL     1      -1.932  13.806  19.827  0.00  0.00    +0.000 OA
ATOM     22  H   UNL     1      -1.290  13.969  19.113  0.00  0.00    +0.000 HD
ENDBRANCH   8  21
TORSDOF 3
ENDMDL
MODEL 7
REMARK VINA RESULT:      -7.1      3.673      8.265
REMARK  Name = 
REMARK  5 active torsions:
REMARK  status: ('A' for Active; 'I' for Inactive)
REMARK    1  A    between atoms: C_1  and  N_2
REMARK    2  A    between atoms: N_2  and  C_3
REMARK    3  A    between atoms: N_2  and  C_4
REMARK    4  A    between atoms: C_7  and  C_8
REMARK    5  A    between atoms: C_15  and  O_16
REMARK                            x       y       z     vdW  Elec       q    Type
REMARK                         _______ _______ _______ _____ _____    ______ ____
ROOT
ATOM      1  C   UNL     1       0.957   8.856  20.487  0.00  0.00    +0.000 A 
ATOM      2  C   UNL     1       1.235   8.973  21.793  0.00  0.00    +0.000 A 
ATOM      3  C   UNL     1       0.355   9.748  22.643  0.00  0.00    +0.000 A 
ATOM      4  O   UNL     1       0.350   9.605  23.854  0.00  0.00    +0.000 OA
ATOM      5  C   UNL     1      -0.472  10.733  21.965  0.00  0.00    +0.000 A 
ATOM      6  C   UNL     1      -1.034  11.762  22.725  0.00  0.00    +0.000 A 
ATOM      7  C   UNL     1      -1.613  12.840  22.075  0.00  0.00    +0.000 A 
ATOM      8  C   UNL     1      -1.644  12.850  20.683  0.00  0.00    +0.000 A 
ATOM      9  C   UNL     1      -1.148  11.778  19.923  0.00  0.00    +0.000 A 
ATOM     10  C   UNL     1      -0.545  10.700  20.572  0.00  0.00    +0.000 A 
ATOM     11  O   UNL     1       0.006   9.657  19.836  0.00  0.00    +0.000 OA
ENDROOT
BRANCH   1  15
ATOM     12  C   UNL     1       3.715   6.122  18.516  0.00  0.00    +0.000 A 
ATOM     13  C   UNL     1       3.022   5.769  19.673  0.00  0.00    +0.000 A 
ATOM     14  C   UNL     1       2.062   6.618  20.238  0.00  0.00    +0.000 A 
ATOM     15  C   UNL     1       1.760   7.885  19.697  0.00  0.00    +0.000 A 
ATOM     16  C   UNL     1       2.302   8.163  18.448  0.00  0.00    +0.000 A 
ATOM     17  C   UNL     1       3.262   7.295  17.879  0.00  0.00    +0.000 A 
BRANCH  12  19
ATOM     18  C   UNL     1       4.547   4.343  16.992  0.00  0.00    +0.000 C 
ATOM     19  N   UNL     1       4.777   5.362  18.017  0.00  0.00    +0.000 N 
ATOM     20  C   UNL     1       5.919   5.138  18.903  0.00  0.00    +0.000 C 
ENDBRANCH  12  19
ENDBRANCH   1  15
BRANCH   8  21
ATOM     21  O   UNL     1      -2.133  13.941  20.023  0.00  0.00    +0.000 OA
ATOM     22  H   UNL     1      -3.073  14.047  20.255  0.00  0.00    +0.000 HD
ENDBRANCH   8  21
TORSDOF 3
ENDMDL
MODEL 8
REMARK VINA RESULT:      -7.0      3.271      7.539
REMARK  Name = 
REMARK  5 active torsions:
REMARK  status: ('A' for Active; 'I' for Inactive)
REMARK    1  A    between atoms: C_1  and  N_2
REMARK    2  A    between atoms: N_2  and  C_3
REMARK    3  A    between atoms: N_2  and  C_4
REMARK    4  A    between atoms: C_7  and  C_8
REMARK    5  A    between atoms: C_15  and  O_16
REMARK                            x       y       z     vdW  Elec       q    Type
REMARK                         _______ _______ _______ _____ _____    ______ ____
ROOT
ATOM      1  C   UNL     1       3.673   5.945  18.019  0.00  0.00    +0.000 A 
ATOM      2  C   UNL     1       3.658   5.336  19.213  0.00  0.00    +0.000 A 
ATOM      3  C   UNL     1       2.613   5.657  20.164  0.00  0.00    +0.000 A 
ATOM      4  O   UNL     1       2.342   4.910  21.089  0.00  0.00    +0.000 OA
ATOM      5  C   UNL     1       1.957   6.941  19.972  0.00  0.00    +0.000 A 
ATOM      6  C   UNL     1       1.243   7.486  21.042  0.00  0.00    +0.000 A 
ATOM      7  C   UNL     1       0.822   8.804  20.969  0.00  0.00    +0.000 A 
ATOM      8  C   UNL     1       1.098   9.536  19.816  0.00  0.00    +0.000 A 
ATOM      9  C   UNL     1       1.747   8.961  18.711  0.00  0.00    +0.000 A 
ATOM     10  C   UNL     1       2.192   7.641  18.788  0.00  0.00    +0.000 A 
ATOM     11  O   UNL     1       2.890   7.073  17.729  0.00  0.00    +0.000 OA
ENDROOT
BRANCH   1  15
ATOM     12  C   UNL     1       6.100   4.595  14.665  0.00  0.00    +0.000 A 
ATOM     13  C   UNL     1       6.030   5.937  15.036  0.00  0.00    +0.000 A 
ATOM     14  C   UNL     1       5.329   6.344  16.178  0.00  0.00    +0.000 A 
ATOM     15  C   UNL     1       4.629   5.436  17.000  0.00  0.00    +0.000 A 
ATOM     16  C   UNL     1       4.848   4.087  16.748  0.00  0.00    +0.000 A 
ATOM     17  C   UNL     1       5.567   3.685  15.599  0.00  0.00    +0.000 A 
BRANCH  12  19
ATOM     18  C   UNL     1       7.694   4.989  12.798  0.00  0.00    +0.000 C 
ATOM     19  N   UNL     1       6.667   4.180  13.455  0.00  0.00    +0.000 N 
ATOM     20  C   UNL     1       5.845   3.346  12.579  0.00  0.00    +0.000 C 
ENDBRANCH  12  19
ENDBRANCH   1  15
BRANCH   8  21
ATOM     21  O   UNL     1       0.767  10.860  19.759  0.00  0.00    +0.000 OA
ATOM     22  H   UNL     1       1.562  11.386  19.957  0.00  0.00    +0.000 HD
ENDBRANCH   8  21
TORSDOF 3
ENDMDL
MODEL 9
REMARK VINA RESULT:      -6.9      1.788      2.402
REMARK  Name = 
REMARK  5 active torsions:
REMARK  status: ('A' for Active; 'I' for Inactive)
REMARK    1  A    between atoms: C_1  and  N_2
REMARK    2  A    between atoms: N_2  and  C_3
REMARK    3  A    between atoms: N_2  and  C_4
REMARK    4  A    between atoms: C_7  and  C_8
REMARK    5  A    between atoms: C_15  and  O_16
REMARK                            x       y       z     vdW  Elec       q    Type
REMARK                         _______ _______ _______ _____ _____    ______ ____
ROOT
ATOM      1  C   UNL     1       2.063   7.076  20.135  0.00  0.00    +0.000 A 
ATOM      2  C   UNL     1       1.635   5.978  20.773  0.00  0.00    +0.000 A 
ATOM      3  C   UNL     1       2.365   4.736  20.624  0.00  0.00    +0.000 A 
ATOM      4  O   UNL     1       2.245   3.826  21.426  0.00  0.00    +0.000 OA
ATOM      5  C   UNL     1       3.197   4.631  19.435  0.00  0.00    +0.000 A 
ATOM      6  C   UNL     1       3.605   3.360  19.022  0.00  0.00    +0.000 A 
ATOM      7  C   UNL     1       4.183   3.212  17.772  0.00  0.00    +0.000 A 
ATOM      8  C   UNL     1       4.367   4.341  16.977  0.00  0.00    +0.000 A 
ATOM      9  C   UNL     1       4.028   5.627  17.427  0.00  0.00    +0.000 A 
ATOM     10  C   UNL     1       3.426   5.779  18.677  0.00  0.00    +0.000 A 
ATOM     11  O   UNL     1       3.027   7.036  19.115  0.00  0.00    +0.000 OA
ENDROOT
BRANCH   1  15
ATOM     12  C   UNL     1      -0.285  10.576  21.227  0.00  0.00    +0.000 A 
ATOM     13  C   UNL     1       0.255   9.719  22.183  0.00  0.00    +0.000 A 
ATOM     14  C   UNL     1       1.093   8.656  21.823  0.00  0.00    +0.000 A 
ATOM     15  C   UNL     1       1.416   8.370  20.481  0.00  0.00    +0.000 A 
ATOM     16  C   UNL     1       1.040   9.323  19.542  0.00  0.00    +0.000 A 
ATOM     17  C   UNL     1       0.203  10.399  19.917  0.00  0.00    +0.000 A 
BRANCH  12  19
ATOM     18  C   UNL     1      -1.679  12.517  20.538  0.00  0.00    +0.000 C 
ATOM     19  N   UNL     1      -1.238  11.550  21.544  0.00  0.00    +0.000 N 
ATOM     20  C   UNL     1      -1.309  11.991  22.937  0.00  0.00    +0.000 C 
ENDBRANCH  12  19
ENDBRANCH   1  15
BRANCH   8  21
ATOM     21  O   UNL     1       4.855   4.205  15.709  0.00  0.00    +0.000 OA
ATOM     22  H   UNL     1       4.357   4.799  15.120  0.00  0.00    +0.000 HD
ENDBRANCH   8  21
TORSDOF 3
ENDMDL
