MODEL 1
REMARK VINA RESULT:      -8.9      0.000      0.000
REMARK  Name = 
REMARK  11 active torsions:
REMARK  status: ('A' for Active; 'I' for Inactive)
REMARK    1  A    between atoms: C_1  and  N_2
REMARK    2  A    between atoms: N_2  and  C_3
REMARK    3  A    between atoms: N_2  and  C_9
REMARK    4  A    between atoms: C_3  and  C_4
REMARK    5  A    between atoms: C_9  and  C_10
REMARK    6  A    between atoms: C_9  and  C_27
REMARK    7  A    between atoms: C_10  and  O_11
REMARK    8  A    between atoms: O_11  and  C_12
REMARK    9  A    between atoms: C_12  and  C_13
REMARK   10  A    between atoms: C_15  and  C_16
REMARK   11  A    between atoms: C_21  and  C_22
REMARK                            x       y       z     vdW  Elec       q    Type
REMARK                         _______ _______ _______ _____ _____    ______ ____
ROOT
ATOM      1  C   UNL     1       2.680   7.249  18.596  0.00  0.00    +0.000 C 
ENDROOT
BRANCH   1   2
ATOM      2  C   UNL     1       2.888   5.838  17.973  0.00  0.00    +0.000 C 
BRANCH   2   3
ATOM      3  C   UNL     1       2.131   4.730  18.714  0.00  0.00    +0.000 A 
ATOM      4  C   UNL     1       1.770   3.557  18.024  0.00  0.00    +0.000 A 
ATOM      5  C   UNL     1       1.123   2.505  18.679  0.00  0.00    +0.000 A 
ATOM      6  C   UNL     1       0.831   2.602  20.036  0.00  0.00    +0.000 A 
ATOM      7  C   UNL     1       1.167   3.760  20.732  0.00  0.00    +0.000 A 
ATOM      8  C   UNL     1       1.798   4.820  20.076  0.00  0.00    +0.000 A 
ENDBRANCH   2   3
BRANCH   2  10
ATOM      9  C   UNL     1       5.076   5.410  18.990  0.00  0.00    +0.000 C 
ATOM     10  N   UNL     1       4.336   5.559  17.734  0.00  0.00    +0.000 NA
BRANCH  10  11
ATOM     11  C   UNL     1       5.004   6.508  16.819  0.00  0.00    +0.000 C 
BRANCH  11  12
ATOM     12  C   UNL     1       5.960   5.828  15.889  0.00  0.00    +0.000 A 
ATOM     13  N   UNL     1       5.560   4.934  14.929  0.00  0.00    +0.000 NA
ATOM     14  N   UNL     1       6.662   4.556  14.293  0.00  0.00    +0.000 NA
ATOM     15  N   UNL     1       7.650   5.229  14.893  0.00  0.00    +0.000 N 
ATOM     16  N   UNL     1       7.282   6.067  15.873  0.00  0.00    +0.000 NA
ATOM     17  H   UNL     1       8.620   5.109  14.617  0.00  0.00    +0.000 HD
ENDBRANCH  11  12
ENDBRANCH  10  11
ENDBRANCH   2  10
ENDBRANCH   1   2
BRANCH   1  18
ATOM     18  O   UNL     1       1.902   8.095  17.741  0.00  0.00    +0.000 OA
BRANCH  18  19
ATOM     19  C   UNL     1       2.079   9.468  18.093  0.00  0.00    +0.000 C 
BRANCH  19  20
ATOM     20  C   UNL     1       0.739  10.054  18.460  0.00  0.00    +0.000 A 
ATOM     21  C   UNL     1       0.600  10.864  19.596  0.00  0.00    +0.000 A 
ATOM     22  C   UNL     1      -0.650  11.386  19.962  0.00  0.00    +0.000 A 
ATOM     23  C   UNL     1      -1.767  11.102  19.158  0.00  0.00    +0.000 A 
ATOM     24  C   UNL     1      -1.649  10.300  18.012  0.00  0.00    +0.000 A 
ATOM     25  C   UNL     1      -0.389   9.787  17.671  0.00  0.00    +0.000 A 
BRANCH  22  26
ATOM     26  C   UNL     1      -0.809  12.218  21.212  0.00  0.00    +0.000 C 
ATOM     27  F   UNL     1      -0.616  13.551  21.009  0.00  0.00    +0.000 F 
ATOM     28  F   UNL     1      -2.050  12.101  21.762  0.00  0.00    +0.000 F 
ATOM     29  F   UNL     1       0.068  11.858  22.190  0.00  0.00    +0.000 F 
ENDBRANCH  22  26
BRANCH  24  30
ATOM     30  C   UNL     1      -2.849   9.963  17.159  0.00  0.00    +0.000 C 
ATOM     31  F   UNL     1      -3.608  11.048  16.838  0.00  0.00    +0.000 F 
ATOM     32  F   UNL     1      -2.501   9.389  15.974  0.00  0.00    +0.000 F 
ATOM     33  F   UNL     1      -3.693   9.085  17.768  0.00  0.00    +0.000 F 
ENDBRANCH  24  30
ENDBRANCH  19  20
ENDBRANCH  18  19
ENDBRANCH   1  18
TORSDOF 10
ENDMDL
MODEL 2
REMARK VINA RESULT:      -8.8      2.563      4.760
REMARK  Name = 
REMARK  11 active torsions:
REMARK  status: ('A' for Active; 'I' for Inactive)
REMARK    1  A    between atoms: C_1  and  N_2
REMARK    2  A    between atoms: N_2  and  C_3
REMARK    3  A    between atoms: N_2  and  C_9
REMARK    4  A    between atoms: C_3  and  C_4
REMARK    5  A    between atoms: C_9  and  C_10
REMARK    6  A    between atoms: C_9  and  C_27
REMARK    7  A    between atoms: C_10  and  O_11
REMARK    8  A    between atoms: O_11  and  C_12
REMARK    9  A    between atoms: C_12  and  C_13
REMARK   10  A    between atoms: C_15  and  C_16
REMARK   11  A    between atoms: C_21  and  C_22
REMARK                            x       y       z     vdW  Elec       q    Type
REMARK                         _______ _______ _______ _____ _____    ______ ____
ROOT
ATOM      1  C   UNL     1       2.639   5.803  18.308  0.00  0.00    +0.000 C 
ENDROOT
BRANCH   1   2
ATOM      2  C   UNL     1       3.847   4.896  18.680  0.00  0.00    +0.000 C 
BRANCH   2   3
ATOM      3  C   UNL     1       5.204   5.576  18.468  0.00  0.00    +0.000 A 
ATOM      4  C   UNL     1       6.274   5.272  19.332  0.00  0.00    +0.000 A 
ATOM      5  C   UNL     1       7.540   5.835  19.139  0.00  0.00    +0.000 A 
ATOM      6  C   UNL     1       7.761   6.706  18.078  0.00  0.00    +0.000 A 
ATOM      7  C   UNL     1       6.712   7.031  17.222  0.00  0.00    +0.000 A 
ATOM      8  C   UNL     1       5.442   6.484  17.423  0.00  0.00    +0.000 A 
ENDBRANCH   2   3
BRANCH   2  10
ATOM      9  C   UNL     1       2.574   3.466  17.152  0.00  0.00    +0.000 C 
ATOM     10  N   UNL     1       3.719   3.543  18.062  0.00  0.00    +0.000 NA
BRANCH  10  11
ATOM     11  C   UNL     1       3.724   2.422  19.027  0.00  0.00    +0.000 C 
BRANCH  11  12
ATOM     12  C   UNL     1       2.723   2.609  20.124  0.00  0.00    +0.000 A 
ATOM     13  N   UNL     1       3.077   2.768  21.439  0.00  0.00    +0.000 NA
ATOM     14  N   UNL     1       1.943   2.923  22.112  0.00  0.00    +0.000 NA
ATOM     15  N   UNL     1       0.983   2.848  21.184  0.00  0.00    +0.000 N 
ATOM     16  N   UNL     1       1.397   2.690  19.918  0.00  0.00    +0.000 NA
ATOM     17  H   UNL     1      -0.001   2.912  21.429  0.00  0.00    +0.000 HD
ENDBRANCH  11  12
ENDBRANCH  10  11
ENDBRANCH   2  10
ENDBRANCH   1   2
BRANCH   1  18
ATOM     18  O   UNL     1       2.589   6.979  19.126  0.00  0.00    +0.000 OA
BRANCH  18  19
ATOM     19  C   UNL     1       2.338   8.137  18.328  0.00  0.00    +0.000 C 
BRANCH  19  20
ATOM     20  C   UNL     1       1.277   8.971  18.999  0.00  0.00    +0.000 A 
ATOM     21  C   UNL     1       1.143   8.972  20.394  0.00  0.00    +0.000 A 
ATOM     22  C   UNL     1       0.137   9.721  21.024  0.00  0.00    +0.000 A 
ATOM     23  C   UNL     1      -0.732  10.491  20.233  0.00  0.00    +0.000 A 
ATOM     24  C   UNL     1      -0.612  10.510  18.834  0.00  0.00    +0.000 A 
ATOM     25  C   UNL     1       0.400   9.750  18.230  0.00  0.00    +0.000 A 
BRANCH  22  26
ATOM     26  C   UNL     1      -0.037   9.684  22.523  0.00  0.00    +0.000 C 
ATOM     27  F   UNL     1      -0.968   8.782  22.943  0.00  0.00    +0.000 F 
ATOM     28  F   UNL     1       1.115   9.359  23.174  0.00  0.00    +0.000 F 
ATOM     29  F   UNL     1      -0.426  10.885  23.030  0.00  0.00    +0.000 F 
ENDBRANCH  22  26
BRANCH  24  30
ATOM     30  C   UNL     1      -1.561  11.310  17.973  0.00  0.00    +0.000 C 
ATOM     31  F   UNL     1      -1.823  10.727  16.770  0.00  0.00    +0.000 F 
ATOM     32  F   UNL     1      -2.771  11.498  18.567  0.00  0.00    +0.000 F 
ATOM     33  F   UNL     1      -1.085  12.554  17.687  0.00  0.00    +0.000 F 
ENDBRANCH  24  30
ENDBRANCH  19  20
ENDBRANCH  18  19
ENDBRANCH   1  18
TORSDOF 10
ENDMDL
MODEL 3
REMARK VINA RESULT:      -8.8      1.474      2.146
REMARK  Name = 
REMARK  11 active torsions:
REMARK  status: ('A' for Active; 'I' for Inactive)
REMARK    1  A    between atoms: C_1  and  N_2
REMARK    2  A    between atoms: N_2  and  C_3
REMARK    3  A    between atoms: N_2  and  C_9
REMARK    4  A    between atoms: C_3  and  C_4
REMARK    5  A    between atoms: C_9  and  C_10
REMARK    6  A    between atoms: C_9  and  C_27
REMARK    7  A    between atoms: C_10  and  O_11
REMARK    8  A    between atoms: O_11  and  C_12
REMARK    9  A    between atoms: C_12  and  C_13
REMARK   10  A    between atoms: C_15  and  C_16
REMARK   11  A    between atoms: C_21  and  C_22
REMARK                            x       y       z     vdW  Elec       q    Type
REMARK                         _______ _______ _______ _____ _____    ______ ____
ROOT
ATOM      1  C   UNL     1       3.191   6.918  18.435  0.00  0.00    +0.000 C 
ENDROOT
BRANCH   1   2
ATOM      2  C   UNL     1       3.299   5.468  17.880  0.00  0.00    +0.000 C 
BRANCH   2   3
ATOM      3  C   UNL     1       2.391   4.471  18.608  0.00  0.00    +0.000 A 
ATOM      4  C   UNL     1       1.948   4.761  19.912  0.00  0.00    +0.000 A 
ATOM      5  C   UNL     1       1.079   3.899  20.588  0.00  0.00    +0.000 A 
ATOM      6  C   UNL     1       0.632   2.735  19.971  0.00  0.00    +0.000 A 
ATOM      7  C   UNL     1       1.071   2.423  18.687  0.00  0.00    +0.000 A 
ATOM      8  C   UNL     1       1.953   3.274  18.017  0.00  0.00    +0.000 A 
ENDBRANCH   2   3
BRANCH   2  10
ATOM      9  C   UNL     1       5.268   4.565  19.024  0.00  0.00    +0.000 C 
ATOM     10  N   UNL     1       4.724   5.042  17.750  0.00  0.00    +0.000 NA
BRANCH  10  11
ATOM     11  C   UNL     1       5.612   6.042  17.120  0.00  0.00    +0.000 C 
BRANCH  11  12
ATOM     12  C   UNL     1       6.276   5.519  15.885  0.00  0.00    +0.000 A 
ATOM     13  N   UNL     1       5.644   4.696  14.988  0.00  0.00    +0.000 NA
ATOM     14  N   UNL     1       6.523   4.455  14.023  0.00  0.00    +0.000 NA
ATOM     15  N   UNL     1       7.619   5.131  14.384  0.00  0.00    +0.000 N 
ATOM     16  N   UNL     1       7.526   5.846  15.514  0.00  0.00    +0.000 NA
ATOM     17  H   UNL     1       8.468   5.103  13.827  0.00  0.00    +0.000 HD
ENDBRANCH  11  12
ENDBRANCH  10  11
ENDBRANCH   2  10
ENDBRANCH   1   2
BRANCH   1  18
ATOM     18  O   UNL     1       1.988   7.562  18.001  0.00  0.00    +0.000 OA
BRANCH  18  19
ATOM     19  C   UNL     1       2.174   8.976  17.920  0.00  0.00    +0.000 C 
BRANCH  19  20
ATOM     20  C   UNL     1       1.165   9.653  18.811  0.00  0.00    +0.000 A 
ATOM     21  C   UNL     1       1.020   9.266  20.151  0.00  0.00    +0.000 A 
ATOM     22  C   UNL     1       0.060   9.869  20.978  0.00  0.00    +0.000 A 
ATOM     23  C   UNL     1      -0.749  10.889  20.448  0.00  0.00    +0.000 A 
ATOM     24  C   UNL     1      -0.616  11.297  19.112  0.00  0.00    +0.000 A 
ATOM     25  C   UNL     1       0.349  10.675  18.306  0.00  0.00    +0.000 A 
BRANCH  22  26
ATOM     26  C   UNL     1      -0.128   9.419  22.407  0.00  0.00    +0.000 C 
ATOM     27  F   UNL     1      -0.736  10.348  23.197  0.00  0.00    +0.000 F 
ATOM     28  F   UNL     1      -0.890   8.293  22.502  0.00  0.00    +0.000 F 
ATOM     29  F   UNL     1       1.052   9.124  23.018  0.00  0.00    +0.000 F 
ENDBRANCH  22  26
BRANCH  24  30
ATOM     30  C   UNL     1      -1.502  12.370  18.524  0.00  0.00    +0.000 C 
ATOM     31  F   UNL     1      -2.345  12.936  19.433  0.00  0.00    +0.000 F 
ATOM     32  F   UNL     1      -0.789  13.399  17.988  0.00  0.00    +0.000 F 
ATOM     33  F   UNL     1      -2.296  11.902  17.522  0.00  0.00    +0.000 F 
ENDBRANCH  24  30
ENDBRANCH  19  20
ENDBRANCH  18  19
ENDBRANCH   1  18
TORSDOF 10
ENDMDL
MODEL 4
REMARK VINA RESULT:      -8.8      0.474      3.195
REMARK  Name = 
REMARK  11 active torsions:
REMARK  status: ('A' for Active; 'I' for Inactive)
REMARK    1  A    between atoms: C_1  and  N_2
REMARK    2  A    between atoms: N_2  and  C_3
REMARK    3  A    between atoms: N_2  and  C_9
REMARK    4  A    between atoms: C_3  and  C_4
REMARK    5  A    between atoms: C_9  and  C_10
REMARK    6  A    between atoms: C_9  and  C_27
REMARK    7  A    between atoms: C_10  and  O_11
REMARK    8  A    between atoms: O_11  and  C_12
REMARK    9  A    between atoms: C_12  and  C_13
REMARK   10  A    between atoms: C_15  and  C_16
REMARK   11  A    between atoms: C_21  and  C_22
REMARK                            x       y       z     vdW  Elec       q    Type
REMARK                         _______ _______ _______ _____ _____    ______ ____
ROOT
ATOM      1  C   UNL     1       2.985   7.324  18.468  0.00  0.00    +0.000 C 
ENDROOT
BRANCH   1   2
ATOM      2  C   UNL     1       3.192   5.878  17.934  0.00  0.00    +0.000 C 
BRANCH   2   3
ATOM      3  C   UNL     1       2.304   4.841  18.631  0.00  0.00    +0.000 A 
ATOM      4  C   UNL     1       1.984   3.643  17.964  0.00  0.00    +0.000 A 
ATOM      5  C   UNL     1       1.218   2.653  18.587  0.00  0.00    +0.000 A 
ATOM      6  C   UNL     1       0.765   2.837  19.889  0.00  0.00    +0.000 A 
ATOM      7  C   UNL     1       1.059   4.021  20.560  0.00  0.00    +0.000 A 
ATOM      8  C   UNL     1       1.809   5.020  19.933  0.00  0.00    +0.000 A 
ENDBRANCH   2   3
BRANCH   2  10
ATOM      9  C   UNL     1       5.211   5.329  19.208  0.00  0.00    +0.000 C 
ATOM     10  N   UNL     1       4.641   5.525  17.872  0.00  0.00    +0.000 NA
BRANCH  10  11
ATOM     11  C   UNL     1       5.465   6.444  17.059  0.00  0.00    +0.000 C 
BRANCH  11  12
ATOM     12  C   UNL     1       6.120   5.753  15.904  0.00  0.00    +0.000 A 
ATOM     13  N   UNL     1       7.452   5.891  15.608  0.00  0.00    +0.000 NA
ATOM     14  N   UNL     1       7.677   5.129  14.545  0.00  0.00    +0.000 NA
ATOM     15  N   UNL     1       6.490   4.583  14.260  0.00  0.00    +0.000 N 
ATOM     16  N   UNL     1       5.482   4.898  15.086  0.00  0.00    +0.000 NA
ATOM     17  H   UNL     1       6.366   3.964  13.464  0.00  0.00    +0.000 HD
ENDBRANCH  11  12
ENDBRANCH  10  11
ENDBRANCH   2  10
ENDBRANCH   1   2
BRANCH   1  18
ATOM     18  O   UNL     1       1.896   7.981  17.808  0.00  0.00    +0.000 OA
BRANCH  18  19
ATOM     19  C   UNL     1       2.014   9.399  17.930  0.00  0.00    +0.000 C 
BRANCH  19  20
ATOM     20  C   UNL     1       0.714   9.955  18.453  0.00  0.00    +0.000 A 
ATOM     21  C   UNL     1      -0.464   9.847  17.700  0.00  0.00    +0.000 A 
ATOM     22  C   UNL     1      -1.672  10.391  18.165  0.00  0.00    +0.000 A 
ATOM     23  C   UNL     1      -1.691  11.033  19.415  0.00  0.00    +0.000 A 
ATOM     24  C   UNL     1      -0.525  11.146  20.189  0.00  0.00    +0.000 A 
ATOM     25  C   UNL     1       0.670  10.597  19.698  0.00  0.00    +0.000 A 
BRANCH  22  26
ATOM     26  C   UNL     1      -2.929  10.317  17.332  0.00  0.00    +0.000 C 
ATOM     27  F   UNL     1      -4.006   9.833  18.012  0.00  0.00    +0.000 F 
ATOM     28  F   UNL     1      -3.308  11.534  16.853  0.00  0.00    +0.000 F 
ATOM     29  F   UNL     1      -2.783   9.514  16.243  0.00  0.00    +0.000 F 
ENDBRANCH  22  26
BRANCH  24  30
ATOM     30  C   UNL     1      -0.527  11.862  21.519  0.00  0.00    +0.000 C 
ATOM     31  F   UNL     1      -0.408  11.023  22.586  0.00  0.00    +0.000 F 
ATOM     32  F   UNL     1       0.494  12.755  21.631  0.00  0.00    +0.000 F 
ATOM     33  F   UNL     1      -1.671  12.570  21.729  0.00  0.00    +0.000 F 
ENDBRANCH  24  30
ENDBRANCH  19  20
ENDBRANCH  18  19
ENDBRANCH   1  18
TORSDOF 10
ENDMDL
MODEL 5
REMARK VINA RESULT:      -8.7      1.998      2.777
REMARK  Name = 
REMARK  11 active torsions:
REMARK  status: ('A' for Active; 'I' for Inactive)
REMARK    1  A    between atoms: C_1  and  N_2
REMARK    2  A    between atoms: N_2  and  C_3
REMARK    3  A    between atoms: N_2  and  C_9
REMARK    4  A    between atoms: C_3  and  C_4
REMARK    5  A    between atoms: C_9  and  C_10
REMARK    6  A    between atoms: C_9  and  C_27
REMARK    7  A    between atoms: C_10  and  O_11
REMARK    8  A    between atoms: O_11  and  C_12
REMARK    9  A    between atoms: C_12  and  C_13
REMARK   10  A    between atoms: C_15  and  C_16
REMARK   11  A    between atoms: C_21  and  C_22
REMARK                            x       y       z     vdW  Elec       q    Type
REMARK                         _______ _______ _______ _____ _____    ______ ____
ROOT
ATOM      1  C   UNL     1       2.868   7.351  18.582  0.00  0.00    +0.000 C 
ENDROOT
BRANCH   1   2
ATOM      2  C   UNL     1       3.004   5.939  17.944  0.00  0.00    +0.000 C 
BRANCH   2   3
ATOM      3  C   UNL     1       2.186   4.864  18.669  0.00  0.00    +0.000 A 
ATOM      4  C   UNL     1       1.781   3.712  17.970  0.00  0.00    +0.000 A 
ATOM      5  C   UNL     1       1.078   2.688  18.612  0.00  0.00    +0.000 A 
ATOM      6  C   UNL     1       0.772   2.793  19.964  0.00  0.00    +0.000 A 
ATOM      7  C   UNL     1       1.151   3.932  20.670  0.00  0.00    +0.000 A 
ATOM      8  C   UNL     1       1.839   4.965  20.027  0.00  0.00    +0.000 A 
ENDBRANCH   2   3
BRANCH   2  10
ATOM      9  C   UNL     1       5.159   5.373  18.963  0.00  0.00    +0.000 C 
ATOM     10  N   UNL     1       4.435   5.586  17.707  0.00  0.00    +0.000 NA
BRANCH  10  11
ATOM     11  C   UNL     1       5.159   6.516  16.813  0.00  0.00    +0.000 C 
BRANCH  11  12
ATOM     12  C   UNL     1       6.037   5.800  15.835  0.00  0.00    +0.000 A 
ATOM     13  N   UNL     1       5.552   4.919  14.902  0.00  0.00    +0.000 NA
ATOM     14  N   UNL     1       6.603   4.500  14.207  0.00  0.00    +0.000 NA
ATOM     15  N   UNL     1       7.646   5.137  14.749  0.00  0.00    +0.000 N 
ATOM     16  N   UNL     1       7.364   5.990  15.744  0.00  0.00    +0.000 NA
ATOM     17  H   UNL     1       8.594   4.981  14.420  0.00  0.00    +0.000 HD
ENDBRANCH  11  12
ENDBRANCH  10  11
ENDBRANCH   2  10
ENDBRANCH   1   2
BRANCH   1  18
ATOM     18  O   UNL     1       1.716   8.046  18.089  0.00  0.00    +0.000 OA
BRANCH  18  19
ATOM     19  C   UNL     1       1.979   9.446  17.982  0.00  0.00    +0.000 C 
BRANCH  19  20
ATOM     20  C   UNL     1       1.130  10.180  18.988  0.00  0.00    +0.000 A 
ATOM     21  C   UNL     1       0.705  11.494  18.743  0.00  0.00    +0.000 A 
ATOM     22  C   UNL     1      -0.059  12.195  19.689  0.00  0.00    +0.000 A 
ATOM     23  C   UNL     1      -0.411  11.553  20.888  0.00  0.00    +0.000 A 
ATOM     24  C   UNL     1      -0.003  10.236  21.151  0.00  0.00    +0.000 A 
ATOM     25  C   UNL     1       0.762   9.559  20.190  0.00  0.00    +0.000 A 
BRANCH  22  26
ATOM     26  C   UNL     1      -0.475  13.626  19.445  0.00  0.00    +0.000 C 
ATOM     27  F   UNL     1      -1.674  13.949  20.006  0.00  0.00    +0.000 F 
ATOM     28  F   UNL     1       0.422  14.522  19.942  0.00  0.00    +0.000 F 
ATOM     29  F   UNL     1      -0.594  13.913  18.119  0.00  0.00    +0.000 F 
ENDBRANCH  22  26
BRANCH  24  30
ATOM     30  C   UNL     1      -0.350   9.548  22.451  0.00  0.00    +0.000 C 
ATOM     31  F   UNL     1      -1.275  10.222  23.190  0.00  0.00    +0.000 F 
ATOM     32  F   UNL     1      -0.863   8.302  22.259  0.00  0.00    +0.000 F 
ATOM     33  F   UNL     1       0.731   9.388  23.262  0.00  0.00    +0.000 F 
ENDBRANCH  24  30
ENDBRANCH  19  20
ENDBRANCH  18  19
ENDBRANCH   1  18
TORSDOF 10
ENDMDL
MODEL 6
REMARK VINA RESULT:      -8.7      1.524      2.063
REMARK  Name = 
REMARK  11 active torsions:
REMARK  status: ('A' for Active; 'I' for Inactive)
REMARK    1  A    between atoms: C_1  and  N_2
REMARK    2  A    between atoms: N_2  and  C_3
REMARK    3  A    between atoms: N_2  and  C_9
REMARK    4  A    between atoms: C_3  and  C_4
REMARK    5  A    between atoms: C_9  and  C_10
REMARK    6  A    between atoms: C_9  and  C_27
REMARK    7  A    between atoms: C_10  and  O_11
REMARK    8  A    between atoms: O_11  and  C_12
REMARK    9  A    between atoms: C_12  and  C_13
REMARK   10  A    between atoms: C_15  and  C_16
REMARK   11  A    between atoms: C_21  and  C_22
REMARK                            x       y       z     vdW  Elec       q    Type
REMARK                         _______ _______ _______ _____ _____    ______ ____
ROOT
ATOM      1  C   UNL     1       3.632   6.807  17.990  0.00  0.00    +0.000 C 
ENDROOT
BRANCH   1   2
ATOM      2  C   UNL     1       3.638   5.275  17.720  0.00  0.00    +0.000 C 
BRANCH   2   3
ATOM      3  C   UNL     1       2.580   4.513  18.525  0.00  0.00    +0.000 A 
ATOM      4  C   UNL     1       1.985   3.363  17.973  0.00  0.00    +0.000 A 
ATOM      5  C   UNL     1       1.052   2.614  18.698  0.00  0.00    +0.000 A 
ATOM      6  C   UNL     1       0.702   2.997  19.989  0.00  0.00    +0.000 A 
ATOM      7  C   UNL     1       1.269   4.140  20.547  0.00  0.00    +0.000 A 
ATOM      8  C   UNL     1       2.188   4.899  19.818  0.00  0.00    +0.000 A 
ENDBRANCH   2   3
BRANCH   2  10
ATOM      9  C   UNL     1       5.412   4.450  19.195  0.00  0.00    +0.000 C 
ATOM     10  N   UNL     1       5.019   4.714  17.809  0.00  0.00    +0.000 NA
BRANCH  10  11
ATOM     11  C   UNL     1       6.049   5.496  17.091  0.00  0.00    +0.000 C 
BRANCH  11  12
ATOM     12  C   UNL     1       6.350   4.935  15.736  0.00  0.00    +0.000 A 
ATOM     13  N   UNL     1       7.171   5.562  14.834  0.00  0.00    +0.000 NA
ATOM     14  N   UNL     1       7.219   4.774  13.766  0.00  0.00    +0.000 NA
ATOM     15  N   UNL     1       6.437   3.734  14.075  0.00  0.00    +0.000 N 
ATOM     16  N   UNL     1       5.892   3.749  15.300  0.00  0.00    +0.000 NA
ATOM     17  H   UNL     1       6.272   2.978  13.417  0.00  0.00    +0.000 HD
ENDBRANCH  11  12
ENDBRANCH  10  11
ENDBRANCH   2  10
ENDBRANCH   1   2
BRANCH   1  18
ATOM     18  O   UNL     1       2.307   7.349  17.937  0.00  0.00    +0.000 OA
BRANCH  18  19
ATOM     19  C   UNL     1       2.348   8.769  17.793  0.00  0.00    +0.000 C 
BRANCH  19  20
ATOM     20  C   UNL     1       1.252   9.377  18.630  0.00  0.00    +0.000 A 
ATOM     21  C   UNL     1       1.201   9.154  20.013  0.00  0.00    +0.000 A 
ATOM     22  C   UNL     1       0.165   9.689  20.794  0.00  0.00    +0.000 A 
ATOM     23  C   UNL     1      -0.820  10.475  20.170  0.00  0.00    +0.000 A 
ATOM     24  C   UNL     1      -0.784  10.717  18.788  0.00  0.00    +0.000 A 
ATOM     25  C   UNL     1       0.260  10.167  18.030  0.00  0.00    +0.000 A 
BRANCH  22  26
ATOM     26  C   UNL     1       0.083   9.409  22.275  0.00  0.00    +0.000 C 
ATOM     27  F   UNL     1       1.243   8.927  22.804  0.00  0.00    +0.000 F 
ATOM     28  F   UNL     1      -0.221  10.522  23.000  0.00  0.00    +0.000 F 
ATOM     29  F   UNL     1      -0.875   8.492  22.578  0.00  0.00    +0.000 F 
ENDBRANCH  22  26
BRANCH  24  30
ATOM     30  C   UNL     1      -1.855  11.533  18.103  0.00  0.00    +0.000 C 
ATOM     31  F   UNL     1      -2.555  10.833  17.168  0.00  0.00    +0.000 F 
ATOM     32  F   UNL     1      -2.781  12.016  18.977  0.00  0.00    +0.000 F 
ATOM     33  F   UNL     1      -1.350  12.618  17.454  0.00  0.00    +0.000 F 
ENDBRANCH  24  30
ENDBRANCH  19  20
ENDBRANCH  18  19
ENDBRANCH   1  18
TORSDOF 10
ENDMDL
MODEL 7
REMARK VINA RESULT:      -8.7      0.624      3.218
REMARK  Name = 
REMARK  11 active torsions:
REMARK  status: ('A' for Active; 'I' for Inactive)
REMARK    1  A    between atoms: C_1  and  N_2
REMARK    2  A    between atoms: N_2  and  C_3
REMARK    3  A    between atoms: N_2  and  C_9
REMARK    4  A    between atoms: C_3  and  C_4
REMARK    5  A    between atoms: C_9  and  C_10
REMARK    6  A    between atoms: C_9  and  C_27
REMARK    7  A    between atoms: C_10  and  O_11
REMARK    8  A    between atoms: O_11  and  C_12
REMARK    9  A    between atoms: C_12  and  C_13
REMARK   10  A    between atoms: C_15  and  C_16
REMARK   11  A    between atoms: C_21  and  C_22
REMARK                            x       y       z     vdW  Elec       q    Type
REMARK                         _______ _______ _______ _____ _____    ______ ____
ROOT
ATOM      1  C   UNL     1       2.563   7.112  18.708  0.00  0.00    +0.000 C 
ENDROOT
BRANCH   1   2
ATOM      2  C   UNL     1       2.962   5.750  18.071  0.00  0.00    +0.000 C 
BRANCH   2   3
ATOM      3  C   UNL     1       2.196   4.558  18.656  0.00  0.00    +0.000 A 
ATOM      4  C   UNL     1       1.637   4.659  19.945  0.00  0.00    +0.000 A 
ATOM      5  C   UNL     1       0.890   3.612  20.491  0.00  0.00    +0.000 A 
ATOM      6  C   UNL     1       0.681   2.448  19.759  0.00  0.00    +0.000 A 
ATOM      7  C   UNL     1       1.238   2.322  18.489  0.00  0.00    +0.000 A 
ATOM      8  C   UNL     1       2.000   3.361  17.948  0.00  0.00    +0.000 A 
ENDBRANCH   2   3
BRANCH   2  10
ATOM      9  C   UNL     1       5.006   5.363  19.364  0.00  0.00    +0.000 C 
ATOM     10  N   UNL     1       4.445   5.584  18.028  0.00  0.00    +0.000 NA
BRANCH  10  11
ATOM     11  C   UNL     1       5.165   6.655  17.306  0.00  0.00    +0.000 C 
BRANCH  11  12
ATOM     12  C   UNL     1       6.039   6.120  16.216  0.00  0.00    +0.000 A 
ATOM     13  N   UNL     1       5.580   5.860  14.950  0.00  0.00    +0.000 NA
ATOM     14  N   UNL     1       6.625   5.421  14.259  0.00  0.00    +0.000 NA
ATOM     15  N   UNL     1       7.641   5.438  15.130  0.00  0.00    +0.000 N 
ATOM     16  N   UNL     1       7.357   5.896  16.358  0.00  0.00    +0.000 NA
ATOM     17  H   UNL     1       8.571   5.124  14.869  0.00  0.00    +0.000 HD
ENDBRANCH  11  12
ENDBRANCH  10  11
ENDBRANCH   2  10
ENDBRANCH   1   2
BRANCH   1  18
ATOM     18  O   UNL     1       2.099   8.042  17.722  0.00  0.00    +0.000 OA
BRANCH  18  19
ATOM     19  C   UNL     1       2.274   9.385  18.173  0.00  0.00    +0.000 C 
BRANCH  19  20
ATOM     20  C   UNL     1       0.943   9.925  18.631  0.00  0.00    +0.000 A 
ATOM     21  C   UNL     1      -0.159   9.937  17.765  0.00  0.00    +0.000 A 
ATOM     22  C   UNL     1      -1.393  10.467  18.173  0.00  0.00    +0.000 A 
ATOM     23  C   UNL     1      -1.517  10.973  19.478  0.00  0.00    +0.000 A 
ATOM     24  C   UNL     1      -0.428  10.964  20.364  0.00  0.00    +0.000 A 
ATOM     25  C   UNL     1       0.795  10.431  19.930  0.00  0.00    +0.000 A 
BRANCH  22  26
ATOM     26  C   UNL     1      -2.566  10.525  17.224  0.00  0.00    +0.000 C 
ATOM     27  F   UNL     1      -2.903   9.314  16.698  0.00  0.00    +0.000 F 
ATOM     28  F   UNL     1      -3.696  10.998  17.821  0.00  0.00    +0.000 F 
ATOM     29  F   UNL     1      -2.334  11.342  16.161  0.00  0.00    +0.000 F 
ENDBRANCH  22  26
BRANCH  24  30
ATOM     30  C   UNL     1      -0.542  11.534  21.759  0.00  0.00    +0.000 C 
ATOM     31  F   UNL     1       0.052  12.752  21.896  0.00  0.00    +0.000 F 
ATOM     32  F   UNL     1      -1.836  11.705  22.147  0.00  0.00    +0.000 F 
ATOM     33  F   UNL     1       0.030  10.732  22.699  0.00  0.00    +0.000 F 
ENDBRANCH  24  30
ENDBRANCH  19  20
ENDBRANCH  18  19
ENDBRANCH   1  18
TORSDOF 10
ENDMDL
MODEL 8
REMARK VINA RESULT:      -8.6      1.377      3.548
REMARK  Name = 
REMARK  11 active torsions:
REMARK  status: ('A' for Active; 'I' for Inactive)
REMARK    1  A    between atoms: C_1  and  N_2
REMARK    2  A    between atoms: N_2  and  C_3
REMARK    3  A    between atoms: N_2  and  C_9
REMARK    4  A    between atoms: C_3  and  C_4
REMARK    5  A    between atoms: C_9  and  C_10
REMARK    6  A    between atoms: C_9  and  C_27
REMARK    7  A    between atoms: C_10  and  O_11
REMARK    8  A    between atoms: O_11  and  C_12
REMARK    9  A    between atoms: C_12  and  C_13
REMARK   10  A    between atoms: C_15  and  C_16
REMARK   11  A    between atoms: C_21  and  C_22
REMARK                            x       y       z     vdW  Elec       q    Type
REMARK                         _______ _______ _______ _____ _____    ______ ____
ROOT
ATOM      1  C   UNL     1       2.297   7.609  18.726  0.00  0.00    +0.000 C 
ENDROOT
BRANCH   1   2
ATOM      2  C   UNL     1       2.756   6.211  18.223  0.00  0.00    +0.000 C 
BRANCH   2   3
ATOM      3  C   UNL     1       2.127   5.049  18.999  0.00  0.00    +0.000 A 
ATOM      4  C   UNL     1       1.548   3.977  18.293  0.00  0.00    +0.000 A 
ATOM      5  C   UNL     1       1.008   2.877  18.967  0.00  0.00    +0.000 A 
ATOM      6  C   UNL     1       1.044   2.824  20.356  0.00  0.00    +0.000 A 
ATOM      7  C   UNL     1       1.599   3.881  21.073  0.00  0.00    +0.000 A 
ATOM      8  C   UNL     1       2.123   4.990  20.402  0.00  0.00    +0.000 A 
ENDBRANCH   2   3
BRANCH   2  10
ATOM      9  C   UNL     1       4.698   6.696  16.809  0.00  0.00    +0.000 C 
ATOM     10  N   UNL     1       4.242   6.145  18.087  0.00  0.00    +0.000 NA
BRANCH  10  11
ATOM     11  C   UNL     1       4.826   4.811  18.343  0.00  0.00    +0.000 C 
BRANCH  11  12
ATOM     12  C   UNL     1       6.269   4.884  18.730  0.00  0.00    +0.000 A 
ATOM     13  N   UNL     1       7.280   4.398  17.941  0.00  0.00    +0.000 NA
ATOM     14  N   UNL     1       8.411   4.651  18.588  0.00  0.00    +0.000 NA
ATOM     15  N   UNL     1       8.029   5.263  19.714  0.00  0.00    +0.000 N 
ATOM     16  N   UNL     1       6.712   5.474  19.854  0.00  0.00    +0.000 NA
ATOM     17  H   UNL     1       8.703   5.551  20.418  0.00  0.00    +0.000 HD
ENDBRANCH  11  12
ENDBRANCH  10  11
ENDBRANCH   2  10
ENDBRANCH   1   2
BRANCH   1  18
ATOM     18  O   UNL     1       1.862   8.444  17.645  0.00  0.00    +0.000 OA
BRANCH  18  19
ATOM     19  C   UNL     1       1.927   9.822  18.015  0.00  0.00    +0.000 C 
BRANCH  19  20
ATOM     20  C   UNL     1       0.604  10.232  18.609  0.00  0.00    +0.000 A 
ATOM     21  C   UNL     1      -0.563  10.221  17.832  0.00  0.00    +0.000 A 
ATOM     22  C   UNL     1      -1.793  10.632  18.369  0.00  0.00    +0.000 A 
ATOM     23  C   UNL     1      -1.844  11.041  19.713  0.00  0.00    +0.000 A 
ATOM     24  C   UNL     1      -0.690  11.052  20.511  0.00  0.00    +0.000 A 
ATOM     25  C   UNL     1       0.527  10.640  19.948  0.00  0.00    +0.000 A 
BRANCH  22  26
ATOM     26  C   UNL     1      -3.040  10.667  17.519  0.00  0.00    +0.000 C 
ATOM     27  F   UNL     1      -4.127  11.174  18.165  0.00  0.00    +0.000 F 
ATOM     28  F   UNL     1      -2.885  11.425  16.398  0.00  0.00    +0.000 F 
ATOM     29  F   UNL     1      -3.406   9.429  17.086  0.00  0.00    +0.000 F 
ENDBRANCH  22  26
BRANCH  24  30
ATOM     30  C   UNL     1      -0.729  11.519  21.947  0.00  0.00    +0.000 C 
ATOM     31  F   UNL     1      -0.266  12.789  22.117  0.00  0.00    +0.000 F 
ATOM     32  F   UNL     1      -1.989  11.511  22.464  0.00  0.00    +0.000 F 
ATOM     33  F   UNL     1       0.020  10.737  22.772  0.00  0.00    +0.000 F 
ENDBRANCH  24  30
ENDBRANCH  19  20
ENDBRANCH  18  19
ENDBRANCH   1  18
TORSDOF 10
ENDMDL
MODEL 9
REMARK VINA RESULT:      -8.6      2.786      5.081
REMARK  Name = 
REMARK  11 active torsions:
REMARK  status: ('A' for Active; 'I' for Inactive)
REMARK    1  A    between atoms: C_1  and  N_2
REMARK    2  A    between atoms: N_2  and  C_3
REMARK    3  A    between atoms: N_2  and  C_9
REMARK    4  A    between atoms: C_3  and  C_4
REMARK    5  A    between atoms: C_9  and  C_10
REMARK    6  A    between atoms: C_9  and  C_27
REMARK    7  A    between atoms: C_10  and  O_11
REMARK    8  A    between atoms: O_11  and  C_12
REMARK    9  A    between atoms: C_12  and  C_13
REMARK   10  A    between atoms: C_15  and  C_16
REMARK   11  A    between atoms: C_21  and  C_22
REMARK                            x       y       z     vdW  Elec       q    Type
REMARK                         _______ _______ _______ _____ _____    ______ ____
ROOT
ATOM      1  C   UNL     1       2.736   5.783  18.106  0.00  0.00    +0.000 C 
ENDROOT
BRANCH   1   2
ATOM      2  C   UNL     1       3.902   4.894  18.625  0.00  0.00    +0.000 C 
BRANCH   2   3
ATOM      3  C   UNL     1       5.282   5.538  18.447  0.00  0.00    +0.000 A 
ATOM      4  C   UNL     1       5.485   6.465  17.408  0.00  0.00    +0.000 A 
ATOM      5  C   UNL     1       6.716   7.109  17.246  0.00  0.00    +0.000 A 
ATOM      6  C   UNL     1       7.763   6.844  18.123  0.00  0.00    +0.000 A 
ATOM      7  C   UNL     1       7.586   5.919  19.149  0.00  0.00    +0.000 A 
ATOM      8  C   UNL     1       6.362   5.261  19.301  0.00  0.00    +0.000 A 
ENDBRANCH   2   3
BRANCH   2  10
ATOM      9  C   UNL     1       2.634   3.336  17.223  0.00  0.00    +0.000 C 
ATOM     10  N   UNL     1       3.789   3.497  18.109  0.00  0.00    +0.000 NA
BRANCH  10  11
ATOM     11  C   UNL     1       3.825   2.450  19.153  0.00  0.00    +0.000 C 
BRANCH  11  12
ATOM     12  C   UNL     1       2.753   2.633  20.181  0.00  0.00    +0.000 A 
ATOM     13  N   UNL     1       3.018   2.758  21.521  0.00  0.00    +0.000 NA
ATOM     14  N   UNL     1       1.843   2.920  22.118  0.00  0.00    +0.000 NA
ATOM     15  N   UNL     1       0.949   2.883  21.124  0.00  0.00    +0.000 N 
ATOM     16  N   UNL     1       1.447   2.743  19.887  0.00  0.00    +0.000 NA
ATOM     17  H   UNL     1      -0.048   2.960  21.302  0.00  0.00    +0.000 HD
ENDBRANCH  11  12
ENDBRANCH  10  11
ENDBRANCH   2  10
ENDBRANCH   1   2
BRANCH   1  18
ATOM     18  O   UNL     1       2.584   6.969  18.896  0.00  0.00    +0.000 OA
BRANCH  18  19
ATOM     19  C   UNL     1       2.249   8.085  18.070  0.00  0.00    +0.000 C 
BRANCH  19  20
ATOM     20  C   UNL     1       1.607   9.149  18.923  0.00  0.00    +0.000 A 
ATOM     21  C   UNL     1       1.104   8.839  20.195  0.00  0.00    +0.000 A 
ATOM     22  C   UNL     1       0.476   9.817  20.982  0.00  0.00    +0.000 A 
ATOM     23  C   UNL     1       0.373  11.127  20.484  0.00  0.00    +0.000 A 
ATOM     24  C   UNL     1       0.876  11.461  19.217  0.00  0.00    +0.000 A 
ATOM     25  C   UNL     1       1.496  10.464  18.449  0.00  0.00    +0.000 A 
BRANCH  22  26
ATOM     26  C   UNL     1      -0.109   9.471  22.331  0.00  0.00    +0.000 C 
ATOM     27  F   UNL     1      -0.857   8.333  22.326  0.00  0.00    +0.000 F 
ATOM     28  F   UNL     1       0.849   9.283  23.281  0.00  0.00    +0.000 F 
ATOM     29  F   UNL     1      -0.924  10.451  22.809  0.00  0.00    +0.000 F 
ENDBRANCH  22  26
BRANCH  24  30
ATOM     30  C   UNL     1       0.742  12.859  18.659  0.00  0.00    +0.000 C 
ATOM     31  F   UNL     1       1.781  13.223  17.856  0.00  0.00    +0.000 F 
ATOM     32  F   UNL     1      -0.382  13.014  17.907  0.00  0.00    +0.000 F 
ATOM     33  F   UNL     1       0.676  13.806  19.634  0.00  0.00    +0.000 F 
ENDBRANCH  24  30
ENDBRANCH  19  20
ENDBRANCH  18  19
ENDBRANCH   1  18
TORSDOF 10
ENDMDL
