MODEL 1
REMARK VINA RESULT:      -7.7      0.000      0.000
REMARK  Name = 
REMARK  5 active torsions:
REMARK  status: ('A' for Active; 'I' for Inactive)
REMARK    1  A    between atoms: C_2  and  C_11
REMARK    2  A    between atoms: N_3  and  C_4
REMARK    3  A    between atoms: C_16  and  O_17
REMARK    4  A    between atoms: O_17  and  C_18
REMARK    5  A    between atoms: C_18  and  C_19
REMARK                            x       y       z     vdW  Elec       q    Type
REMARK                         _______ _______ _______ _____ _____    ______ ____
ROOT
ATOM      1  C   UNL     1       6.250   5.131  17.264  0.00  0.00    +0.000 A 
ATOM      2  C   UNL     1       6.873   4.254  16.352  0.00  0.00    +0.000 A 
ATOM      3  C   UNL     1       6.651   4.348  14.979  0.00  0.00    +0.000 A 
ATOM      4  C   UNL     1       5.773   5.303  14.495  0.00  0.00    +0.000 A 
ATOM      5  C   UNL     1       5.106   6.145  15.385  0.00  0.00    +0.000 A 
ATOM      6  C   UNL     1       5.308   6.057  16.779  0.00  0.00    +0.000 A 
ENDROOT
BRANCH   1   8
ATOM      7  N   UNL     1       7.858   5.259  19.077  0.00  0.00    +0.000 NA
ATOM      8  C   UNL     1       6.641   4.984  18.718  0.00  0.00    +0.000 C 
ATOM      9  N   UNL     1       5.712   4.669  19.696  0.00  0.00    +0.000 N 
ATOM     10  H   UNL     1       7.958   5.102  20.081  0.00  0.00    +0.000 HD
ATOM     11  H   UNL     1       5.852   5.074  20.613  0.00  0.00    +0.000 HD
BRANCH   9  12
ATOM     12  C   UNL     1       4.520   3.926  19.550  0.00  0.00    +0.000 A 
ATOM     13  C   UNL     1       4.379   2.966  18.536  0.00  0.00    +0.000 A 
ATOM     14  C   UNL     1       3.135   2.396  18.254  0.00  0.00    +0.000 A 
ATOM     15  C   UNL     1       2.017   2.779  18.990  0.00  0.00    +0.000 A 
ATOM     16 CL   UNL     1       0.472   2.138  18.591  0.00  0.00    +0.000 Cl
ATOM     17  C   UNL     1       2.142   3.699  20.027  0.00  0.00    +0.000 A 
ATOM     18  C   UNL     1       3.391   4.267  20.309  0.00  0.00    +0.000 A 
ENDBRANCH   9  12
ENDBRANCH   1   8
BRANCH   6  19
ATOM     19  O   UNL     1       4.632   6.880  17.653  0.00  0.00    +0.000 OA
BRANCH  19  20
ATOM     20  C   UNL     1       3.215   6.654  17.718  0.00  0.00    +0.000 C 
BRANCH  20  21
ATOM     21  C   UNL     1       2.466   7.745  18.447  0.00  0.00    +0.000 A 
ATOM     22  C   UNL     1       2.061   8.891  17.750  0.00  0.00    +0.000 A 
ATOM     23  C   UNL     1       1.310   9.848  18.415  0.00  0.00    +0.000 A 
ATOM     24  N   UNL     1       0.933   9.738  19.705  0.00  0.00    +0.000 NA
ATOM     25  C   UNL     1       1.323   8.619  20.356  0.00  0.00    +0.000 A 
ATOM     26  C   UNL     1       2.074   7.607  19.778  0.00  0.00    +0.000 A 
ENDBRANCH  20  21
ENDBRANCH  19  20
ENDBRANCH   6  19
TORSDOF 5
ENDMDL
MODEL 2
REMARK VINA RESULT:      -7.7      2.466      6.110
REMARK  Name = 
REMARK  5 active torsions:
REMARK  status: ('A' for Active; 'I' for Inactive)
REMARK    1  A    between atoms: C_2  and  C_11
REMARK    2  A    between atoms: N_3  and  C_4
REMARK    3  A    between atoms: C_16  and  O_17
REMARK    4  A    between atoms: O_17  and  C_18
REMARK    5  A    between atoms: C_18  and  C_19
REMARK                            x       y       z     vdW  Elec       q    Type
REMARK                         _______ _______ _______ _____ _____    ______ ____
ROOT
ATOM      1  C   UNL     1       2.678   4.654  19.388  0.00  0.00    +0.000 A 
ATOM      2  C   UNL     1       1.932   4.397  20.557  0.00  0.00    +0.000 A 
ATOM      3  C   UNL     1       0.919   3.441  20.583  0.00  0.00    +0.000 A 
ATOM      4  C   UNL     1       0.610   2.744  19.426  0.00  0.00    +0.000 A 
ATOM      5  C   UNL     1       1.300   3.022  18.246  0.00  0.00    +0.000 A 
ATOM      6  C   UNL     1       2.321   3.995  18.197  0.00  0.00    +0.000 A 
ENDROOT
BRANCH   1   8
ATOM      7  N   UNL     1       4.971   5.244  19.920  0.00  0.00    +0.000 NA
ATOM      8  C   UNL     1       3.808   5.652  19.512  0.00  0.00    +0.000 C 
ATOM      9  N   UNL     1       3.669   6.968  19.102  0.00  0.00    +0.000 N 
ATOM     10  H   UNL     1       5.614   6.035  19.956  0.00  0.00    +0.000 HD
ATOM     11  H   UNL     1       4.489   7.419  18.716  0.00  0.00    +0.000 HD
BRANCH   9  12
ATOM     12  C   UNL     1       2.489   7.740  19.057  0.00  0.00    +0.000 A 
ATOM     13  C   UNL     1       2.071   8.367  17.873  0.00  0.00    +0.000 A 
ATOM     14  C   UNL     1       1.035   9.304  17.883  0.00  0.00    +0.000 A 
ATOM     15  C   UNL     1       0.400   9.620  19.080  0.00  0.00    +0.000 A 
ATOM     16 CL   UNL     1      -0.820  10.831  19.106  0.00  0.00    +0.000 Cl
ATOM     17  C   UNL     1       0.771   8.980  20.260  0.00  0.00    +0.000 A 
ATOM     18  C   UNL     1       1.809   8.040  20.247  0.00  0.00    +0.000 A 
ENDBRANCH   9  12
ENDBRANCH   1   8
BRANCH   6  19
ATOM     19  O   UNL     1       2.985   4.276  17.024  0.00  0.00    +0.000 OA
BRANCH  19  20
ATOM     20  C   UNL     1       4.109   3.426  16.748  0.00  0.00    +0.000 C 
BRANCH  20  21
ATOM     21  C   UNL     1       5.258   4.146  16.082  0.00  0.00    +0.000 A 
ATOM     22  C   UNL     1       6.155   4.887  16.861  0.00  0.00    +0.000 A 
ATOM     23  C   UNL     1       7.247   5.479  16.244  0.00  0.00    +0.000 A 
ATOM     24  N   UNL     1       7.505   5.376  14.925  0.00  0.00    +0.000 NA
ATOM     25  C   UNL     1       6.634   4.646  14.193  0.00  0.00    +0.000 A 
ATOM     26  C   UNL     1       5.516   4.016  14.717  0.00  0.00    +0.000 A 
ENDBRANCH  20  21
ENDBRANCH  19  20
ENDBRANCH   6  19
TORSDOF 5
ENDMDL
MODEL 3
REMARK VINA RESULT:      -7.7      2.622      4.802
REMARK  Name = 
REMARK  5 active torsions:
REMARK  status: ('A' for Active; 'I' for Inactive)
REMARK    1  A    between atoms: C_2  and  C_11
REMARK    2  A    between atoms: N_3  and  C_4
REMARK    3  A    between atoms: C_16  and  O_17
REMARK    4  A    between atoms: O_17  and  C_18
REMARK    5  A    between atoms: C_18  and  C_19
REMARK                            x       y       z     vdW  Elec       q    Type
REMARK                         _______ _______ _______ _____ _____    ______ ____
ROOT
ATOM      1  C   UNL     1       2.704   3.412  19.031  0.00  0.00    +0.000 A 
ATOM      2  C   UNL     1       2.947   2.436  20.020  0.00  0.00    +0.000 A 
ATOM      3  C   UNL     1       2.743   2.698  21.373  0.00  0.00    +0.000 A 
ATOM      4  C   UNL     1       2.322   3.958  21.766  0.00  0.00    +0.000 A 
ATOM      5  C   UNL     1       2.128   4.953  20.809  0.00  0.00    +0.000 A 
ATOM      6  C   UNL     1       2.340   4.710  19.435  0.00  0.00    +0.000 A 
ENDROOT
BRANCH   1   8
ATOM      7  N   UNL     1       2.167   1.991  17.139  0.00  0.00    +0.000 NA
ATOM      8  C   UNL     1       2.879   2.977  17.593  0.00  0.00    +0.000 C 
ATOM      9  N   UNL     1       3.697   3.669  16.714  0.00  0.00    +0.000 N 
ATOM     10  H   UNL     1       2.409   1.819  16.163  0.00  0.00    +0.000 HD
ATOM     11  H   UNL     1       3.408   3.703  15.745  0.00  0.00    +0.000 HD
BRANCH   9  12
ATOM     12  C   UNL     1       4.847   4.429  17.020  0.00  0.00    +0.000 A 
ATOM     13  C   UNL     1       5.639   4.135  18.140  0.00  0.00    +0.000 A 
ATOM     14  C   UNL     1       6.638   5.014  18.564  0.00  0.00    +0.000 A 
ATOM     15  C   UNL     1       6.859   6.198  17.866  0.00  0.00    +0.000 A 
ATOM     16 CL   UNL     1       8.034   7.318  18.433  0.00  0.00    +0.000 Cl
ATOM     17  C   UNL     1       6.112   6.490  16.728  0.00  0.00    +0.000 A 
ATOM     18  C   UNL     1       5.112   5.605  16.304  0.00  0.00    +0.000 A 
ENDBRANCH   9  12
ENDBRANCH   1   8
BRANCH   6  19
ATOM     19  O   UNL     1       2.165   5.704  18.498  0.00  0.00    +0.000 OA
BRANCH  19  20
ATOM     20  C   UNL     1       2.869   6.925  18.773  0.00  0.00    +0.000 C 
BRANCH  20  21
ATOM     21  C   UNL     1       1.957   8.112  18.980  0.00  0.00    +0.000 A 
ATOM     22  C   UNL     1       1.500   8.415  20.269  0.00  0.00    +0.000 A 
ATOM     23  C   UNL     1       0.725   9.551  20.453  0.00  0.00    +0.000 A 
ATOM     24  N   UNL     1       0.389  10.395  19.457  0.00  0.00    +0.000 NA
ATOM     25  C   UNL     1       0.850  10.090  18.223  0.00  0.00    +0.000 A 
ATOM     26  C   UNL     1       1.631   8.980  17.940  0.00  0.00    +0.000 A 
ENDBRANCH  20  21
ENDBRANCH  19  20
ENDBRANCH   6  19
TORSDOF 5
ENDMDL
MODEL 4
REMARK VINA RESULT:      -7.5      2.710      5.159
REMARK  Name = 
REMARK  5 active torsions:
REMARK  status: ('A' for Active; 'I' for Inactive)
REMARK    1  A    between atoms: C_2  and  C_11
REMARK    2  A    between atoms: N_3  and  C_4
REMARK    3  A    between atoms: C_16  and  O_17
REMARK    4  A    between atoms: O_17  and  C_18
REMARK    5  A    between atoms: C_18  and  C_19
REMARK                            x       y       z     vdW  Elec       q    Type
REMARK                         _______ _______ _______ _____ _____    ______ ____
ROOT
ATOM      1  C   UNL     1       5.799   5.904  17.560  0.00  0.00    +0.000 A 
ATOM      2  C   UNL     1       6.263   7.187  17.201  0.00  0.00    +0.000 A 
ATOM      3  C   UNL     1       7.440   7.712  17.729  0.00  0.00    +0.000 A 
ATOM      4  C   UNL     1       8.160   6.976  18.655  0.00  0.00    +0.000 A 
ATOM      5  C   UNL     1       7.690   5.728  19.063  0.00  0.00    +0.000 A 
ATOM      6  C   UNL     1       6.494   5.184  18.550  0.00  0.00    +0.000 A 
ENDROOT
BRANCH   1   8
ATOM      7  N   UNL     1       4.683   4.628  15.824  0.00  0.00    +0.000 NA
ATOM      8  C   UNL     1       4.556   5.411  16.852  0.00  0.00    +0.000 C 
ATOM      9  N   UNL     1       3.285   5.683  17.332  0.00  0.00    +0.000 N 
ATOM     10  H   UNL     1       3.758   4.396  15.460  0.00  0.00    +0.000 HD
ATOM     11  H   UNL     1       2.578   4.972  17.191  0.00  0.00    +0.000 HD
BRANCH   9  12
ATOM     12  C   UNL     1       2.868   6.795  18.094  0.00  0.00    +0.000 A 
ATOM     13  C   UNL     1       2.526   6.665  19.449  0.00  0.00    +0.000 A 
ATOM     14  C   UNL     1       1.905   7.710  20.136  0.00  0.00    +0.000 A 
ATOM     15  C   UNL     1       1.625   8.902  19.476  0.00  0.00    +0.000 A 
ATOM     16 CL   UNL     1       0.790  10.160  20.299  0.00  0.00    +0.000 Cl
ATOM     17  C   UNL     1       1.993   9.068  18.143  0.00  0.00    +0.000 A 
ATOM     18  C   UNL     1       2.617   8.019  17.456  0.00  0.00    +0.000 A 
ENDBRANCH   9  12
ENDBRANCH   1   8
BRANCH   6  19
ATOM     19  O   UNL     1       6.026   3.959  18.972  0.00  0.00    +0.000 OA
BRANCH  19  20
ATOM     20  C   UNL     1       5.047   4.017  20.021  0.00  0.00    +0.000 C 
BRANCH  20  21
ATOM     21  C   UNL     1       3.798   3.220  19.723  0.00  0.00    +0.000 A 
ATOM     22  C   UNL     1       2.685   3.340  20.564  0.00  0.00    +0.000 A 
ATOM     23  C   UNL     1       1.522   2.660  20.234  0.00  0.00    +0.000 A 
ATOM     24  N   UNL     1       1.394   1.889  19.136  0.00  0.00    +0.000 NA
ATOM     25  C   UNL     1       2.476   1.797  18.331  0.00  0.00    +0.000 A 
ATOM     26  C   UNL     1       3.681   2.438  18.575  0.00  0.00    +0.000 A 
ENDBRANCH  20  21
ENDBRANCH  19  20
ENDBRANCH   6  19
TORSDOF 5
ENDMDL
MODEL 5
REMARK VINA RESULT:      -7.4      2.592      4.880
REMARK  Name = 
REMARK  5 active torsions:
REMARK  status: ('A' for Active; 'I' for Inactive)
REMARK    1  A    between atoms: C_2  and  C_11
REMARK    2  A    between atoms: N_3  and  C_4
REMARK    3  A    between atoms: C_16  and  O_17
REMARK    4  A    between atoms: O_17  and  C_18
REMARK    5  A    between atoms: C_18  and  C_19
REMARK                            x       y       z     vdW  Elec       q    Type
REMARK                         _______ _______ _______ _____ _____    ______ ____
ROOT
ATOM      1  C   UNL     1       5.999   6.315  17.401  0.00  0.00    +0.000 A 
ATOM      2  C   UNL     1       6.950   7.333  17.625  0.00  0.00    +0.000 A 
ATOM      3  C   UNL     1       7.999   7.169  18.528  0.00  0.00    +0.000 A 
ATOM      4  C   UNL     1       8.098   5.992  19.250  0.00  0.00    +0.000 A 
ATOM      5  C   UNL     1       7.138   4.994  19.082  0.00  0.00    +0.000 A 
ATOM      6  C   UNL     1       6.062   5.146  18.183  0.00  0.00    +0.000 A 
ENDROOT
BRANCH   1   8
ATOM      7  N   UNL     1       5.308   6.513  15.084  0.00  0.00    +0.000 NA
ATOM      8  C   UNL     1       4.962   6.581  16.333  0.00  0.00    +0.000 C 
ATOM      9  N   UNL     1       3.628   6.789  16.646  0.00  0.00    +0.000 N 
ATOM     10  H   UNL     1       4.501   6.726  14.496  0.00  0.00    +0.000 HD
ATOM     11  H   UNL     1       2.942   6.449  15.984  0.00  0.00    +0.000 HD
BRANCH   9  12
ATOM     12  C   UNL     1       3.093   7.331  17.834  0.00  0.00    +0.000 A 
ATOM     13  C   UNL     1       2.950   6.551  18.992  0.00  0.00    +0.000 A 
ATOM     14  C   UNL     1       2.222   7.020  20.088  0.00  0.00    +0.000 A 
ATOM     15  C   UNL     1       1.632   8.279  20.039  0.00  0.00    +0.000 A 
ATOM     16 CL   UNL     1       0.669   8.823  21.355  0.00  0.00    +0.000 Cl
ATOM     17  C   UNL     1       1.794   9.085  18.916  0.00  0.00    +0.000 A 
ATOM     18  C   UNL     1       2.527   8.614  17.819  0.00  0.00    +0.000 A 
ENDBRANCH   9  12
ENDBRANCH   1   8
BRANCH   6  19
ATOM     19  O   UNL     1       5.107   4.164  18.036  0.00  0.00    +0.000 OA
BRANCH  19  20
ATOM     20  C   UNL     1       4.800   3.438  19.237  0.00  0.00    +0.000 C 
BRANCH  20  21
ATOM     21  C   UNL     1       3.319   3.231  19.452  0.00  0.00    +0.000 A 
ATOM     22  C   UNL     1       2.490   2.972  18.353  0.00  0.00    +0.000 A 
ATOM     23  C   UNL     1       1.146   2.710  18.576  0.00  0.00    +0.000 A 
ATOM     24  N   UNL     1       0.585   2.681  19.801  0.00  0.00    +0.000 NA
ATOM     25  C   UNL     1       1.404   2.921  20.849  0.00  0.00    +0.000 A 
ATOM     26  C   UNL     1       2.759   3.191  20.729  0.00  0.00    +0.000 A 
ENDBRANCH  20  21
ENDBRANCH  19  20
ENDBRANCH   6  19
TORSDOF 5
ENDMDL
MODEL 6
REMARK VINA RESULT:      -7.3      2.355      4.287
REMARK  Name = 
REMARK  5 active torsions:
REMARK  status: ('A' for Active; 'I' for Inactive)
REMARK    1  A    between atoms: C_2  and  C_11
REMARK    2  A    between atoms: N_3  and  C_4
REMARK    3  A    between atoms: C_16  and  O_17
REMARK    4  A    between atoms: O_17  and  C_18
REMARK    5  A    between atoms: C_18  and  C_19
REMARK                            x       y       z     vdW  Elec       q    Type
REMARK                         _______ _______ _______ _____ _____    ______ ____
ROOT
ATOM      1  C   UNL     1       4.236   4.262  18.380  0.00  0.00    +0.000 A 
ATOM      2  C   UNL     1       3.814   2.924  18.226  0.00  0.00    +0.000 A 
ATOM      3  C   UNL     1       2.505   2.607  17.869  0.00  0.00    +0.000 A 
ATOM      4  C   UNL     1       1.582   3.623  17.691  0.00  0.00    +0.000 A 
ATOM      5  C   UNL     1       1.965   4.949  17.891  0.00  0.00    +0.000 A 
ATOM      6  C   UNL     1       3.282   5.290  18.264  0.00  0.00    +0.000 A 
ENDROOT
BRANCH   1   8
ATOM      7  N   UNL     1       6.059   4.782  19.894  0.00  0.00    +0.000 NA
ATOM      8  C   UNL     1       5.702   4.478  18.683  0.00  0.00    +0.000 C 
ATOM      9  N   UNL     1       6.685   4.257  17.733  0.00  0.00    +0.000 N 
ATOM     10  H   UNL     1       7.073   4.902  19.928  0.00  0.00    +0.000 HD
ATOM     11  H   UNL     1       7.575   3.906  18.064  0.00  0.00    +0.000 HD
BRANCH   9  12
ATOM     12  C   UNL     1       6.571   4.363  16.330  0.00  0.00    +0.000 A 
ATOM     13  C   UNL     1       5.775   3.471  15.593  0.00  0.00    +0.000 A 
ATOM     14  C   UNL     1       5.839   3.437  14.198  0.00  0.00    +0.000 A 
ATOM     15  C   UNL     1       6.697   4.300  13.524  0.00  0.00    +0.000 A 
ATOM     16 CL   UNL     1       6.834   4.204  11.812  0.00  0.00    +0.000 Cl
ATOM     17  C   UNL     1       7.464   5.221  14.232  0.00  0.00    +0.000 A 
ATOM     18  C   UNL     1       7.398   5.254  15.631  0.00  0.00    +0.000 A 
ENDBRANCH   9  12
ENDBRANCH   1   8
BRANCH   6  19
ATOM     19  O   UNL     1       3.648   6.601  18.479  0.00  0.00    +0.000 OA
BRANCH  19  20
ATOM     20  C   UNL     1       2.932   7.564  17.690  0.00  0.00    +0.000 C 
BRANCH  20  21
ATOM     21  C   UNL     1       2.036   8.465  18.508  0.00  0.00    +0.000 A 
ATOM     22  C   UNL     1       1.800   8.166  19.855  0.00  0.00    +0.000 A 
ATOM     23  C   UNL     1       1.037   9.043  20.611  0.00  0.00    +0.000 A 
ATOM     24  N   UNL     1       0.508  10.183  20.123  0.00  0.00    +0.000 NA
ATOM     25  C   UNL     1       0.758  10.459  18.824  0.00  0.00    +0.000 A 
ATOM     26  C   UNL     1       1.509   9.647  17.989  0.00  0.00    +0.000 A 
ENDBRANCH  20  21
ENDBRANCH  19  20
ENDBRANCH   6  19
TORSDOF 5
ENDMDL
MODEL 7
REMARK VINA RESULT:      -7.3      2.639      5.439
REMARK  Name = 
REMARK  5 active torsions:
REMARK  status: ('A' for Active; 'I' for Inactive)
REMARK    1  A    between atoms: C_2  and  C_11
REMARK    2  A    between atoms: N_3  and  C_4
REMARK    3  A    between atoms: C_16  and  O_17
REMARK    4  A    between atoms: O_17  and  C_18
REMARK    5  A    between atoms: C_18  and  C_19
REMARK                            x       y       z     vdW  Elec       q    Type
REMARK                         _______ _______ _______ _____ _____    ______ ____
ROOT
ATOM      1  C   UNL     1       2.430   3.476  19.856  0.00  0.00    +0.000 A 
ATOM      2  C   UNL     1       1.277   2.911  19.269  0.00  0.00    +0.000 A 
ATOM      3  C   UNL     1       1.333   2.237  18.051  0.00  0.00    +0.000 A 
ATOM      4  C   UNL     1       2.539   2.144  17.378  0.00  0.00    +0.000 A 
ATOM      5  C   UNL     1       3.679   2.742  17.915  0.00  0.00    +0.000 A 
ATOM      6  C   UNL     1       3.641   3.438  19.141  0.00  0.00    +0.000 A 
ENDROOT
BRANCH   1   8
ATOM      7  N   UNL     1       2.128   3.334  22.259  0.00  0.00    +0.000 NA
ATOM      8  C   UNL     1       2.256   4.103  21.221  0.00  0.00    +0.000 C 
ATOM      9  N   UNL     1       2.336   5.473  21.411  0.00  0.00    +0.000 N 
ATOM     10  H   UNL     1       2.012   3.910  23.094  0.00  0.00    +0.000 HD
ATOM     11  H   UNL     1       2.729   5.794  22.286  0.00  0.00    +0.000 HD
BRANCH   9  12
ATOM     12  C   UNL     1       2.030   6.494  20.486  0.00  0.00    +0.000 A 
ATOM     13  C   UNL     1       2.564   6.486  19.188  0.00  0.00    +0.000 A 
ATOM     14  C   UNL     1       2.441   7.601  18.354  0.00  0.00    +0.000 A 
ATOM     15  C   UNL     1       1.777   8.735  18.810  0.00  0.00    +0.000 A 
ATOM     16 CL   UNL     1       1.696  10.135  17.815  0.00  0.00    +0.000 Cl
ATOM     17  C   UNL     1       1.204   8.750  20.079  0.00  0.00    +0.000 A 
ATOM     18  C   UNL     1       1.327   7.630  20.912  0.00  0.00    +0.000 A 
ENDBRANCH   9  12
ENDBRANCH   1   8
BRANCH   6  19
ATOM     19  O   UNL     1       4.767   4.043  19.655  0.00  0.00    +0.000 OA
BRANCH  19  20
ATOM     20  C   UNL     1       5.919   4.000  18.799  0.00  0.00    +0.000 C 
BRANCH  20  21
ATOM     21  C   UNL     1       6.357   5.362  18.311  0.00  0.00    +0.000 A 
ATOM     22  C   UNL     1       7.550   5.917  18.788  0.00  0.00    +0.000 A 
ATOM     23  C   UNL     1       7.975   7.133  18.274  0.00  0.00    +0.000 A 
ATOM     24  N   UNL     1       7.305   7.817  17.325  0.00  0.00    +0.000 NA
ATOM     25  C   UNL     1       6.162   7.258  16.869  0.00  0.00    +0.000 A 
ATOM     26  C   UNL     1       5.657   6.048  17.319  0.00  0.00    +0.000 A 
ENDBRANCH  20  21
ENDBRANCH  19  20
ENDBRANCH   6  19
TORSDOF 5
ENDMDL
MODEL 8
REMARK VINA RESULT:      -7.3      2.732      4.881
REMARK  Name = 
REMARK  5 active torsions:
REMARK  status: ('A' for Active; 'I' for Inactive)
REMARK    1  A    between atoms: C_2  and  C_11
REMARK    2  A    between atoms: N_3  and  C_4
REMARK    3  A    between atoms: C_16  and  O_17
REMARK    4  A    between atoms: O_17  and  C_18
REMARK    5  A    between atoms: C_18  and  C_19
REMARK                            x       y       z     vdW  Elec       q    Type
REMARK                         _______ _______ _______ _____ _____    ______ ____
ROOT
ATOM      1  C   UNL     1       2.738   3.547  19.018  0.00  0.00    +0.000 A 
ATOM      2  C   UNL     1       2.984   2.509  19.941  0.00  0.00    +0.000 A 
ATOM      3  C   UNL     1       2.588   2.607  21.273  0.00  0.00    +0.000 A 
ATOM      4  C   UNL     1       1.967   3.762  21.716  0.00  0.00    +0.000 A 
ATOM      5  C   UNL     1       1.762   4.821  20.832  0.00  0.00    +0.000 A 
ATOM      6  C   UNL     1       2.167   4.746  19.482  0.00  0.00    +0.000 A 
ENDROOT
BRANCH   1   8
ATOM      7  N   UNL     1       2.653   2.246  16.971  0.00  0.00    +0.000 NA
ATOM      8  C   UNL     1       3.137   3.284  17.582  0.00  0.00    +0.000 C 
ATOM      9  N   UNL     1       3.917   4.177  16.866  0.00  0.00    +0.000 N 
ATOM     10  H   UNL     1       3.024   2.209  16.021  0.00  0.00    +0.000 HD
ATOM     11  H   UNL     1       3.732   4.257  15.874  0.00  0.00    +0.000 HD
BRANCH   9  12
ATOM     12  C   UNL     1       4.883   5.076  17.366  0.00  0.00    +0.000 A 
ATOM     13  C   UNL     1       5.131   6.305  16.736  0.00  0.00    +0.000 A 
ATOM     14  C   UNL     1       6.231   7.088  17.096  0.00  0.00    +0.000 A 
ATOM     15  C   UNL     1       7.093   6.650  18.096  0.00  0.00    +0.000 A 
ATOM     16 CL   UNL     1       8.490   7.574  18.485  0.00  0.00    +0.000 Cl
ATOM     17  C   UNL     1       6.843   5.453  18.763  0.00  0.00    +0.000 A 
ATOM     18  C   UNL     1       5.739   4.671  18.401  0.00  0.00    +0.000 A 
ENDBRANCH   9  12
ENDBRANCH   1   8
BRANCH   6  19
ATOM     19  O   UNL     1       1.979   5.803  18.619  0.00  0.00    +0.000 OA
BRANCH  19  20
ATOM     20  C   UNL     1       2.684   7.003  18.973  0.00  0.00    +0.000 C 
BRANCH  20  21
ATOM     21  C   UNL     1       1.779   8.195  19.180  0.00  0.00    +0.000 A 
ATOM     22  C   UNL     1       1.296   8.482  20.463  0.00  0.00    +0.000 A 
ATOM     23  C   UNL     1       0.528   9.622  20.648  0.00  0.00    +0.000 A 
ATOM     24  N   UNL     1       0.220  10.484  19.659  0.00  0.00    +0.000 NA
ATOM     25  C   UNL     1       0.706  10.195  18.431  0.00  0.00    +0.000 A 
ATOM     26  C   UNL     1       1.483   9.083  18.146  0.00  0.00    +0.000 A 
ENDBRANCH  20  21
ENDBRANCH  19  20
ENDBRANCH   6  19
TORSDOF 5
ENDMDL
MODEL 9
REMARK VINA RESULT:      -7.3      2.780      5.123
REMARK  Name = 
REMARK  5 active torsions:
REMARK  status: ('A' for Active; 'I' for Inactive)
REMARK    1  A    between atoms: C_2  and  C_11
REMARK    2  A    between atoms: N_3  and  C_4
REMARK    3  A    between atoms: C_16  and  O_17
REMARK    4  A    between atoms: O_17  and  C_18
REMARK    5  A    between atoms: C_18  and  C_19
REMARK                            x       y       z     vdW  Elec       q    Type
REMARK                         _______ _______ _______ _____ _____    ______ ____
ROOT
ATOM      1  C   UNL     1       5.614   6.165  18.019  0.00  0.00    +0.000 A 
ATOM      2  C   UNL     1       5.150   7.128  17.098  0.00  0.00    +0.000 A 
ATOM      3  C   UNL     1       3.834   7.583  17.117  0.00  0.00    +0.000 A 
ATOM      4  C   UNL     1       2.945   7.059  18.040  0.00  0.00    +0.000 A 
ATOM      5  C   UNL     1       3.370   6.068  18.925  0.00  0.00    +0.000 A 
ATOM      6  C   UNL     1       4.695   5.585  18.913  0.00  0.00    +0.000 A 
ENDROOT
BRANCH   1   8
ATOM      7  N   UNL     1       7.908   6.389  18.778  0.00  0.00    +0.000 NA
ATOM      8  C   UNL     1       7.085   5.818  17.952  0.00  0.00    +0.000 C 
ATOM      9  N   UNL     1       7.564   4.829  17.108  0.00  0.00    +0.000 N 
ATOM     10  H   UNL     1       8.856   6.055  18.597  0.00  0.00    +0.000 HD
ATOM     11  H   UNL     1       8.355   4.288  17.436  0.00  0.00    +0.000 HD
BRANCH   9  12
ATOM     12  C   UNL     1       7.021   4.405  15.877  0.00  0.00    +0.000 A 
ATOM     13  C   UNL     1       7.519   4.884  14.656  0.00  0.00    +0.000 A 
ATOM     14  C   UNL     1       6.843   4.639  13.458  0.00  0.00    +0.000 A 
ATOM     15  C   UNL     1       5.661   3.905  13.470  0.00  0.00    +0.000 A 
ATOM     16 CL   UNL     1       4.786   3.670  12.008  0.00  0.00    +0.000 Cl
ATOM     17  C   UNL     1       5.171   3.384  14.665  0.00  0.00    +0.000 A 
ATOM     18  C   UNL     1       5.852   3.630  15.864  0.00  0.00    +0.000 A 
ENDBRANCH   9  12
ENDBRANCH   1   8
BRANCH   6  19
ATOM     19  O   UNL     1       5.102   4.592  19.777  0.00  0.00    +0.000 OA
BRANCH  19  20
ATOM     20  C   UNL     1       4.773   3.258  19.361  0.00  0.00    +0.000 C 
BRANCH  20  21
ATOM     21  C   UNL     1       3.304   2.932  19.495  0.00  0.00    +0.000 A 
ATOM     22  C   UNL     1       2.679   3.054  20.743  0.00  0.00    +0.000 A 
ATOM     23  C   UNL     1       1.315   2.824  20.833  0.00  0.00    +0.000 A 
ATOM     24  N   UNL     1       0.542   2.493  19.779  0.00  0.00    +0.000 NA
ATOM     25  C   UNL     1       1.162   2.392  18.582  0.00  0.00    +0.000 A 
ATOM     26  C   UNL     1       2.518   2.604  18.391  0.00  0.00    +0.000 A 
ENDBRANCH  20  21
ENDBRANCH  19  20
ENDBRANCH   6  19
TORSDOF 5
ENDMDL
