MODEL 1
REMARK VINA RESULT:      -8.1      0.000      0.000
REMARK  Name = 
REMARK  12 active torsions:
REMARK  status: ('A' for Active; 'I' for Inactive)
REMARK    1  A    between atoms: C_1  and  O_2
REMARK    2  A    between atoms: O_2  and  C_3
REMARK    3  A    between atoms: C_5  and  C_6
REMARK    4  A    between atoms: C_6  and  C_7
REMARK    5  A    between atoms: C_7  and  N_8
REMARK    6  A    between atoms: C_12  and  C_13
REMARK    7  A    between atoms: C_18  and  S_19
REMARK    8  A    between atoms: S_19  and  N_22
REMARK    9  A    between atoms: N_22  and  C_23
REMARK   10  A    between atoms: N_22  and  C_24
REMARK   11  A    between atoms: C_28  and  O_29
REMARK   12  A    between atoms: O_29  and  C_30
REMARK                            x       y       z     vdW  Elec       q    Type
REMARK                         _______ _______ _______ _____ _____    ______ ____
ROOT
ATOM      1  N   UNL     1       1.793   8.659  18.740  0.00  0.00    +0.000 N 
ATOM      2  C   UNL     1       1.508   8.244  20.018  0.00  0.00    +0.000 A 
ATOM      3  N   UNL     1       1.924   7.146  20.558  0.00  0.00    +0.000 NA
ATOM      4  C   UNL     1       2.759   6.371  19.799  0.00  0.00    +0.000 A 
ATOM      5  C   UNL     1       3.142   6.650  18.547  0.00  0.00    +0.000 A 
ATOM      6  C   UNL     1       2.608   7.892  17.928  0.00  0.00    +0.000 A 
ATOM      7  O   UNL     1       2.892   8.181  16.767  0.00  0.00    +0.000 OA
ENDROOT
BRANCH   5   8
ATOM      8  C   UNL     1       4.095   5.793  17.825  0.00  0.00    +0.000 A 
ATOM      9  C   UNL     1       5.335   6.358  17.470  0.00  0.00    +0.000 A 
ATOM     10  C   UNL     1       6.282   5.622  16.757  0.00  0.00    +0.000 A 
ATOM     11  C   UNL     1       6.009   4.302  16.400  0.00  0.00    +0.000 A 
ATOM     12  C   UNL     1       4.791   3.720  16.752  0.00  0.00    +0.000 A 
ATOM     13  C   UNL     1       3.830   4.459  17.462  0.00  0.00    +0.000 A 
BRANCH  13  14
ATOM     14  S   UNL     1       2.249   3.669  17.723  0.00  0.00    +0.000 S 
ATOM     15  O   UNL     1       1.163   4.551  17.351  0.00  0.00    +0.000 OA
ATOM     16  O   UNL     1       2.363   2.349  17.136  0.00  0.00    +0.000 OA
BRANCH  14  17
ATOM     17  N   UNL     1       2.144   3.473  19.425  0.00  0.00    +0.000 NA
ATOM     18  C   UNL     1       0.799   3.092  19.922  0.00  0.00    +0.000 C 
ATOM     19  C   UNL     1       3.181   2.541  19.937  0.00  0.00    +0.000 C 
ENDBRANCH  14  17
ENDBRANCH  13  14
ENDBRANCH   5   8
BRANCH   1  20
ATOM     20  C   UNL     1       1.264   9.925  18.227  0.00  0.00    +0.000 C 
BRANCH  20  21
ATOM     21  C   UNL     1       0.355  10.628  19.244  0.00  0.00    +0.000 C 
BRANCH  21  24
ATOM     22  C   UNL     1      -3.249  11.882  19.041  0.00  0.00    +0.000 A 
ATOM     23  C   UNL     1      -1.952  11.634  19.510  0.00  0.00    +0.000 A 
ATOM     24  C   UNL     1      -1.092  10.756  18.833  0.00  0.00    +0.000 A 
ATOM     25  C   UNL     1      -1.576  10.089  17.703  0.00  0.00    +0.000 A 
ATOM     26  C   UNL     1      -2.868  10.329  17.224  0.00  0.00    +0.000 A 
ATOM     27  C   UNL     1      -3.703  11.226  17.895  0.00  0.00    +0.000 A 
BRANCH  22  29
ATOM     28  C   UNL     1      -5.336  12.544  19.979  0.00  0.00    +0.000 C 
ATOM     29  O   UNL     1      -3.954  12.803  19.770  0.00  0.00    +0.000 OA
ENDBRANCH  22  29
BRANCH  26  30
ATOM     30  O   UNL     1      -3.180   9.646  16.078  0.00  0.00    +0.000 OA
ATOM     31  C   UNL     1      -2.965  10.321  14.845  0.00  0.00    +0.000 C 
ENDBRANCH  26  30
ENDBRANCH  21  24
ENDBRANCH  20  21
ENDBRANCH   1  20
TORSDOF 8
ENDMDL
MODEL 2
REMARK VINA RESULT:      -7.9      2.614      4.349
REMARK  Name = 
REMARK  12 active torsions:
REMARK  status: ('A' for Active; 'I' for Inactive)
REMARK    1  A    between atoms: C_1  and  O_2
REMARK    2  A    between atoms: O_2  and  C_3
REMARK    3  A    between atoms: C_5  and  C_6
REMARK    4  A    between atoms: C_6  and  C_7
REMARK    5  A    between atoms: C_7  and  N_8
REMARK    6  A    between atoms: C_12  and  C_13
REMARK    7  A    between atoms: C_18  and  S_19
REMARK    8  A    between atoms: S_19  and  N_22
REMARK    9  A    between atoms: N_22  and  C_23
REMARK   10  A    between atoms: N_22  and  C_24
REMARK   11  A    between atoms: C_28  and  O_29
REMARK   12  A    between atoms: O_29  and  C_30
REMARK                            x       y       z     vdW  Elec       q    Type
REMARK                         _______ _______ _______ _____ _____    ______ ____
ROOT
ATOM      1  N   UNL     1       1.811   7.893  20.157  0.00  0.00    +0.000 N 
ATOM      2  C   UNL     1       1.883   8.707  19.053  0.00  0.00    +0.000 A 
ATOM      3  N   UNL     1       2.225   8.329  17.866  0.00  0.00    +0.000 NA
ATOM      4  C   UNL     1       2.482   6.995  17.701  0.00  0.00    +0.000 A 
ATOM      5  C   UNL     1       2.435   6.076  18.674  0.00  0.00    +0.000 A 
ATOM      6  C   UNL     1       2.091   6.544  20.042  0.00  0.00    +0.000 A 
ATOM      7  O   UNL     1       2.071   5.753  20.984  0.00  0.00    +0.000 OA
ENDROOT
BRANCH   5   8
ATOM      8  C   UNL     1       2.664   4.649  18.396  0.00  0.00    +0.000 A 
ATOM      9  C   UNL     1       1.530   3.820  18.291  0.00  0.00    +0.000 A 
ATOM     10  C   UNL     1       1.661   2.450  18.060  0.00  0.00    +0.000 A 
ATOM     11  C   UNL     1       2.930   1.890  17.915  0.00  0.00    +0.000 A 
ATOM     12  C   UNL     1       4.065   2.696  18.005  0.00  0.00    +0.000 A 
ATOM     13  C   UNL     1       3.939   4.074  18.246  0.00  0.00    +0.000 A 
BRANCH  13  14
ATOM     14  S   UNL     1       5.458   4.982  18.497  0.00  0.00    +0.000 S 
ATOM     15  O   UNL     1       5.400   5.757  19.718  0.00  0.00    +0.000 OA
ATOM     16  O   UNL     1       6.530   4.032  18.276  0.00  0.00    +0.000 OA
BRANCH  14  17
ATOM     17  N   UNL     1       5.496   6.117  17.211  0.00  0.00    +0.000 NA
ATOM     18  C   UNL     1       6.623   7.080  17.268  0.00  0.00    +0.000 C 
ATOM     19  C   UNL     1       5.438   5.450  15.885  0.00  0.00    +0.000 C 
ENDBRANCH  14  17
ENDBRANCH  13  14
ENDBRANCH   5   8
BRANCH   1  20
ATOM     20  C   UNL     1       1.414   8.430  21.461  0.00  0.00    +0.000 C 
BRANCH  20  21
ATOM     21  C   UNL     1      -0.094   8.710  21.537  0.00  0.00    +0.000 C 
BRANCH  21  24
ATOM     22  C   UNL     1      -1.444  11.927  19.980  0.00  0.00    +0.000 A 
ATOM     23  C   UNL     1      -0.925  10.633  20.118  0.00  0.00    +0.000 A 
ATOM     24  C   UNL     1      -0.488  10.157  21.364  0.00  0.00    +0.000 A 
ATOM     25  C   UNL     1      -0.533  11.022  22.461  0.00  0.00    +0.000 A 
ATOM     26  C   UNL     1      -1.051  12.316  22.336  0.00  0.00    +0.000 A 
ATOM     27  C   UNL     1      -1.505  12.766  21.095  0.00  0.00    +0.000 A 
BRANCH  22  29
ATOM     28  C   UNL     1      -3.094  11.629  18.287  0.00  0.00    +0.000 C 
ATOM     29  O   UNL     1      -1.882  12.235  18.720  0.00  0.00    +0.000 OA
ENDBRANCH  22  29
BRANCH  26  30
ATOM     30  O   UNL     1      -1.082  13.026  23.508  0.00  0.00    +0.000 OA
ATOM     31  C   UNL     1      -2.120  13.987  23.652  0.00  0.00    +0.000 C 
ENDBRANCH  26  30
ENDBRANCH  21  24
ENDBRANCH  20  21
ENDBRANCH   1  20
TORSDOF 8
ENDMDL
MODEL 3
REMARK VINA RESULT:      -7.9      2.709      4.467
REMARK  Name = 
REMARK  12 active torsions:
REMARK  status: ('A' for Active; 'I' for Inactive)
REMARK    1  A    between atoms: C_1  and  O_2
REMARK    2  A    between atoms: O_2  and  C_3
REMARK    3  A    between atoms: C_5  and  C_6
REMARK    4  A    between atoms: C_6  and  C_7
REMARK    5  A    between atoms: C_7  and  N_8
REMARK    6  A    between atoms: C_12  and  C_13
REMARK    7  A    between atoms: C_18  and  S_19
REMARK    8  A    between atoms: S_19  and  N_22
REMARK    9  A    between atoms: N_22  and  C_23
REMARK   10  A    between atoms: N_22  and  C_24
REMARK   11  A    between atoms: C_28  and  O_29
REMARK   12  A    between atoms: O_29  and  C_30
REMARK                            x       y       z     vdW  Elec       q    Type
REMARK                         _______ _______ _______ _____ _____    ______ ____
ROOT
ATOM      1  N   UNL     1       1.714   8.097  20.118  0.00  0.00    +0.000 N 
ATOM      2  C   UNL     1       1.700   8.960  19.049  0.00  0.00    +0.000 A 
ATOM      3  N   UNL     1       1.994   8.648  17.831  0.00  0.00    +0.000 NA
ATOM      4  C   UNL     1       2.290   7.333  17.594  0.00  0.00    +0.000 A 
ATOM      5  C   UNL     1       2.325   6.371  18.525  0.00  0.00    +0.000 A 
ATOM      6  C   UNL     1       2.036   6.766  19.928  0.00  0.00    +0.000 A 
ATOM      7  O   UNL     1       2.092   5.935  20.834  0.00  0.00    +0.000 OA
ENDROOT
BRANCH   5   8
ATOM      8  C   UNL     1       2.590   4.967  18.172  0.00  0.00    +0.000 A 
ATOM      9  C   UNL     1       1.541   4.045  18.352  0.00  0.00    +0.000 A 
ATOM     10  C   UNL     1       1.719   2.690  18.070  0.00  0.00    +0.000 A 
ATOM     11  C   UNL     1       2.947   2.238  17.589  0.00  0.00    +0.000 A 
ATOM     12  C   UNL     1       3.996   3.137  17.393  0.00  0.00    +0.000 A 
ATOM     13  C   UNL     1       3.824   4.501  17.683  0.00  0.00    +0.000 A 
BRANCH  13  14
ATOM     14  S   UNL     1       5.276   5.535  17.545  0.00  0.00    +0.000 S 
ATOM     15  O   UNL     1       5.101   6.535  16.513  0.00  0.00    +0.000 OA
ATOM     16  O   UNL     1       5.617   5.923  18.899  0.00  0.00    +0.000 OA
BRANCH  14  17
ATOM     17  N   UNL     1       6.503   4.476  16.983  0.00  0.00    +0.000 NA
ATOM     18  C   UNL     1       6.828   4.614  15.542  0.00  0.00    +0.000 C 
ATOM     19  C   UNL     1       7.731   4.565  17.813  0.00  0.00    +0.000 C 
ENDBRANCH  14  17
ENDBRANCH  13  14
ENDBRANCH   5   8
BRANCH   1  20
ATOM     20  C   UNL     1       1.365   8.562  21.462  0.00  0.00    +0.000 C 
BRANCH  20  21
ATOM     21  C   UNL     1      -0.134   8.864  21.600  0.00  0.00    +0.000 C 
BRANCH  21  24
ATOM     22  C   UNL     1      -1.255  12.219  20.156  0.00  0.00    +0.000 A 
ATOM     23  C   UNL     1      -0.754  10.914  20.253  0.00  0.00    +0.000 A 
ATOM     24  C   UNL     1      -0.507  10.323  21.502  0.00  0.00    +0.000 A 
ATOM     25  C   UNL     1      -0.723  11.086  22.654  0.00  0.00    +0.000 A 
ATOM     26  C   UNL     1      -1.225  12.388  22.571  0.00  0.00    +0.000 A 
ATOM     27  C   UNL     1      -1.489  12.953  21.321  0.00  0.00    +0.000 A 
BRANCH  22  29
ATOM     28  C   UNL     1      -0.436  13.293  18.194  0.00  0.00    +0.000 C 
ATOM     29  O   UNL     1      -1.500  12.644  18.878  0.00  0.00    +0.000 OA
ENDBRANCH  22  29
BRANCH  26  30
ATOM     30  O   UNL     1      -1.437  12.989  23.785  0.00  0.00    +0.000 OA
ATOM     31  C   UNL     1      -1.234  14.395  23.852  0.00  0.00    +0.000 C 
ENDBRANCH  26  30
ENDBRANCH  21  24
ENDBRANCH  20  21
ENDBRANCH   1  20
TORSDOF 8
ENDMDL
MODEL 4
REMARK VINA RESULT:      -7.8      0.706      2.344
REMARK  Name = 
REMARK  12 active torsions:
REMARK  status: ('A' for Active; 'I' for Inactive)
REMARK    1  A    between atoms: C_1  and  O_2
REMARK    2  A    between atoms: O_2  and  C_3
REMARK    3  A    between atoms: C_5  and  C_6
REMARK    4  A    between atoms: C_6  and  C_7
REMARK    5  A    between atoms: C_7  and  N_8
REMARK    6  A    between atoms: C_12  and  C_13
REMARK    7  A    between atoms: C_18  and  S_19
REMARK    8  A    between atoms: S_19  and  N_22
REMARK    9  A    between atoms: N_22  and  C_23
REMARK   10  A    between atoms: N_22  and  C_24
REMARK   11  A    between atoms: C_28  and  O_29
REMARK   12  A    between atoms: O_29  and  C_30
REMARK                            x       y       z     vdW  Elec       q    Type
REMARK                         _______ _______ _______ _____ _____    ______ ____
ROOT
ATOM      1  N   UNL     1       1.608   8.663  19.049  0.00  0.00    +0.000 N 
ATOM      2  C   UNL     1       1.433   8.150  20.311  0.00  0.00    +0.000 A 
ATOM      3  N   UNL     1       1.930   7.038  20.742  0.00  0.00    +0.000 NA
ATOM      4  C   UNL     1       2.738   6.355  19.874  0.00  0.00    +0.000 A 
ATOM      5  C   UNL     1       3.019   6.735  18.622  0.00  0.00    +0.000 A 
ATOM      6  C   UNL     1       2.393   7.991  18.131  0.00  0.00    +0.000 A 
ATOM      7  O   UNL     1       2.581   8.371  16.976  0.00  0.00    +0.000 OA
ENDROOT
BRANCH   5   8
ATOM      8  C   UNL     1       3.951   5.973  17.777  0.00  0.00    +0.000 A 
ATOM      9  C   UNL     1       5.128   6.624  17.359  0.00  0.00    +0.000 A 
ATOM     10  C   UNL     1       6.050   5.981  16.531  0.00  0.00    +0.000 A 
ATOM     11  C   UNL     1       5.815   4.670  16.118  0.00  0.00    +0.000 A 
ATOM     12  C   UNL     1       4.659   4.004  16.529  0.00  0.00    +0.000 A 
ATOM     13  C   UNL     1       3.724   4.649  17.356  0.00  0.00    +0.000 A 
BRANCH  13  14
ATOM     14  S   UNL     1       2.211   3.761  17.693  0.00  0.00    +0.000 S 
ATOM     15  O   UNL     1       1.055   4.590  17.425  0.00  0.00    +0.000 OA
ATOM     16  O   UNL     1       2.357   2.470  17.051  0.00  0.00    +0.000 OA
BRANCH  14  17
ATOM     17  N   UNL     1       2.234   3.504  19.389  0.00  0.00    +0.000 NA
ATOM     18  C   UNL     1       0.944   3.047  19.964  0.00  0.00    +0.000 C 
ATOM     19  C   UNL     1       3.342   2.602  19.795  0.00  0.00    +0.000 C 
ENDBRANCH  14  17
ENDBRANCH  13  14
ENDBRANCH   5   8
BRANCH   1  20
ATOM     20  C   UNL     1       0.993   9.936  18.665  0.00  0.00    +0.000 C 
BRANCH  20  21
ATOM     21  C   UNL     1       0.138  10.531  19.792  0.00  0.00    +0.000 C 
BRANCH  21  24
ATOM     22  C   UNL     1      -3.144  10.979  17.888  0.00  0.00    +0.000 A 
ATOM     23  C   UNL     1      -1.836  10.594  18.210  0.00  0.00    +0.000 A 
ATOM     24  C   UNL     1      -1.200  11.081  19.362  0.00  0.00    +0.000 A 
ATOM     25  C   UNL     1      -1.883  12.004  20.161  0.00  0.00    +0.000 A 
ATOM     26  C   UNL     1      -3.190  12.394  19.850  0.00  0.00    +0.000 A 
ATOM     27  C   UNL     1      -3.818  11.881  18.713  0.00  0.00    +0.000 A 
BRANCH  22  29
ATOM     28  C   UNL     1      -2.724   9.861  15.826  0.00  0.00    +0.000 C 
ATOM     29  O   UNL     1      -3.655  10.382  16.766  0.00  0.00    +0.000 OA
ENDBRANCH  22  29
BRANCH  26  30
ATOM     30  O   UNL     1      -3.749  13.260  20.754  0.00  0.00    +0.000 OA
ATOM     31  C   UNL     1      -3.976  12.763  22.067  0.00  0.00    +0.000 C 
ENDBRANCH  26  30
ENDBRANCH  21  24
ENDBRANCH  20  21
ENDBRANCH   1  20
TORSDOF 8
ENDMDL
MODEL 5
REMARK VINA RESULT:      -7.8      2.566      3.899
REMARK  Name = 
REMARK  12 active torsions:
REMARK  status: ('A' for Active; 'I' for Inactive)
REMARK    1  A    between atoms: C_1  and  O_2
REMARK    2  A    between atoms: O_2  and  C_3
REMARK    3  A    between atoms: C_5  and  C_6
REMARK    4  A    between atoms: C_6  and  C_7
REMARK    5  A    between atoms: C_7  and  N_8
REMARK    6  A    between atoms: C_12  and  C_13
REMARK    7  A    between atoms: C_18  and  S_19
REMARK    8  A    between atoms: S_19  and  N_22
REMARK    9  A    between atoms: N_22  and  C_23
REMARK   10  A    between atoms: N_22  and  C_24
REMARK   11  A    between atoms: C_28  and  O_29
REMARK   12  A    between atoms: O_29  and  C_30
REMARK                            x       y       z     vdW  Elec       q    Type
REMARK                         _______ _______ _______ _____ _____    ______ ____
ROOT
ATOM      1  N   UNL     1       1.765   8.263  19.933  0.00  0.00    +0.000 N 
ATOM      2  C   UNL     1       1.747   9.093  18.838  0.00  0.00    +0.000 A 
ATOM      3  N   UNL     1       2.023   8.738  17.627  0.00  0.00    +0.000 NA
ATOM      4  C   UNL     1       2.303   7.414  17.428  0.00  0.00    +0.000 A 
ATOM      5  C   UNL     1       2.341   6.482  18.389  0.00  0.00    +0.000 A 
ATOM      6  C   UNL     1       2.071   6.924  19.782  0.00  0.00    +0.000 A 
ATOM      7  O   UNL     1       2.131   6.122  20.713  0.00  0.00    +0.000 OA
ENDROOT
BRANCH   5   8
ATOM      8  C   UNL     1       2.588   5.065  18.077  0.00  0.00    +0.000 A 
ATOM      9  C   UNL     1       1.540   4.156  18.321  0.00  0.00    +0.000 A 
ATOM     10  C   UNL     1       1.703   2.791  18.081  0.00  0.00    +0.000 A 
ATOM     11  C   UNL     1       2.914   2.315  17.580  0.00  0.00    +0.000 A 
ATOM     12  C   UNL     1       3.962   3.201  17.323  0.00  0.00    +0.000 A 
ATOM     13  C   UNL     1       3.805   4.575  17.570  0.00  0.00    +0.000 A 
BRANCH  13  14
ATOM     14  S   UNL     1       5.257   5.594  17.354  0.00  0.00    +0.000 S 
ATOM     15  O   UNL     1       5.075   6.527  16.263  0.00  0.00    +0.000 OA
ATOM     16  O   UNL     1       5.612   6.066  18.678  0.00  0.00    +0.000 OA
BRANCH  14  17
ATOM     17  N   UNL     1       6.477   4.499  16.849  0.00  0.00    +0.000 NA
ATOM     18  C   UNL     1       6.862   4.616  15.420  0.00  0.00    +0.000 C 
ATOM     19  C   UNL     1       7.674   4.564  17.726  0.00  0.00    +0.000 C 
ENDBRANCH  14  17
ENDBRANCH  13  14
ENDBRANCH   5   8
BRANCH   1  20
ATOM     20  C   UNL     1       1.436   8.774  21.266  0.00  0.00    +0.000 C 
BRANCH  20  21
ATOM     21  C   UNL     1      -0.079   8.843  21.503  0.00  0.00    +0.000 C 
BRANCH  21  24
ATOM     22  C   UNL     1      -1.166  12.380  22.456  0.00  0.00    +0.000 A 
ATOM     23  C   UNL     1      -0.759  11.043  22.553  0.00  0.00    +0.000 A 
ATOM     24  C   UNL     1      -0.681  10.225  21.416  0.00  0.00    +0.000 A 
ATOM     25  C   UNL     1      -1.069  10.759  20.183  0.00  0.00    +0.000 A 
ATOM     26  C   UNL     1      -1.475  12.093  20.073  0.00  0.00    +0.000 A 
ATOM     27  C   UNL     1      -1.524  12.901  21.211  0.00  0.00    +0.000 A 
BRANCH  22  29
ATOM     28  C   UNL     1      -1.065  14.490  23.558  0.00  0.00    +0.000 C 
ATOM     29  O   UNL     1      -1.141  13.072  23.638  0.00  0.00    +0.000 OA
ENDBRANCH  22  29
BRANCH  26  30
ATOM     30  O   UNL     1      -1.771  12.488  18.794  0.00  0.00    +0.000 OA
ATOM     31  C   UNL     1      -1.638  11.510  17.771  0.00  0.00    +0.000 C 
ENDBRANCH  26  30
ENDBRANCH  21  24
ENDBRANCH  20  21
ENDBRANCH   1  20
TORSDOF 8
ENDMDL
MODEL 6
REMARK VINA RESULT:      -7.8      3.410      4.667
REMARK  Name = 
REMARK  12 active torsions:
REMARK  status: ('A' for Active; 'I' for Inactive)
REMARK    1  A    between atoms: C_1  and  O_2
REMARK    2  A    between atoms: O_2  and  C_3
REMARK    3  A    between atoms: C_5  and  C_6
REMARK    4  A    between atoms: C_6  and  C_7
REMARK    5  A    between atoms: C_7  and  N_8
REMARK    6  A    between atoms: C_12  and  C_13
REMARK    7  A    between atoms: C_18  and  S_19
REMARK    8  A    between atoms: S_19  and  N_22
REMARK    9  A    between atoms: N_22  and  C_23
REMARK   10  A    between atoms: N_22  and  C_24
REMARK   11  A    between atoms: C_28  and  O_29
REMARK   12  A    between atoms: O_29  and  C_30
REMARK                            x       y       z     vdW  Elec       q    Type
REMARK                         _______ _______ _______ _____ _____    ______ ____
ROOT
ATOM      1  N   UNL     1       1.796   7.896  20.212  0.00  0.00    +0.000 N 
ATOM      2  C   UNL     1       1.834   8.717  19.111  0.00  0.00    +0.000 A 
ATOM      3  N   UNL     1       2.153   8.348  17.915  0.00  0.00    +0.000 NA
ATOM      4  C   UNL     1       2.419   7.018  17.737  0.00  0.00    +0.000 A 
ATOM      5  C   UNL     1       2.404   6.094  18.706  0.00  0.00    +0.000 A 
ATOM      6  C   UNL     1       2.087   6.551  20.084  0.00  0.00    +0.000 A 
ATOM      7  O   UNL     1       2.096   5.756  21.022  0.00  0.00    +0.000 OA
ENDROOT
BRANCH   5   8
ATOM      8  C   UNL     1       2.640   4.671  18.415  0.00  0.00    +0.000 A 
ATOM      9  C   UNL     1       1.511   3.835  18.306  0.00  0.00    +0.000 A 
ATOM     10  C   UNL     1       1.650   2.469  18.062  0.00  0.00    +0.000 A 
ATOM     11  C   UNL     1       2.922   1.917  17.910  0.00  0.00    +0.000 A 
ATOM     12  C   UNL     1       4.053   2.729  18.005  0.00  0.00    +0.000 A 
ATOM     13  C   UNL     1       3.919   4.105  18.257  0.00  0.00    +0.000 A 
BRANCH  13  14
ATOM     14  S   UNL     1       5.433   5.019  18.513  0.00  0.00    +0.000 S 
ATOM     15  O   UNL     1       5.372   5.786  19.739  0.00  0.00    +0.000 OA
ATOM     16  O   UNL     1       6.510   4.076  18.285  0.00  0.00    +0.000 OA
BRANCH  14  17
ATOM     17  N   UNL     1       5.464   6.162  17.234  0.00  0.00    +0.000 NA
ATOM     18  C   UNL     1       6.607   7.108  17.276  0.00  0.00    +0.000 C 
ATOM     19  C   UNL     1       5.369   5.505  15.905  0.00  0.00    +0.000 C 
ENDBRANCH  14  17
ENDBRANCH  13  14
ENDBRANCH   5   8
BRANCH   1  20
ATOM     20  C   UNL     1       1.423   8.423  21.527  0.00  0.00    +0.000 C 
BRANCH  20  21
ATOM     21  C   UNL     1      -0.047   8.862  21.581  0.00  0.00    +0.000 C 
BRANCH  21  24
ATOM     22  C   UNL     1       0.147  12.675  21.436  0.00  0.00    +0.000 A 
ATOM     23  C   UNL     1       0.455  11.320  21.255  0.00  0.00    +0.000 A 
ATOM     24  C   UNL     1      -0.272  10.317  21.913  0.00  0.00    +0.000 A 
ATOM     25  C   UNL     1      -1.285  10.700  22.799  0.00  0.00    +0.000 A 
ATOM     26  C   UNL     1      -1.603  12.049  22.986  0.00  0.00    +0.000 A 
ATOM     27  C   UNL     1      -0.886  13.034  22.305  0.00  0.00    +0.000 A 
BRANCH  22  29
ATOM     28  C   UNL     1       1.870  12.966  19.818  0.00  0.00    +0.000 C 
ATOM     29  O   UNL     1       0.902  13.538  20.688  0.00  0.00    +0.000 OA
ENDBRANCH  22  29
BRANCH  26  30
ATOM     30  O   UNL     1      -2.654  12.266  23.841  0.00  0.00    +0.000 OA
ATOM     31  C   UNL     1      -3.807  12.894  23.297  0.00  0.00    +0.000 C 
ENDBRANCH  26  30
ENDBRANCH  21  24
ENDBRANCH  20  21
ENDBRANCH   1  20
TORSDOF 8
ENDMDL
MODEL 7
REMARK VINA RESULT:      -7.7      3.378      4.675
REMARK  Name = 
REMARK  12 active torsions:
REMARK  status: ('A' for Active; 'I' for Inactive)
REMARK    1  A    between atoms: C_1  and  O_2
REMARK    2  A    between atoms: O_2  and  C_3
REMARK    3  A    between atoms: C_5  and  C_6
REMARK    4  A    between atoms: C_6  and  C_7
REMARK    5  A    between atoms: C_7  and  N_8
REMARK    6  A    between atoms: C_12  and  C_13
REMARK    7  A    between atoms: C_18  and  S_19
REMARK    8  A    between atoms: S_19  and  N_22
REMARK    9  A    between atoms: N_22  and  C_23
REMARK   10  A    between atoms: N_22  and  C_24
REMARK   11  A    between atoms: C_28  and  O_29
REMARK   12  A    between atoms: O_29  and  C_30
REMARK                            x       y       z     vdW  Elec       q    Type
REMARK                         _______ _______ _______ _____ _____    ______ ____
ROOT
ATOM      1  N   UNL     1       1.691   8.089  20.169  0.00  0.00    +0.000 N 
ATOM      2  C   UNL     1       1.655   8.944  19.094  0.00  0.00    +0.000 A 
ATOM      3  N   UNL     1       1.934   8.625  17.874  0.00  0.00    +0.000 NA
ATOM      4  C   UNL     1       2.236   7.311  17.642  0.00  0.00    +0.000 A 
ATOM      5  C   UNL     1       2.294   6.356  18.579  0.00  0.00    +0.000 A 
ATOM      6  C   UNL     1       2.021   6.759  19.984  0.00  0.00    +0.000 A 
ATOM      7  O   UNL     1       2.097   5.935  20.894  0.00  0.00    +0.000 OA
ENDROOT
BRANCH   5   8
ATOM      8  C   UNL     1       2.564   4.952  18.232  0.00  0.00    +0.000 A 
ATOM      9  C   UNL     1       1.517   4.027  18.410  0.00  0.00    +0.000 A 
ATOM     10  C   UNL     1       1.701   2.672  18.133  0.00  0.00    +0.000 A 
ATOM     11  C   UNL     1       2.933   2.222  17.661  0.00  0.00    +0.000 A 
ATOM     12  C   UNL     1       3.981   3.124  17.469  0.00  0.00    +0.000 A 
ATOM     13  C   UNL     1       3.803   4.488  17.753  0.00  0.00    +0.000 A 
BRANCH  13  14
ATOM     14  S   UNL     1       5.252   5.525  17.621  0.00  0.00    +0.000 S 
ATOM     15  O   UNL     1       5.068   6.544  16.610  0.00  0.00    +0.000 OA
ATOM     16  O   UNL     1       5.606   5.888  18.979  0.00  0.00    +0.000 OA
BRANCH  14  17
ATOM     17  N   UNL     1       6.475   4.478  17.028  0.00  0.00    +0.000 NA
ATOM     18  C   UNL     1       6.764   4.621  15.579  0.00  0.00    +0.000 C 
ATOM     19  C   UNL     1       7.723   4.578  17.828  0.00  0.00    +0.000 C 
ENDBRANCH  14  17
ENDBRANCH  13  14
ENDBRANCH   5   8
BRANCH   1  20
ATOM     20  C   UNL     1       1.358   8.560  21.515  0.00  0.00    +0.000 C 
BRANCH  20  21
ATOM     21  C   UNL     1      -0.099   9.032  21.620  0.00  0.00    +0.000 C 
BRANCH  21  24
ATOM     22  C   UNL     1       0.209  12.835  21.431  0.00  0.00    +0.000 A 
ATOM     23  C   UNL     1       0.476  11.470  21.266  0.00  0.00    +0.000 A 
ATOM     24  C   UNL     1      -0.280  10.497  21.936  0.00  0.00    +0.000 A 
ATOM     25  C   UNL     1      -1.278  10.920  22.819  0.00  0.00    +0.000 A 
ATOM     26  C   UNL     1      -1.556  12.280  22.992  0.00  0.00    +0.000 A 
ATOM     27  C   UNL     1      -0.811  13.235  22.298  0.00  0.00    +0.000 A 
BRANCH  22  29
ATOM     28  C   UNL     1       0.945  15.055  20.979  0.00  0.00    +0.000 C 
ATOM     29  O   UNL     1       0.988  13.667  20.672  0.00  0.00    +0.000 OA
ENDBRANCH  22  29
BRANCH  26  30
ATOM     30  O   UNL     1      -2.597  12.538  23.846  0.00  0.00    +0.000 OA
ATOM     31  C   UNL     1      -3.373  13.700  23.583  0.00  0.00    +0.000 C 
ENDBRANCH  26  30
ENDBRANCH  21  24
ENDBRANCH  20  21
ENDBRANCH   1  20
TORSDOF 8
ENDMDL
MODEL 8
REMARK VINA RESULT:      -7.7      1.776      2.840
REMARK  Name = 
REMARK  12 active torsions:
REMARK  status: ('A' for Active; 'I' for Inactive)
REMARK    1  A    between atoms: C_1  and  O_2
REMARK    2  A    between atoms: O_2  and  C_3
REMARK    3  A    between atoms: C_5  and  C_6
REMARK    4  A    between atoms: C_6  and  C_7
REMARK    5  A    between atoms: C_7  and  N_8
REMARK    6  A    between atoms: C_12  and  C_13
REMARK    7  A    between atoms: C_18  and  S_19
REMARK    8  A    between atoms: S_19  and  N_22
REMARK    9  A    between atoms: N_22  and  C_23
REMARK   10  A    between atoms: N_22  and  C_24
REMARK   11  A    between atoms: C_28  and  O_29
REMARK   12  A    between atoms: O_29  and  C_30
REMARK                            x       y       z     vdW  Elec       q    Type
REMARK                         _______ _______ _______ _____ _____    ______ ____
ROOT
ATOM      1  N   UNL     1       1.733   8.393  19.078  0.00  0.00    +0.000 N 
ATOM      2  C   UNL     1       1.683   8.409  20.451  0.00  0.00    +0.000 A 
ATOM      3  N   UNL     1       1.802   7.375  21.216  0.00  0.00    +0.000 NA
ATOM      4  C   UNL     1       2.050   6.182  20.594  0.00  0.00    +0.000 A 
ATOM      5  C   UNL     1       2.145   6.009  19.269  0.00  0.00    +0.000 A 
ATOM      6  C   UNL     1       1.952   7.205  18.408  0.00  0.00    +0.000 A 
ATOM      7  O   UNL     1       1.988   7.102  17.182  0.00  0.00    +0.000 OA
ENDROOT
BRANCH   5   8
ATOM      8  C   UNL     1       2.478   4.700  18.686  0.00  0.00    +0.000 A 
ATOM      9  C   UNL     1       1.462   3.725  18.659  0.00  0.00    +0.000 A 
ATOM     10  C   UNL     1       1.705   2.449  18.150  0.00  0.00    +0.000 A 
ATOM     11  C   UNL     1       2.966   2.131  17.647  0.00  0.00    +0.000 A 
ATOM     12  C   UNL     1       3.984   3.086  17.656  0.00  0.00    +0.000 A 
ATOM     13  C   UNL     1       3.747   4.370  18.174  0.00  0.00    +0.000 A 
BRANCH  13  14
ATOM     14  S   UNL     1       5.159   5.461  18.279  0.00  0.00    +0.000 S 
ATOM     15  O   UNL     1       4.909   6.698  17.572  0.00  0.00    +0.000 OA
ATOM     16  O   UNL     1       5.547   5.474  19.675  0.00  0.00    +0.000 OA
BRANCH  14  17
ATOM     17  N   UNL     1       6.392   4.650  17.404  0.00  0.00    +0.000 NA
ATOM     18  C   UNL     1       6.524   5.070  15.987  0.00  0.00    +0.000 C 
ATOM     19  C   UNL     1       7.701   4.721  18.102  0.00  0.00    +0.000 C 
ENDBRANCH  14  17
ENDBRANCH  13  14
ENDBRANCH   5   8
BRANCH   1  20
ATOM     20  C   UNL     1       1.582   9.630  18.308  0.00  0.00    +0.000 C 
BRANCH  20  21
ATOM     21  C   UNL     1       0.709  10.663  19.034  0.00  0.00    +0.000 C 
BRANCH  21  24
ATOM     22  C   UNL     1      -2.978  11.643  18.824  0.00  0.00    +0.000 A 
ATOM     23  C   UNL     1      -1.673  11.476  19.303  0.00  0.00    +0.000 A 
ATOM     24  C   UNL     1      -0.738  10.696  18.604  0.00  0.00    +0.000 A 
ATOM     25  C   UNL     1      -1.154  10.042  17.440  0.00  0.00    +0.000 A 
ATOM     26  C   UNL     1      -2.454  10.203  16.951  0.00  0.00    +0.000 A 
ATOM     27  C   UNL     1      -3.365  11.003  17.645  0.00  0.00    +0.000 A 
BRANCH  22  29
ATOM     28  C   UNL     1      -5.167  12.415  19.364  0.00  0.00    +0.000 C 
ATOM     29  O   UNL     1      -3.762  12.475  19.579  0.00  0.00    +0.000 OA
ENDBRANCH  22  29
BRANCH  26  30
ATOM     30  O   UNL     1      -2.698   9.547  15.772  0.00  0.00    +0.000 OA
ATOM     31  C   UNL     1      -3.335  10.289  14.740  0.00  0.00    +0.000 C 
ENDBRANCH  26  30
ENDBRANCH  21  24
ENDBRANCH  20  21
ENDBRANCH   1  20
TORSDOF 8
ENDMDL
MODEL 9
REMARK VINA RESULT:      -7.7      2.484      3.731
REMARK  Name = 
REMARK  12 active torsions:
REMARK  status: ('A' for Active; 'I' for Inactive)
REMARK    1  A    between atoms: C_1  and  O_2
REMARK    2  A    between atoms: O_2  and  C_3
REMARK    3  A    between atoms: C_5  and  C_6
REMARK    4  A    between atoms: C_6  and  C_7
REMARK    5  A    between atoms: C_7  and  N_8
REMARK    6  A    between atoms: C_12  and  C_13
REMARK    7  A    between atoms: C_18  and  S_19
REMARK    8  A    between atoms: S_19  and  N_22
REMARK    9  A    between atoms: N_22  and  C_23
REMARK   10  A    between atoms: N_22  and  C_24
REMARK   11  A    between atoms: C_28  and  O_29
REMARK   12  A    between atoms: O_29  and  C_30
REMARK                            x       y       z     vdW  Elec       q    Type
REMARK                         _______ _______ _______ _____ _____    ______ ____
ROOT
ATOM      1  N   UNL     1       1.814   8.215  19.762  0.00  0.00    +0.000 N 
ATOM      2  C   UNL     1       2.038   8.959  18.629  0.00  0.00    +0.000 A 
ATOM      3  N   UNL     1       2.479   8.497  17.506  0.00  0.00    +0.000 NA
ATOM      4  C   UNL     1       2.686   7.146  17.442  0.00  0.00    +0.000 A 
ATOM      5  C   UNL     1       2.496   6.289  18.453  0.00  0.00    +0.000 A 
ATOM      6  C   UNL     1       2.038   6.851  19.750  0.00  0.00    +0.000 A 
ATOM      7  O   UNL     1       1.884   6.119  20.727  0.00  0.00    +0.000 OA
ENDROOT
BRANCH   5   8
ATOM      8  C   UNL     1       2.682   4.839  18.278  0.00  0.00    +0.000 A 
ATOM      9  C   UNL     1       1.523   4.051  18.130  0.00  0.00    +0.000 A 
ATOM     10  C   UNL     1       1.611   2.666  17.990  0.00  0.00    +0.000 A 
ATOM     11  C   UNL     1       2.861   2.047  17.982  0.00  0.00    +0.000 A 
ATOM     12  C   UNL     1       4.021   2.811  18.118  0.00  0.00    +0.000 A 
ATOM     13  C   UNL     1       3.938   4.206  18.267  0.00  0.00    +0.000 A 
BRANCH  13  14
ATOM     14  S   UNL     1       5.471   5.066  18.588  0.00  0.00    +0.000 S 
ATOM     15  O   UNL     1       5.345   5.934  19.739  0.00  0.00    +0.000 OA
ATOM     16  O   UNL     1       6.510   4.057  18.535  0.00  0.00    +0.000 OA
BRANCH  14  17
ATOM     17  N   UNL     1       5.677   6.096  17.231  0.00  0.00    +0.000 NA
ATOM     18  C   UNL     1       6.892   6.945  17.277  0.00  0.00    +0.000 C 
ATOM     19  C   UNL     1       5.605   5.344  15.952  0.00  0.00    +0.000 C 
ENDBRANCH  14  17
ENDBRANCH  13  14
ENDBRANCH   5   8
BRANCH   1  20
ATOM     20  C   UNL     1       1.313   8.845  20.986  0.00  0.00    +0.000 C 
BRANCH  20  21
ATOM     21  C   UNL     1      -0.171   9.221  20.879  0.00  0.00    +0.000 C 
BRANCH  21  24
ATOM     22  C   UNL     1       0.079  12.813  19.600  0.00  0.00    +0.000 A 
ATOM     23  C   UNL     1       0.218  11.676  20.408  0.00  0.00    +0.000 A 
ATOM     24  C   UNL     1      -0.460  10.485  20.107  0.00  0.00    +0.000 A 
ATOM     25  C   UNL     1      -1.323  10.470  19.006  0.00  0.00    +0.000 A 
ATOM     26  C   UNL     1      -1.469  11.597  18.191  0.00  0.00    +0.000 A 
ATOM     27  C   UNL     1      -0.768  12.767  18.490  0.00  0.00    +0.000 A 
BRANCH  22  29
ATOM     28  C   UNL     1       1.291  14.760  18.956  0.00  0.00    +0.000 C 
ATOM     29  O   UNL     1       0.842  13.883  19.982  0.00  0.00    +0.000 OA
ENDBRANCH  22  29
BRANCH  26  30
ATOM     30  O   UNL     1      -2.305  11.413  17.120  0.00  0.00    +0.000 OA
ATOM     31  C   UNL     1      -2.348  10.110  16.553  0.00  0.00    +0.000 C 
ENDBRANCH  26  30
ENDBRANCH  21  24
ENDBRANCH  20  21
ENDBRANCH   1  20
TORSDOF 8
ENDMDL
