MODEL 1
REMARK VINA RESULT:      -7.7      0.000      0.000
REMARK  Name = 
REMARK  5 active torsions:
REMARK  status: ('A' for Active; 'I' for Inactive)
REMARK    1  A    between atoms: C_2  and  C_17
REMARK    2  A    between atoms: N_3  and  C_4
REMARK    3  A    between atoms: C_4  and  C_5
REMARK    4  A    between atoms: C_5  and  C_6
REMARK    5  A    between atoms: C_9  and  C_10
REMARK                            x       y       z     vdW  Elec       q    Type
REMARK                         _______ _______ _______ _____ _____    ______ ____
ROOT
ATOM      1  C   UNL     1       7.695   6.131  18.643  0.00  0.00    +0.000 C 
ENDROOT
BRANCH   1   2
ATOM      2  C   UNL     1       6.513   5.365  18.140  0.00  0.00    +0.000 A 
ATOM      3  C   UNL     1       6.367   4.816  16.883  0.00  0.00    +0.000 A 
ATOM      4  S   UNL     1       4.879   3.991  16.765  0.00  0.00    +0.000 S 
ATOM      5  C   UNL     1       4.503   4.445  18.384  0.00  0.00    +0.000 A 
ATOM      6  N   UNL     1       5.428   5.173  18.981  0.00  0.00    +0.000 NA
BRANCH   5   7
ATOM      7  C   UNL     1       3.210   4.092  18.982  0.00  0.00    +0.000 A 
ATOM      8  C   UNL     1       2.768   4.657  20.188  0.00  0.00    +0.000 A 
ATOM      9  C   UNL     1       1.543   4.282  20.742  0.00  0.00    +0.000 A 
ATOM     10  C   UNL     1       0.743   3.344  20.092  0.00  0.00    +0.000 A 
ATOM     11  C   UNL     1       1.163   2.782  18.888  0.00  0.00    +0.000 A 
ATOM     12  C   UNL     1       2.387   3.159  18.334  0.00  0.00    +0.000 A 
ENDBRANCH   5   7
ENDBRANCH   1   2
BRANCH   1  13
ATOM     13  C   UNL     1       7.811   7.521  18.013  0.00  0.00    +0.000 C 
BRANCH  13  16
ATOM     14  O   UNL     1       8.031  10.276  17.666  0.00  0.00    +0.000 OA
ATOM     15  C   UNL     1       8.759   9.749  18.490  0.00  0.00    +0.000 C 
ATOM     16  N   UNL     1       8.716   8.392  18.752  0.00  0.00    +0.000 N 
ATOM     17  H   UNL     1       9.306   7.978  19.462  0.00  0.00    +0.000 HD
BRANCH  15  18
ATOM     18  C   UNL     1       9.811  10.531  19.280  0.00  0.00    +0.000 C 
ATOM     19  C   UNL     1       9.184  11.309  20.431  0.00  0.00    +0.000 C 
ATOM     20  C   UNL     1      10.238  12.142  21.148  0.00  0.00    +0.000 C 
ATOM     21  O   UNL     1      10.912  13.004  20.234  0.00  0.00    +0.000 OA
ATOM     22  C   UNL     1      11.617  12.278  19.229  0.00  0.00    +0.000 C 
ATOM     23  C   UNL     1      10.641  11.469  18.383  0.00  0.00    +0.000 C 
ENDBRANCH  15  18
ENDBRANCH  13  16
ENDBRANCH   1  13
TORSDOF 5
ENDMDL
MODEL 2
REMARK VINA RESULT:      -7.7      0.420      1.008
REMARK  Name = 
REMARK  5 active torsions:
REMARK  status: ('A' for Active; 'I' for Inactive)
REMARK    1  A    between atoms: C_2  and  C_17
REMARK    2  A    between atoms: N_3  and  C_4
REMARK    3  A    between atoms: C_4  and  C_5
REMARK    4  A    between atoms: C_5  and  C_6
REMARK    5  A    between atoms: C_9  and  C_10
REMARK                            x       y       z     vdW  Elec       q    Type
REMARK                         _______ _______ _______ _____ _____    ______ ____
ROOT
ATOM      1  C   UNL     1       7.743   6.174  18.685  0.00  0.00    +0.000 C 
ENDROOT
BRANCH   1   2
ATOM      2  C   UNL     1       6.537   5.406  18.246  0.00  0.00    +0.000 A 
ATOM      3  C   UNL     1       6.300   4.905  16.983  0.00  0.00    +0.000 A 
ATOM      4  S   UNL     1       4.820   4.058  16.949  0.00  0.00    +0.000 S 
ATOM      5  C   UNL     1       4.567   4.439  18.610  0.00  0.00    +0.000 A 
ATOM      6  N   UNL     1       5.526   5.160  19.162  0.00  0.00    +0.000 NA
BRANCH   5   7
ATOM      7  C   UNL     1       3.332   4.038  19.294  0.00  0.00    +0.000 A 
ATOM      8  C   UNL     1       2.871   2.713  19.281  0.00  0.00    +0.000 A 
ATOM      9  C   UNL     1       1.680   2.369  19.922  0.00  0.00    +0.000 A 
ATOM     10  C   UNL     1       0.940   3.345  20.588  0.00  0.00    +0.000 A 
ATOM     11  C   UNL     1       1.391   4.663  20.619  0.00  0.00    +0.000 A 
ATOM     12  C   UNL     1       2.582   5.005  19.980  0.00  0.00    +0.000 A 
ENDBRANCH   5   7
ENDBRANCH   1   2
BRANCH   1  13
ATOM     13  C   UNL     1       7.821   7.566  18.054  0.00  0.00    +0.000 C 
BRANCH  13  16
ATOM     14  O   UNL     1       8.012  10.321  17.688  0.00  0.00    +0.000 OA
ATOM     15  C   UNL     1       8.768   9.803  18.492  0.00  0.00    +0.000 C 
ATOM     16  N   UNL     1       8.742   8.446  18.762  0.00  0.00    +0.000 N 
ATOM     17  H   UNL     1       9.356   8.039  19.454  0.00  0.00    +0.000 HD
BRANCH  15  18
ATOM     18  C   UNL     1       9.838  10.594  19.247  0.00  0.00    +0.000 C 
ATOM     19  C   UNL     1       9.241  11.372  20.414  0.00  0.00    +0.000 C 
ATOM     20  C   UNL     1      10.311  12.215  21.094  0.00  0.00    +0.000 C 
ATOM     21  O   UNL     1      10.950  13.079  20.157  0.00  0.00    +0.000 OA
ATOM     22  C   UNL     1      11.628  12.355  19.133  0.00  0.00    +0.000 C 
ATOM     23  C   UNL     1      10.633  11.536  18.321  0.00  0.00    +0.000 C 
ENDBRANCH  15  18
ENDBRANCH  13  16
ENDBRANCH   1  13
TORSDOF 5
ENDMDL
MODEL 3
REMARK VINA RESULT:      -7.7      5.267      8.432
REMARK  Name = 
REMARK  5 active torsions:
REMARK  status: ('A' for Active; 'I' for Inactive)
REMARK    1  A    between atoms: C_2  and  C_17
REMARK    2  A    between atoms: N_3  and  C_4
REMARK    3  A    between atoms: C_4  and  C_5
REMARK    4  A    between atoms: C_5  and  C_6
REMARK    5  A    between atoms: C_9  and  C_10
REMARK                            x       y       z     vdW  Elec       q    Type
REMARK                         _______ _______ _______ _____ _____    ______ ____
ROOT
ATOM      1  C   UNL     1       3.828   7.521  17.674  0.00  0.00    +0.000 C 
ENDROOT
BRANCH   1   2
ATOM      2  C   UNL     1       4.920   6.612  17.207  0.00  0.00    +0.000 A 
ATOM      3  C   UNL     1       5.953   6.113  17.972  0.00  0.00    +0.000 A 
ATOM      4  S   UNL     1       6.937   5.080  17.038  0.00  0.00    +0.000 S 
ATOM      5  C   UNL     1       5.949   5.388  15.661  0.00  0.00    +0.000 A 
ATOM      6  N   UNL     1       4.944   6.216  15.879  0.00  0.00    +0.000 NA
BRANCH   5   7
ATOM      7  C   UNL     1       6.283   4.814  14.353  0.00  0.00    +0.000 A 
ATOM      8  C   UNL     1       7.461   5.154  13.669  0.00  0.00    +0.000 A 
ATOM      9  C   UNL     1       7.738   4.607  12.415  0.00  0.00    +0.000 A 
ATOM     10  C   UNL     1       6.844   3.709  11.834  0.00  0.00    +0.000 A 
ATOM     11  C   UNL     1       5.675   3.354  12.505  0.00  0.00    +0.000 A 
ATOM     12  C   UNL     1       5.400   3.900  13.759  0.00  0.00    +0.000 A 
ENDBRANCH   5   7
ENDBRANCH   1   2
BRANCH   1  13
ATOM     13  C   UNL     1       2.482   6.807  17.813  0.00  0.00    +0.000 C 
BRANCH  13  16
ATOM     14  O   UNL     1       1.379   4.299  17.311  0.00  0.00    +0.000 OA
ATOM     15  C   UNL     1       1.952   4.463  18.374  0.00  0.00    +0.000 C 
ATOM     16  N   UNL     1       2.550   5.663  18.713  0.00  0.00    +0.000 N 
ATOM     17  H   UNL     1       3.048   5.771  19.587  0.00  0.00    +0.000 HD
BRANCH  15  18
ATOM     18  C   UNL     1       2.030   3.373  19.446  0.00  0.00    +0.000 C 
ATOM     19  C   UNL     1       1.190   3.728  20.668  0.00  0.00    +0.000 C 
ATOM     20  C   UNL     1       1.353   2.669  21.750  0.00  0.00    +0.000 C 
ATOM     21  O   UNL     1       2.726   2.493  22.088  0.00  0.00    +0.000 OA
ATOM     22  C   UNL     1       3.498   2.030  20.982  0.00  0.00    +0.000 C 
ATOM     23  C   UNL     1       3.481   3.061  19.861  0.00  0.00    +0.000 C 
ENDBRANCH  15  18
ENDBRANCH  13  16
ENDBRANCH   1  13
TORSDOF 5
ENDMDL
MODEL 4
REMARK VINA RESULT:      -7.6      1.104      1.242
REMARK  Name = 
REMARK  5 active torsions:
REMARK  status: ('A' for Active; 'I' for Inactive)
REMARK    1  A    between atoms: C_2  and  C_17
REMARK    2  A    between atoms: N_3  and  C_4
REMARK    3  A    between atoms: C_4  and  C_5
REMARK    4  A    between atoms: C_5  and  C_6
REMARK    5  A    between atoms: C_9  and  C_10
REMARK                            x       y       z     vdW  Elec       q    Type
REMARK                         _______ _______ _______ _____ _____    ______ ____
ROOT
ATOM      1  C   UNL     1       7.840   6.461  18.505  0.00  0.00    +0.000 C 
ENDROOT
BRANCH   1   2
ATOM      2  C   UNL     1       6.838   5.664  17.733  0.00  0.00    +0.000 A 
ATOM      3  C   UNL     1       6.877   5.386  16.382  0.00  0.00    +0.000 A 
ATOM      4  S   UNL     1       5.553   4.406  15.940  0.00  0.00    +0.000 S 
ATOM      5  C   UNL     1       4.988   4.440  17.567  0.00  0.00    +0.000 A 
ATOM      6  N   UNL     1       5.737   5.143  18.396  0.00  0.00    +0.000 NA
BRANCH   5   7
ATOM      7  C   UNL     1       3.727   3.787  17.939  0.00  0.00    +0.000 A 
ATOM      8  C   UNL     1       3.691   2.501  18.499  0.00  0.00    +0.000 A 
ATOM      9  C   UNL     1       2.473   1.900  18.820  0.00  0.00    +0.000 A 
ATOM     10  C   UNL     1       1.278   2.580  18.590  0.00  0.00    +0.000 A 
ATOM     11  C   UNL     1       1.299   3.862  18.044  0.00  0.00    +0.000 A 
ATOM     12  C   UNL     1       2.516   4.463  17.726  0.00  0.00    +0.000 A 
ENDBRANCH   5   7
ENDBRANCH   1   2
BRANCH   1  13
ATOM     13  C   UNL     1       8.004   7.885  17.969  0.00  0.00    +0.000 C 
BRANCH  13  16
ATOM     14  O   UNL     1       8.240  10.655  17.795  0.00  0.00    +0.000 OA
ATOM     15  C   UNL     1       8.889  10.084  18.656  0.00  0.00    +0.000 C 
ATOM     16  N   UNL     1       8.829   8.715  18.838  0.00  0.00    +0.000 N 
ATOM     17  H   UNL     1       9.351   8.262  19.577  0.00  0.00    +0.000 HD
BRANCH  15  18
ATOM     18  C   UNL     1       9.855  10.822  19.585  0.00  0.00    +0.000 C 
ATOM     19  C   UNL     1       9.168  11.974  20.309  0.00  0.00    +0.000 C 
ATOM     20  C   UNL     1      10.170  12.741  21.161  0.00  0.00    +0.000 C 
ATOM     21  O   UNL     1      11.267  13.194  20.371  0.00  0.00    +0.000 OA
ATOM     22  C   UNL     1      12.001  12.113  19.798  0.00  0.00    +0.000 C 
ATOM     23  C   UNL     1      11.112  11.321  18.847  0.00  0.00    +0.000 C 
ENDBRANCH  15  18
ENDBRANCH  13  16
ENDBRANCH   1  13
TORSDOF 5
ENDMDL
MODEL 5
REMARK VINA RESULT:      -7.2      6.301      8.228
REMARK  Name = 
REMARK  5 active torsions:
REMARK  status: ('A' for Active; 'I' for Inactive)
REMARK    1  A    between atoms: C_2  and  C_17
REMARK    2  A    between atoms: N_3  and  C_4
REMARK    3  A    between atoms: C_4  and  C_5
REMARK    4  A    between atoms: C_5  and  C_6
REMARK    5  A    between atoms: C_9  and  C_10
REMARK                            x       y       z     vdW  Elec       q    Type
REMARK                         _______ _______ _______ _____ _____    ______ ____
ROOT
ATOM      1  C   UNL     1       2.334   8.625  18.039  0.00  0.00    +0.000 C 
ENDROOT
BRANCH   1   2
ATOM      2  C   UNL     1       1.149   9.375  18.559  0.00  0.00    +0.000 A 
ATOM      3  C   UNL     1       0.990   9.871  19.836  0.00  0.00    +0.000 A 
ATOM      4  S   UNL     1      -0.496  10.697  19.970  0.00  0.00    +0.000 S 
ATOM      5  C   UNL     1      -0.854  10.312  18.329  0.00  0.00    +0.000 A 
ATOM      6  N   UNL     1       0.075   9.606  17.713  0.00  0.00    +0.000 NA
BRANCH   5   7
ATOM      7  C   UNL     1      -2.138  10.695  17.731  0.00  0.00    +0.000 A 
ATOM      8  C   UNL     1      -3.088  11.456  18.430  0.00  0.00    +0.000 A 
ATOM      9  C   UNL     1      -4.310  11.784  17.839  0.00  0.00    +0.000 A 
ATOM     10  C   UNL     1      -4.593  11.360  16.542  0.00  0.00    +0.000 A 
ATOM     11  C   UNL     1      -3.655  10.613  15.832  0.00  0.00    +0.000 A 
ATOM     12  C   UNL     1      -2.434  10.287  16.421  0.00  0.00    +0.000 A 
ENDBRANCH   5   7
ENDBRANCH   1   2
BRANCH   1  13
ATOM     13  C   UNL     1       2.495   7.248  18.686  0.00  0.00    +0.000 C 
BRANCH  13  16
ATOM     14  O   UNL     1       3.824   5.091  19.844  0.00  0.00    +0.000 OA
ATOM     15  C   UNL     1       4.131   5.400  18.705  0.00  0.00    +0.000 C 
ATOM     16  N   UNL     1       3.519   6.442  18.033  0.00  0.00    +0.000 N 
ATOM     17  H   UNL     1       3.765   6.664  17.077  0.00  0.00    +0.000 HD
BRANCH  15  18
ATOM     18  C   UNL     1       5.243   4.691  17.929  0.00  0.00    +0.000 C 
ATOM     19  C   UNL     1       6.623   5.169  18.367  0.00  0.00    +0.000 C 
ATOM     20  C   UNL     1       7.706   4.511  17.523  0.00  0.00    +0.000 C 
ATOM     21  O   UNL     1       7.483   4.747  16.135  0.00  0.00    +0.000 OA
ATOM     22  C   UNL     1       6.252   4.184  15.684  0.00  0.00    +0.000 C 
ATOM     23  C   UNL     1       5.080   4.838  16.404  0.00  0.00    +0.000 C 
ENDBRANCH  15  18
ENDBRANCH  13  16
ENDBRANCH   1  13
TORSDOF 5
ENDMDL
MODEL 6
REMARK VINA RESULT:      -7.2      1.318      1.895
REMARK  Name = 
REMARK  5 active torsions:
REMARK  status: ('A' for Active; 'I' for Inactive)
REMARK    1  A    between atoms: C_2  and  C_17
REMARK    2  A    between atoms: N_3  and  C_4
REMARK    3  A    between atoms: C_4  and  C_5
REMARK    4  A    between atoms: C_5  and  C_6
REMARK    5  A    between atoms: C_9  and  C_10
REMARK                            x       y       z     vdW  Elec       q    Type
REMARK                         _______ _______ _______ _____ _____    ______ ____
ROOT
ATOM      1  C   UNL     1       7.925   7.249  17.837  0.00  0.00    +0.000 C 
ENDROOT
BRANCH   1   2
ATOM      2  C   UNL     1       6.837   6.310  17.423  0.00  0.00    +0.000 A 
ATOM      3  C   UNL     1       6.774   5.599  16.242  0.00  0.00    +0.000 A 
ATOM      4  S   UNL     1       5.379   4.618  16.215  0.00  0.00    +0.000 S 
ATOM      5  C   UNL     1       4.925   5.226  17.762  0.00  0.00    +0.000 A 
ATOM      6  N   UNL     1       5.759   6.112  18.272  0.00  0.00    +0.000 NA
BRANCH   5   7
ATOM      7  C   UNL     1       3.662   4.818  18.388  0.00  0.00    +0.000 A 
ATOM      8  C   UNL     1       2.687   4.087  17.691  0.00  0.00    +0.000 A 
ATOM      9  C   UNL     1       1.487   3.734  18.309  0.00  0.00    +0.000 A 
ATOM     10  C   UNL     1       1.249   4.103  19.632  0.00  0.00    +0.000 A 
ATOM     11  C   UNL     1       2.212   4.820  20.340  0.00  0.00    +0.000 A 
ATOM     12  C   UNL     1       3.413   5.170  19.723  0.00  0.00    +0.000 A 
ENDBRANCH   5   7
ENDBRANCH   1   2
BRANCH   1  13
ATOM     13  C   UNL     1       7.463   8.707  17.882  0.00  0.00    +0.000 C 
BRANCH  13  16
ATOM     14  O   UNL     1       8.968  10.066  19.792  0.00  0.00    +0.000 OA
ATOM     15  C   UNL     1       9.219  10.278  18.618  0.00  0.00    +0.000 C 
ATOM     16  N   UNL     1       8.543   9.641  17.592  0.00  0.00    +0.000 N 
ATOM     17  H   UNL     1       8.786   9.807  16.625  0.00  0.00    +0.000 HD
BRANCH  15  18
ATOM     18  C   UNL     1      10.273  11.293  18.170  0.00  0.00    +0.000 C 
ATOM     19  C   UNL     1      11.297  11.559  19.267  0.00  0.00    +0.000 C 
ATOM     20  C   UNL     1      12.282  12.632  18.826  0.00  0.00    +0.000 C 
ATOM     21  O   UNL     1      11.599  13.823  18.443  0.00  0.00    +0.000 OA
ATOM     22  C   UNL     1      10.737  13.614  17.326  0.00  0.00    +0.000 C 
ATOM     23  C   UNL     1       9.645  12.614  17.685  0.00  0.00    +0.000 C 
ENDBRANCH  15  18
ENDBRANCH  13  16
ENDBRANCH   1  13
TORSDOF 5
ENDMDL
MODEL 7
REMARK VINA RESULT:      -7.2      4.224      8.167
REMARK  Name = 
REMARK  5 active torsions:
REMARK  status: ('A' for Active; 'I' for Inactive)
REMARK    1  A    between atoms: C_2  and  C_17
REMARK    2  A    between atoms: N_3  and  C_4
REMARK    3  A    between atoms: C_4  and  C_5
REMARK    4  A    between atoms: C_5  and  C_6
REMARK    5  A    between atoms: C_9  and  C_10
REMARK                            x       y       z     vdW  Elec       q    Type
REMARK                         _______ _______ _______ _____ _____    ______ ____
ROOT
ATOM      1  C   UNL     1       7.798   6.156  18.490  0.00  0.00    +0.000 C 
ENDROOT
BRANCH   1   2
ATOM      2  C   UNL     1       6.923   6.171  17.278  0.00  0.00    +0.000 A 
ATOM      3  C   UNL     1       5.812   6.965  17.078  0.00  0.00    +0.000 A 
ATOM      4  S   UNL     1       5.150   6.681  15.532  0.00  0.00    +0.000 S 
ATOM      5  C   UNL     1       6.361   5.492  15.235  0.00  0.00    +0.000 A 
ATOM      6  N   UNL     1       7.211   5.311  16.229  0.00  0.00    +0.000 NA
BRANCH   5   7
ATOM      7  C   UNL     1       6.361   4.715  13.991  0.00  0.00    +0.000 A 
ATOM      8  C   UNL     1       5.320   3.832  13.664  0.00  0.00    +0.000 A 
ATOM      9  C   UNL     1       5.362   3.090  12.483  0.00  0.00    +0.000 A 
ATOM     10  C   UNL     1       6.442   3.227  11.612  0.00  0.00    +0.000 A 
ATOM     11  C   UNL     1       7.478   4.108  11.917  0.00  0.00    +0.000 A 
ATOM     12  C   UNL     1       7.434   4.850  13.097  0.00  0.00    +0.000 A 
ENDBRANCH   5   7
ENDBRANCH   1   2
BRANCH   1  13
ATOM     13  C   UNL     1       7.139   5.468  19.687  0.00  0.00    +0.000 C 
BRANCH  13  16
ATOM     14  O   UNL     1       4.362   5.649  19.815  0.00  0.00    +0.000 OA
ATOM     15  C   UNL     1       4.843   4.607  19.404  0.00  0.00    +0.000 C 
ATOM     16  N   UNL     1       6.208   4.421  19.284  0.00  0.00    +0.000 N 
ATOM     17  H   UNL     1       6.588   3.561  18.912  0.00  0.00    +0.000 HD
BRANCH  15  18
ATOM     18  C   UNL     1       3.987   3.398  19.021  0.00  0.00    +0.000 C 
ATOM     19  C   UNL     1       3.614   3.421  17.543  0.00  0.00    +0.000 C 
ATOM     20  C   UNL     1       2.695   2.254  17.208  0.00  0.00    +0.000 C 
ATOM     21  O   UNL     1       1.539   2.262  18.043  0.00  0.00    +0.000 OA
ATOM     22  C   UNL     1       1.869   2.104  19.421  0.00  0.00    +0.000 C 
ATOM     23  C   UNL     1       2.723   3.274  19.894  0.00  0.00    +0.000 C 
ENDBRANCH  15  18
ENDBRANCH  13  16
ENDBRANCH   1  13
TORSDOF 5
ENDMDL
MODEL 8
REMARK VINA RESULT:      -7.1      0.836      1.327
REMARK  Name = 
REMARK  5 active torsions:
REMARK  status: ('A' for Active; 'I' for Inactive)
REMARK    1  A    between atoms: C_2  and  C_17
REMARK    2  A    between atoms: N_3  and  C_4
REMARK    3  A    between atoms: C_4  and  C_5
REMARK    4  A    between atoms: C_5  and  C_6
REMARK    5  A    between atoms: C_9  and  C_10
REMARK                            x       y       z     vdW  Elec       q    Type
REMARK                         _______ _______ _______ _____ _____    ______ ____
ROOT
ATOM      1  C   UNL     1       7.715   6.795  17.178  0.00  0.00    +0.000 C 
ENDROOT
BRANCH   1   2
ATOM      2  C   UNL     1       6.536   5.891  17.006  0.00  0.00    +0.000 A 
ATOM      3  C   UNL     1       6.284   5.070  15.927  0.00  0.00    +0.000 A 
ATOM      4  S   UNL     1       4.849   4.184  16.180  0.00  0.00    +0.000 S 
ATOM      5  C   UNL     1       4.631   4.974  17.695  0.00  0.00    +0.000 A 
ATOM      6  N   UNL     1       5.569   5.851  17.998  0.00  0.00    +0.000 NA
BRANCH   5   7
ATOM      7  C   UNL     1       3.441   4.715  18.512  0.00  0.00    +0.000 A 
ATOM      8  C   UNL     1       2.371   3.934  18.045  0.00  0.00    +0.000 A 
ATOM      9  C   UNL     1       1.243   3.726  18.840  0.00  0.00    +0.000 A 
ATOM     10  C   UNL     1       1.174   4.290  20.113  0.00  0.00    +0.000 A 
ATOM     11  C   UNL     1       2.232   5.058  20.595  0.00  0.00    +0.000 A 
ATOM     12  C   UNL     1       3.360   5.264  19.801  0.00  0.00    +0.000 A 
ENDBRANCH   5   7
ENDBRANCH   1   2
BRANCH   1  13
ATOM     13  C   UNL     1       7.325   8.190  17.672  0.00  0.00    +0.000 C 
BRANCH  13  16
ATOM     14  O   UNL     1       7.987  10.891  17.507  0.00  0.00    +0.000 OA
ATOM     15  C   UNL     1       8.658  10.187  18.244  0.00  0.00    +0.000 C 
ATOM     16  N   UNL     1       8.401   8.838  18.412  0.00  0.00    +0.000 N 
ATOM     17  H   UNL     1       8.949   8.278  19.050  0.00  0.00    +0.000 HD
BRANCH  15  18
ATOM     18  C   UNL     1       9.866  10.720  19.018  0.00  0.00    +0.000 C 
ATOM     19  C   UNL     1       9.437  11.583  20.199  0.00  0.00    +0.000 C 
ATOM     20  C   UNL     1      10.656  12.167  20.901  0.00  0.00    +0.000 C 
ATOM     21  O   UNL     1      11.471  12.894  19.984  0.00  0.00    +0.000 OA
ATOM     22  C   UNL     1      11.988  12.063  18.947  0.00  0.00    +0.000 C 
ATOM     23  C   UNL     1      10.848  11.489  18.115  0.00  0.00    +0.000 C 
ENDBRANCH  15  18
ENDBRANCH  13  16
ENDBRANCH   1  13
TORSDOF 5
ENDMDL
MODEL 9
REMARK VINA RESULT:      -7.1      6.358      8.887
REMARK  Name = 
REMARK  5 active torsions:
REMARK  status: ('A' for Active; 'I' for Inactive)
REMARK    1  A    between atoms: C_2  and  C_17
REMARK    2  A    between atoms: N_3  and  C_4
REMARK    3  A    between atoms: C_4  and  C_5
REMARK    4  A    between atoms: C_5  and  C_6
REMARK    5  A    between atoms: C_9  and  C_10
REMARK                            x       y       z     vdW  Elec       q    Type
REMARK                         _______ _______ _______ _____ _____    ______ ____
ROOT
ATOM      1  C   UNL     1       2.237   9.411  17.871  0.00  0.00    +0.000 C 
ENDROOT
BRANCH   1   2
ATOM      2  C   UNL     1       2.158   8.152  18.674  0.00  0.00    +0.000 A 
ATOM      3  C   UNL     1       1.862   8.055  20.018  0.00  0.00    +0.000 A 
ATOM      4  S   UNL     1       1.836   6.420  20.503  0.00  0.00    +0.000 S 
ATOM      5  C   UNL     1       2.257   5.942  18.901  0.00  0.00    +0.000 A 
ATOM      6  N   UNL     1       2.411   6.939  18.052  0.00  0.00    +0.000 NA
BRANCH   5   7
ATOM      7  C   UNL     1       2.488   4.530  18.576  0.00  0.00    +0.000 A 
ATOM      8  C   UNL     1       3.681   4.087  17.984  0.00  0.00    +0.000 A 
ATOM      9  C   UNL     1       3.860   2.740  17.666  0.00  0.00    +0.000 A 
ATOM     10  C   UNL     1       2.851   1.819  17.941  0.00  0.00    +0.000 A 
ATOM     11  C   UNL     1       1.664   2.242  18.539  0.00  0.00    +0.000 A 
ATOM     12  C   UNL     1       1.487   3.588  18.858  0.00  0.00    +0.000 A 
ENDBRANCH   5   7
ENDBRANCH   1   2
BRANCH   1  13
ATOM     13  C   UNL     1       1.397  10.545  18.463  0.00  0.00    +0.000 C 
BRANCH  13  16
ATOM     14  O   UNL     1      -0.936  10.076  19.911  0.00  0.00    +0.000 OA
ATOM     15  C   UNL     1      -1.047  10.316  18.720  0.00  0.00    +0.000 C 
ATOM     16  N   UNL     1       0.047  10.581  17.916  0.00  0.00    +0.000 N 
ATOM     17  H   UNL     1      -0.067  10.808  16.937  0.00  0.00    +0.000 HD
BRANCH  15  18
ATOM     18  C   UNL     1      -2.396  10.308  17.999  0.00  0.00    +0.000 C 
ATOM     19  C   UNL     1      -2.223  10.217  16.488  0.00  0.00    +0.000 C 
ATOM     20  C   UNL     1      -3.575  10.295  15.792  0.00  0.00    +0.000 C 
ATOM     21  O   UNL     1      -4.275  11.478  16.172  0.00  0.00    +0.000 OA
ATOM     22  C   UNL     1      -4.562  11.509  17.568  0.00  0.00    +0.000 C 
ATOM     23  C   UNL     1      -3.267  11.524  18.370  0.00  0.00    +0.000 C 
ENDBRANCH  15  18
ENDBRANCH  13  16
ENDBRANCH   1  13
TORSDOF 5
ENDMDL
