MODEL 1
REMARK VINA RESULT:      -9.5      0.000      0.000
REMARK  Name = 
REMARK  6 active torsions:
REMARK  status: ('A' for Active; 'I' for Inactive)
REMARK    1  A    between atoms: C_1  and  O_2
REMARK    2  A    between atoms: O_2  and  C_3
REMARK    3  A    between atoms: C_6  and  S_7
REMARK    4  A    between atoms: S_7  and  N_10
REMARK    5  A    between atoms: C_18  and  C_19
REMARK    6  A    between atoms: C_22  and  C_23
REMARK                            x       y       z     vdW  Elec       q    Type
REMARK                         _______ _______ _______ _____ _____    ______ ____
ROOT
ATOM      1  N   UNL     1       4.681   5.068  17.858  0.00  0.00    +0.000 N 
ATOM      2  C   UNL     1       5.380   4.141  18.688  0.00  0.00    +0.000 A 
ATOM      3  C   UNL     1       4.275   3.371  18.572  0.00  0.00    +0.000 A 
ATOM      4 CL   UNL     1       4.046   1.803  18.022  0.00  0.00    +0.000 Cl
ATOM      5  C   UNL     1       3.362   4.245  19.182  0.00  0.00    +0.000 A 
ATOM      6  C   UNL     1       2.476   3.803  20.225  0.00  0.00    +0.000 A 
ATOM      7  C   UNL     1       1.622   4.575  20.934  0.00  0.00    +0.000 A 
ATOM      8  C   UNL     1       1.597   5.854  20.498  0.00  0.00    +0.000 A 
ATOM      9  C   UNL     1       2.453   6.407  19.406  0.00  0.00    +0.000 A 
ATOM     10  C   UNL     1       3.603   5.738  18.591  0.00  0.00    +0.000 A 
ENDROOT
BRANCH   9  11
ATOM     11  C   UNL     1       2.009   7.892  19.207  0.00  0.00    +0.000 A 
ATOM     12  C   UNL     1       2.246   8.659  18.055  0.00  0.00    +0.000 A 
ATOM     13  C   UNL     1       1.876  10.032  17.946  0.00  0.00    +0.000 A 
ATOM     14  C   UNL     1       1.187  10.681  18.973  0.00  0.00    +0.000 A 
ATOM     15  C   UNL     1       0.961   9.960  20.136  0.00  0.00    +0.000 A 
ATOM     16  F   UNL     1       0.436  10.573  21.210  0.00  0.00    +0.000 F 
ATOM     17  C   UNL     1       1.352   8.608  20.253  0.00  0.00    +0.000 A 
BRANCH  14  18
ATOM     18  C   UNL     1       0.739  12.044  18.842  0.00  0.00    +0.000 C 
ATOM     19  N   UNL     1       0.396  13.147  18.709  0.00  0.00    +0.000 NA
ENDBRANCH  14  18
ENDBRANCH   9  11
BRANCH   1  20
ATOM     20  S   UNL     1       6.189   5.684  16.629  0.00  0.00    +0.000 S 
ATOM     21  O   UNL     1       7.362   5.209  17.332  0.00  0.00    +0.000 OA
ATOM     22  O   UNL     1       5.939   7.118  16.489  0.00  0.00    +0.000 OA
BRANCH  20  26
ATOM     23  C   UNL     1       6.451   3.462  12.217  0.00  0.00    +0.000 A 
ATOM     24  C   UNL     1       5.407   3.310  13.133  0.00  0.00    +0.000 A 
ATOM     25  C   UNL     1       5.351   4.039  14.374  0.00  0.00    +0.000 A 
ATOM     26  C   UNL     1       6.323   4.978  14.770  0.00  0.00    +0.000 A 
ATOM     27  C   UNL     1       7.417   5.105  13.854  0.00  0.00    +0.000 A 
ATOM     28  C   UNL     1       7.449   4.366  12.580  0.00  0.00    +0.000 A 
BRANCH  23  30
ATOM     29  C   UNL     1       6.407   1.274  11.155  0.00  0.00    +0.000 C 
ATOM     30  O   UNL     1       6.369   2.705  11.071  0.00  0.00    +0.000 OA
ENDBRANCH  23  30
ENDBRANCH  20  26
ENDBRANCH   1  20
TORSDOF 5
ENDMDL
MODEL 2
REMARK VINA RESULT:      -9.3      0.924      1.277
REMARK  Name = 
REMARK  6 active torsions:
REMARK  status: ('A' for Active; 'I' for Inactive)
REMARK    1  A    between atoms: C_1  and  O_2
REMARK    2  A    between atoms: O_2  and  C_3
REMARK    3  A    between atoms: C_6  and  S_7
REMARK    4  A    between atoms: S_7  and  N_10
REMARK    5  A    between atoms: C_18  and  C_19
REMARK    6  A    between atoms: C_22  and  C_23
REMARK                            x       y       z     vdW  Elec       q    Type
REMARK                         _______ _______ _______ _____ _____    ______ ____
ROOT
ATOM      1  N   UNL     1       4.528   4.857  18.155  0.00  0.00    +0.000 N 
ATOM      2  C   UNL     1       5.237   3.831  18.849  0.00  0.00    +0.000 A 
ATOM      3  C   UNL     1       4.133   3.078  18.639  0.00  0.00    +0.000 A 
ATOM      4 CL   UNL     1       3.905   1.596  17.888  0.00  0.00    +0.000 Cl
ATOM      5  C   UNL     1       3.221   3.859  19.366  0.00  0.00    +0.000 A 
ATOM      6  C   UNL     1       2.345   3.279  20.347  0.00  0.00    +0.000 A 
ATOM      7  C   UNL     1       1.493   3.947  21.159  0.00  0.00    +0.000 A 
ATOM      8  C   UNL     1       1.461   5.272  20.896  0.00  0.00    +0.000 A 
ATOM      9  C   UNL     1       2.307   5.969  19.882  0.00  0.00    +0.000 A 
ATOM     10  C   UNL     1       3.453   5.419  18.977  0.00  0.00    +0.000 A 
ENDROOT
BRANCH   9  11
ATOM     11  C   UNL     1       1.857   7.465  19.885  0.00  0.00    +0.000 A 
ATOM     12  C   UNL     1       1.263   8.128  20.970  0.00  0.00    +0.000 A 
ATOM     13  C   UNL     1       0.811   9.479  20.903  0.00  0.00    +0.000 A 
ATOM     14  C   UNL     1       0.999  10.250  19.753  0.00  0.00    +0.000 A 
ATOM     15  C   UNL     1       1.559   9.618  18.653  0.00  0.00    +0.000 A 
ATOM     16  F   UNL     1       1.629  10.263  17.477  0.00  0.00    +0.000 F 
ATOM     17  C   UNL     1       1.981   8.271  18.713  0.00  0.00    +0.000 A 
BRANCH  14  18
ATOM     18  C   UNL     1       0.618  11.638  19.701  0.00  0.00    +0.000 C 
ATOM     19  N   UNL     1       0.342  12.767  19.652  0.00  0.00    +0.000 NA
ENDBRANCH  14  18
ENDBRANCH   9  11
BRANCH   1  20
ATOM     20  S   UNL     1       6.026   5.637  17.008  0.00  0.00    +0.000 S 
ATOM     21  O   UNL     1       7.208   5.199  17.721  0.00  0.00    +0.000 OA
ATOM     22  O   UNL     1       5.685   7.057  16.939  0.00  0.00    +0.000 OA
BRANCH  20  26
ATOM     23  C   UNL     1       6.560   3.688  12.493  0.00  0.00    +0.000 A 
ATOM     24  C   UNL     1       5.509   3.408  13.370  0.00  0.00    +0.000 A 
ATOM     25  C   UNL     1       5.368   4.060  14.647  0.00  0.00    +0.000 A 
ATOM     26  C   UNL     1       6.256   5.047  15.119  0.00  0.00    +0.000 A 
ATOM     27  C   UNL     1       7.359   5.306  14.241  0.00  0.00    +0.000 A 
ATOM     28  C   UNL     1       7.477   4.643  12.931  0.00  0.00    +0.000 A 
BRANCH  23  30
ATOM     29  C   UNL     1       6.097   1.636  11.272  0.00  0.00    +0.000 C 
ATOM     30  O   UNL     1       6.563   2.992  11.307  0.00  0.00    +0.000 OA
ENDBRANCH  23  30
ENDBRANCH  20  26
ENDBRANCH   1  20
TORSDOF 5
ENDMDL
MODEL 3
REMARK VINA RESULT:      -9.0      3.022      4.541
REMARK  Name = 
REMARK  6 active torsions:
REMARK  status: ('A' for Active; 'I' for Inactive)
REMARK    1  A    between atoms: C_1  and  O_2
REMARK    2  A    between atoms: O_2  and  C_3
REMARK    3  A    between atoms: C_6  and  S_7
REMARK    4  A    between atoms: S_7  and  N_10
REMARK    5  A    between atoms: C_18  and  C_19
REMARK    6  A    between atoms: C_22  and  C_23
REMARK                            x       y       z     vdW  Elec       q    Type
REMARK                         _______ _______ _______ _____ _____    ______ ____
ROOT
ATOM      1  N   UNL     1       4.461   4.523  18.081  0.00  0.00    +0.000 N 
ATOM      2  C   UNL     1       5.208   3.525  18.776  0.00  0.00    +0.000 A 
ATOM      3  C   UNL     1       4.093   2.768  18.663  0.00  0.00    +0.000 A 
ATOM      4 CL   UNL     1       3.820   1.257  17.989  0.00  0.00    +0.000 Cl
ATOM      5  C   UNL     1       3.226   3.582  19.407  0.00  0.00    +0.000 A 
ATOM      6  C   UNL     1       2.406   3.047  20.461  0.00  0.00    +0.000 A 
ATOM      7  C   UNL     1       1.604   3.752  21.291  0.00  0.00    +0.000 A 
ATOM      8  C   UNL     1       1.558   5.065  20.976  0.00  0.00    +0.000 A 
ATOM      9  C   UNL     1       2.345   5.715  19.885  0.00  0.00    +0.000 A 
ATOM     10  C   UNL     1       3.436   5.123  18.939  0.00  0.00    +0.000 A 
ENDROOT
BRANCH   9  11
ATOM     11  C   UNL     1       1.898   7.212  19.850  0.00  0.00    +0.000 A 
ATOM     12  C   UNL     1       1.246   7.884  20.896  0.00  0.00    +0.000 A 
ATOM     13  C   UNL     1       0.800   9.235  20.793  0.00  0.00    +0.000 A 
ATOM     14  C   UNL     1       1.052   9.996  19.649  0.00  0.00    +0.000 A 
ATOM     15  C   UNL     1       1.670   9.354  18.587  0.00  0.00    +0.000 A 
ATOM     16  F   UNL     1       1.806   9.989  17.410  0.00  0.00    +0.000 F 
ATOM     17  C   UNL     1       2.086   8.007  18.681  0.00  0.00    +0.000 A 
BRANCH  14  18
ATOM     18  C   UNL     1       0.676  11.384  19.564  0.00  0.00    +0.000 C 
ATOM     19  N   UNL     1       0.396  12.512  19.518  0.00  0.00    +0.000 NA
ENDBRANCH  14  18
ENDBRANCH   9  11
BRANCH   1  20
ATOM     20  S   UNL     1       5.891   5.249  16.818  0.00  0.00    +0.000 S 
ATOM     21  O   UNL     1       5.093   5.751  15.719  0.00  0.00    +0.000 OA
ATOM     22  O   UNL     1       6.777   4.101  16.626  0.00  0.00    +0.000 OA
BRANCH  20  26
ATOM     23  C   UNL     1       8.639   8.898  18.716  0.00  0.00    +0.000 A 
ATOM     24  C   UNL     1       8.617   7.581  19.184  0.00  0.00    +0.000 A 
ATOM     25  C   UNL     1       7.848   6.543  18.546  0.00  0.00    +0.000 A 
ATOM     26  C   UNL     1       7.070   6.750  17.390  0.00  0.00    +0.000 A 
ATOM     27  C   UNL     1       7.056   8.107  16.932  0.00  0.00    +0.000 A 
ATOM     28  C   UNL     1       7.862   9.153  17.585  0.00  0.00    +0.000 A 
BRANCH  23  30
ATOM     29  C   UNL     1       9.405  11.175  19.091  0.00  0.00    +0.000 C 
ATOM     30  O   UNL     1       9.422   9.781  19.423  0.00  0.00    +0.000 OA
ENDBRANCH  23  30
ENDBRANCH  20  26
ENDBRANCH   1  20
TORSDOF 5
ENDMDL
MODEL 4
REMARK VINA RESULT:      -8.8      1.027      1.605
REMARK  Name = 
REMARK  6 active torsions:
REMARK  status: ('A' for Active; 'I' for Inactive)
REMARK    1  A    between atoms: C_1  and  O_2
REMARK    2  A    between atoms: O_2  and  C_3
REMARK    3  A    between atoms: C_6  and  S_7
REMARK    4  A    between atoms: S_7  and  N_10
REMARK    5  A    between atoms: C_18  and  C_19
REMARK    6  A    between atoms: C_22  and  C_23
REMARK                            x       y       z     vdW  Elec       q    Type
REMARK                         _______ _______ _______ _____ _____    ______ ____
ROOT
ATOM      1  N   UNL     1       4.242   5.007  17.876  0.00  0.00    +0.000 N 
ATOM      2  C   UNL     1       5.096   4.020  18.453  0.00  0.00    +0.000 A 
ATOM      3  C   UNL     1       4.004   3.222  18.437  0.00  0.00    +0.000 A 
ATOM      4 CL   UNL     1       3.715   1.721  17.748  0.00  0.00    +0.000 Cl
ATOM      5  C   UNL     1       3.195   3.980  19.298  0.00  0.00    +0.000 A 
ATOM      6  C   UNL     1       2.517   3.383  20.416  0.00  0.00    +0.000 A 
ATOM      7  C   UNL     1       1.786   4.031  21.352  0.00  0.00    +0.000 A 
ATOM      8  C   UNL     1       1.657   5.349  21.086  0.00  0.00    +0.000 A 
ATOM      9  C   UNL     1       2.295   6.061  19.938  0.00  0.00    +0.000 A 
ATOM     10  C   UNL     1       3.296   5.540  18.860  0.00  0.00    +0.000 A 
ENDROOT
BRANCH   9  11
ATOM     11  C   UNL     1       1.792   7.539  20.001  0.00  0.00    +0.000 A 
ATOM     12  C   UNL     1       1.184   8.139  21.115  0.00  0.00    +0.000 A 
ATOM     13  C   UNL     1       0.684   9.475  21.104  0.00  0.00    +0.000 A 
ATOM     14  C   UNL     1       0.834  10.294  19.982  0.00  0.00    +0.000 A 
ATOM     15  C   UNL     1       1.406   9.725  18.855  0.00  0.00    +0.000 A 
ATOM     16  F   UNL     1       1.442  10.415  17.703  0.00  0.00    +0.000 F 
ATOM     17  C   UNL     1       1.876   8.393  18.860  0.00  0.00    +0.000 A 
BRANCH  14  18
ATOM     18  C   UNL     1       0.403  11.669  19.986  0.00  0.00    +0.000 C 
ATOM     19  N   UNL     1       0.032  12.771  20.011  0.00  0.00    +0.000 NA
ENDBRANCH  14  18
ENDBRANCH   9  11
BRANCH   1  20
ATOM     20  S   UNL     1       5.496   5.824  16.489  0.00  0.00    +0.000 S 
ATOM     21  O   UNL     1       6.709   6.015  17.258  0.00  0.00    +0.000 OA
ATOM     22  O   UNL     1       4.741   6.976  15.997  0.00  0.00    +0.000 OA
BRANCH  20  26
ATOM     23  C   UNL     1       6.884   3.705  12.240  0.00  0.00    +0.000 A 
ATOM     24  C   UNL     1       7.648   4.620  12.969  0.00  0.00    +0.000 A 
ATOM     25  C   UNL     1       7.221   5.152  14.238  0.00  0.00    +0.000 A 
ATOM     26  C   UNL     1       6.015   4.788  14.868  0.00  0.00    +0.000 A 
ATOM     27  C   UNL     1       5.209   3.883  14.104  0.00  0.00    +0.000 A 
ATOM     28  C   UNL     1       5.669   3.334  12.817  0.00  0.00    +0.000 A 
BRANCH  23  30
ATOM     29  C   UNL     1       7.459   1.880  10.739  0.00  0.00    +0.000 C 
ATOM     30  O   UNL     1       7.420   3.280  11.047  0.00  0.00    +0.000 OA
ENDBRANCH  23  30
ENDBRANCH  20  26
ENDBRANCH   1  20
TORSDOF 5
ENDMDL
MODEL 5
REMARK VINA RESULT:      -8.8      0.595      1.040
REMARK  Name = 
REMARK  6 active torsions:
REMARK  status: ('A' for Active; 'I' for Inactive)
REMARK    1  A    between atoms: C_1  and  O_2
REMARK    2  A    between atoms: O_2  and  C_3
REMARK    3  A    between atoms: C_6  and  S_7
REMARK    4  A    between atoms: S_7  and  N_10
REMARK    5  A    between atoms: C_18  and  C_19
REMARK    6  A    between atoms: C_22  and  C_23
REMARK                            x       y       z     vdW  Elec       q    Type
REMARK                         _______ _______ _______ _____ _____    ______ ____
ROOT
ATOM      1  N   UNL     1       4.332   5.239  17.723  0.00  0.00    +0.000 N 
ATOM      2  C   UNL     1       5.163   4.307  18.413  0.00  0.00    +0.000 A 
ATOM      3  C   UNL     1       4.072   3.508  18.426  0.00  0.00    +0.000 A 
ATOM      4 CL   UNL     1       3.806   1.953  17.859  0.00  0.00    +0.000 Cl
ATOM      5  C   UNL     1       3.233   4.336  19.189  0.00  0.00    +0.000 A 
ATOM      6  C   UNL     1       2.515   3.836  20.329  0.00  0.00    +0.000 A 
ATOM      7  C   UNL     1       1.751   4.561  21.179  0.00  0.00    +0.000 A 
ATOM      8  C   UNL     1       1.633   5.851  20.796  0.00  0.00    +0.000 A 
ATOM      9  C   UNL     1       2.313   6.463  19.614  0.00  0.00    +0.000 A 
ATOM     10  C   UNL     1       3.352   5.853  18.622  0.00  0.00    +0.000 A 
ENDROOT
BRANCH   9  11
ATOM     11  C   UNL     1       1.809   7.940  19.532  0.00  0.00    +0.000 A 
ATOM     12  C   UNL     1       1.873   8.753  18.389  0.00  0.00    +0.000 A 
ATOM     13  C   UNL     1       1.457  10.117  18.381  0.00  0.00    +0.000 A 
ATOM     14  C   UNL     1       0.893  10.709  19.514  0.00  0.00    +0.000 A 
ATOM     15  C   UNL     1       0.840   9.942  20.668  0.00  0.00    +0.000 A 
ATOM     16  F   UNL     1       0.446  10.502  21.823  0.00  0.00    +0.000 F 
ATOM     17  C   UNL     1       1.278   8.599  20.681  0.00  0.00    +0.000 A 
BRANCH  14  18
ATOM     18  C   UNL     1       0.398  12.062  19.494  0.00  0.00    +0.000 C 
ATOM     19  N   UNL     1       0.029  13.164  19.475  0.00  0.00    +0.000 NA
ENDBRANCH  14  18
ENDBRANCH   9  11
BRANCH   1  20
ATOM     20  S   UNL     1       5.636   5.936  16.316  0.00  0.00    +0.000 S 
ATOM     21  O   UNL     1       6.855   6.078  17.083  0.00  0.00    +0.000 OA
ATOM     22  O   UNL     1       4.952   7.115  15.785  0.00  0.00    +0.000 OA
BRANCH  20  26
ATOM     23  C   UNL     1       6.876   3.608  12.131  0.00  0.00    +0.000 A 
ATOM     24  C   UNL     1       7.674   4.542  12.799  0.00  0.00    +0.000 A 
ATOM     25  C   UNL     1       7.289   5.136  14.053  0.00  0.00    +0.000 A 
ATOM     26  C   UNL     1       6.094   4.821  14.730  0.00  0.00    +0.000 A 
ATOM     27  C   UNL     1       5.254   3.896  14.028  0.00  0.00    +0.000 A 
ATOM     28  C   UNL     1       5.671   3.284  12.755  0.00  0.00    +0.000 A 
BRANCH  23  30
ATOM     29  C   UNL     1       7.417   1.708  10.713  0.00  0.00    +0.000 C 
ATOM     30  O   UNL     1       7.374   3.122  10.945  0.00  0.00    +0.000 OA
ENDBRANCH  23  30
ENDBRANCH  20  26
ENDBRANCH   1  20
TORSDOF 5
ENDMDL
MODEL 6
REMARK VINA RESULT:      -8.8      6.333     10.010
REMARK  Name = 
REMARK  6 active torsions:
REMARK  status: ('A' for Active; 'I' for Inactive)
REMARK    1  A    between atoms: C_1  and  O_2
REMARK    2  A    between atoms: O_2  and  C_3
REMARK    3  A    between atoms: C_6  and  S_7
REMARK    4  A    between atoms: S_7  and  N_10
REMARK    5  A    between atoms: C_18  and  C_19
REMARK    6  A    between atoms: C_22  and  C_23
REMARK                            x       y       z     vdW  Elec       q    Type
REMARK                         _______ _______ _______ _____ _____    ______ ____
ROOT
ATOM      1  N   UNL     1      -2.667  12.210  22.012  0.00  0.00    +0.000 N 
ATOM      2  C   UNL     1      -2.822  13.378  22.816  0.00  0.00    +0.000 A 
ATOM      3  C   UNL     1      -4.015  12.846  23.167  0.00  0.00    +0.000 A 
ATOM      4 CL   UNL     1      -4.680  12.450  24.654  0.00  0.00    +0.000 Cl
ATOM      5  C   UNL     1      -4.607  12.837  21.894  0.00  0.00    +0.000 A 
ATOM      6  C   UNL     1      -5.919  13.378  21.667  0.00  0.00    +0.000 A 
ATOM      7  C   UNL     1      -6.545  13.496  20.475  0.00  0.00    +0.000 A 
ATOM      8  C   UNL     1      -5.838  12.948  19.463  0.00  0.00    +0.000 A 
ATOM      9  C   UNL     1      -4.481  12.335  19.595  0.00  0.00    +0.000 A 
ATOM     10  C   UNL     1      -3.529  12.253  20.828  0.00  0.00    +0.000 A 
ENDROOT
BRANCH   9  11
ATOM     11  C   UNL     1      -4.113  11.769  18.186  0.00  0.00    +0.000 A 
ATOM     12  C   UNL     1      -4.914  11.878  17.037  0.00  0.00    +0.000 A 
ATOM     13  C   UNL     1      -4.563  11.289  15.787  0.00  0.00    +0.000 A 
ATOM     14  C   UNL     1      -3.351  10.616  15.618  0.00  0.00    +0.000 A 
ATOM     15  C   UNL     1      -2.549  10.467  16.738  0.00  0.00    +0.000 A 
ATOM     16  F   UNL     1      -1.445   9.704  16.673  0.00  0.00    +0.000 F 
ATOM     17  C   UNL     1      -2.911  11.028  17.984  0.00  0.00    +0.000 A 
BRANCH  14  18
ATOM     18  C   UNL     1      -2.951  10.085  14.339  0.00  0.00    +0.000 C 
ATOM     19  N   UNL     1      -2.652   9.675  13.293  0.00  0.00    +0.000 NA
ENDBRANCH  14  18
ENDBRANCH   9  11
BRANCH   1  20
ATOM     20  S   UNL     1      -0.700  11.781  22.350  0.00  0.00    +0.000 S 
ATOM     21  O   UNL     1      -0.774  10.949  23.533  0.00  0.00    +0.000 OA
ATOM     22  O   UNL     1      -0.078  13.103  22.412  0.00  0.00    +0.000 OA
BRANCH  20  26
ATOM     23  C   UNL     1       1.525   9.328  18.676  0.00  0.00    +0.000 A 
ATOM     24  C   UNL     1       1.062  10.644  18.599  0.00  0.00    +0.000 A 
ATOM     25  C   UNL     1       0.484  11.331  19.726  0.00  0.00    +0.000 A 
ATOM     26  C   UNL     1       0.351  10.754  21.004  0.00  0.00    +0.000 A 
ATOM     27  C   UNL     1       0.785   9.391  21.076  0.00  0.00    +0.000 A 
ATOM     28  C   UNL     1       1.390   8.709  19.919  0.00  0.00    +0.000 A 
BRANCH  23  30
ATOM     29  C   UNL     1       3.078   7.799  17.596  0.00  0.00    +0.000 C 
ATOM     30  O   UNL     1       2.057   8.803  17.521  0.00  0.00    +0.000 OA
ENDBRANCH  23  30
ENDBRANCH  20  26
ENDBRANCH   1  20
TORSDOF 5
ENDMDL
MODEL 7
REMARK VINA RESULT:      -8.7      2.915      4.508
REMARK  Name = 
REMARK  6 active torsions:
REMARK  status: ('A' for Active; 'I' for Inactive)
REMARK    1  A    between atoms: C_1  and  O_2
REMARK    2  A    between atoms: O_2  and  C_3
REMARK    3  A    between atoms: C_6  and  S_7
REMARK    4  A    between atoms: S_7  and  N_10
REMARK    5  A    between atoms: C_18  and  C_19
REMARK    6  A    between atoms: C_22  and  C_23
REMARK                            x       y       z     vdW  Elec       q    Type
REMARK                         _______ _______ _______ _____ _____    ______ ____
ROOT
ATOM      1  N   UNL     1       4.639   4.962  17.964  0.00  0.00    +0.000 N 
ATOM      2  C   UNL     1       5.283   3.986  18.780  0.00  0.00    +0.000 A 
ATOM      3  C   UNL     1       4.178   3.236  18.566  0.00  0.00    +0.000 A 
ATOM      4 CL   UNL     1       3.962   1.702  17.925  0.00  0.00    +0.000 Cl
ATOM      5  C   UNL     1       3.242   4.089  19.171  0.00  0.00    +0.000 A 
ATOM      6  C   UNL     1       2.297   3.606  20.141  0.00  0.00    +0.000 A 
ATOM      7  C   UNL     1       1.414   4.352  20.844  0.00  0.00    +0.000 A 
ATOM      8  C   UNL     1       1.425   5.652  20.474  0.00  0.00    +0.000 A 
ATOM      9  C   UNL     1       2.345   6.249  19.458  0.00  0.00    +0.000 A 
ATOM     10  C   UNL     1       3.529   5.607  18.672  0.00  0.00    +0.000 A 
ENDROOT
BRANCH   9  11
ATOM     11  C   UNL     1       1.927   7.748  19.313  0.00  0.00    +0.000 A 
ATOM     12  C   UNL     1       2.120   8.533  18.166  0.00  0.00    +0.000 A 
ATOM     13  C   UNL     1       1.778   9.916  18.103  0.00  0.00    +0.000 A 
ATOM     14  C   UNL     1       1.162  10.559  19.179  0.00  0.00    +0.000 A 
ATOM     15  C   UNL     1       0.980   9.820  20.338  0.00  0.00    +0.000 A 
ATOM     16  F   UNL     1       0.529  10.422  21.451  0.00  0.00    +0.000 F 
ATOM     17  C   UNL     1       1.345   8.456  20.407  0.00  0.00    +0.000 A 
BRANCH  14  18
ATOM     18  C   UNL     1       0.741  11.935  19.100  0.00  0.00    +0.000 C 
ATOM     19  N   UNL     1       0.417  13.048  19.006  0.00  0.00    +0.000 NA
ENDBRANCH  14  18
ENDBRANCH   9  11
BRANCH   1  20
ATOM     20  S   UNL     1       6.217   5.621  16.850  0.00  0.00    +0.000 S 
ATOM     21  O   UNL     1       5.566   6.041  15.627  0.00  0.00    +0.000 OA
ATOM     22  O   UNL     1       7.124   4.474  16.850  0.00  0.00    +0.000 OA
BRANCH  20  26
ATOM     23  C   UNL     1       8.760   9.356  18.863  0.00  0.00    +0.000 A 
ATOM     24  C   UNL     1       8.833   8.021  19.271  0.00  0.00    +0.000 A 
ATOM     25  C   UNL     1       8.121   6.964  18.600  0.00  0.00    +0.000 A 
ATOM     26  C   UNL     1       7.308   7.169  17.469  0.00  0.00    +0.000 A 
ATOM     27  C   UNL     1       7.196   8.542  17.073  0.00  0.00    +0.000 A 
ATOM     28  C   UNL     1       7.946   9.608  17.759  0.00  0.00    +0.000 A 
BRANCH  23  30
ATOM     29  C   UNL     1      10.408  11.143  18.931  0.00  0.00    +0.000 C 
ATOM     30  O   UNL     1       9.498  10.256  19.595  0.00  0.00    +0.000 OA
ENDBRANCH  23  30
ENDBRANCH  20  26
ENDBRANCH   1  20
TORSDOF 5
ENDMDL
MODEL 8
REMARK VINA RESULT:      -8.6      6.144      9.753
REMARK  Name = 
REMARK  6 active torsions:
REMARK  status: ('A' for Active; 'I' for Inactive)
REMARK    1  A    between atoms: C_1  and  O_2
REMARK    2  A    between atoms: O_2  and  C_3
REMARK    3  A    between atoms: C_6  and  S_7
REMARK    4  A    between atoms: S_7  and  N_10
REMARK    5  A    between atoms: C_18  and  C_19
REMARK    6  A    between atoms: C_22  and  C_23
REMARK                            x       y       z     vdW  Elec       q    Type
REMARK                         _______ _______ _______ _____ _____    ______ ____
ROOT
ATOM      1  N   UNL     1      -2.332  11.970  22.014  0.00  0.00    +0.000 N 
ATOM      2  C   UNL     1      -2.318  13.128  22.848  0.00  0.00    +0.000 A 
ATOM      3  C   UNL     1      -3.547  12.725  23.243  0.00  0.00    +0.000 A 
ATOM      4 CL   UNL     1      -4.185  12.370  24.752  0.00  0.00    +0.000 Cl
ATOM      5  C   UNL     1      -4.192  12.814  22.000  0.00  0.00    +0.000 A 
ATOM      6  C   UNL     1      -5.443  13.505  21.846  0.00  0.00    +0.000 A 
ATOM      7  C   UNL     1      -6.104  13.723  20.687  0.00  0.00    +0.000 A 
ATOM      8  C   UNL     1      -5.509  13.123  19.632  0.00  0.00    +0.000 A 
ATOM      9  C   UNL     1      -4.226  12.359  19.688  0.00  0.00    +0.000 A 
ATOM     10  C   UNL     1      -3.236  12.140  20.873  0.00  0.00    +0.000 A 
ENDROOT
BRANCH   9  11
ATOM     11  C   UNL     1      -3.989  11.790  18.252  0.00  0.00    +0.000 A 
ATOM     12  C   UNL     1      -4.878  11.923  17.174  0.00  0.00    +0.000 A 
ATOM     13  C   UNL     1      -4.644  11.331  15.897  0.00  0.00    +0.000 A 
ATOM     14  C   UNL     1      -3.466  10.630  15.628  0.00  0.00    +0.000 A 
ATOM     15  C   UNL     1      -2.579  10.458  16.679  0.00  0.00    +0.000 A 
ATOM     16  F   UNL     1      -1.502   9.670  16.522  0.00  0.00    +0.000 F 
ATOM     17  C   UNL     1      -2.825  11.022  17.951  0.00  0.00    +0.000 A 
BRANCH  14  18
ATOM     18  C   UNL     1      -3.185  10.096  14.320  0.00  0.00    +0.000 C 
ATOM     19  N   UNL     1      -2.928   9.655  13.275  0.00  0.00    +0.000 NA
ENDBRANCH  14  18
ENDBRANCH   9  11
BRANCH   1  20
ATOM     20  S   UNL     1      -0.414  11.314  22.251  0.00  0.00    +0.000 S 
ATOM     21  O   UNL     1      -0.483  10.641  23.531  0.00  0.00    +0.000 OA
ATOM     22  O   UNL     1       0.376  12.535  22.096  0.00  0.00    +0.000 OA
BRANCH  20  26
ATOM     23  C   UNL     1       1.939   8.054  19.367  0.00  0.00    +0.000 A 
ATOM     24  C   UNL     1       1.730   7.908  20.742  0.00  0.00    +0.000 A 
ATOM     25  C   UNL     1       0.975   8.859  21.518  0.00  0.00    +0.000 A 
ATOM     26  C   UNL     1       0.366  10.003  20.968  0.00  0.00    +0.000 A 
ATOM     27  C   UNL     1       0.613  10.179  19.568  0.00  0.00    +0.000 A 
ATOM     28  C   UNL     1       1.372   9.188  18.785  0.00  0.00    +0.000 A 
BRANCH  23  30
ATOM     29  C   UNL     1       2.621   5.723  19.255  0.00  0.00    +0.000 C 
ATOM     30  O   UNL     1       2.675   7.066  18.757  0.00  0.00    +0.000 OA
ENDBRANCH  23  30
ENDBRANCH  20  26
ENDBRANCH   1  20
TORSDOF 5
ENDMDL
MODEL 9
REMARK VINA RESULT:      -8.4      5.964      9.564
REMARK  Name = 
REMARK  6 active torsions:
REMARK  status: ('A' for Active; 'I' for Inactive)
REMARK    1  A    between atoms: C_1  and  O_2
REMARK    2  A    between atoms: O_2  and  C_3
REMARK    3  A    between atoms: C_6  and  S_7
REMARK    4  A    between atoms: S_7  and  N_10
REMARK    5  A    between atoms: C_18  and  C_19
REMARK    6  A    between atoms: C_22  and  C_23
REMARK                            x       y       z     vdW  Elec       q    Type
REMARK                         _______ _______ _______ _____ _____    ______ ____
ROOT
ATOM      1  N   UNL     1      -0.255  12.784  20.556  0.00  0.00    +0.000 N 
ATOM      2  C   UNL     1      -1.579  13.079  20.999  0.00  0.00    +0.000 A 
ATOM      3  C   UNL     1      -1.076  12.942  22.247  0.00  0.00    +0.000 A 
ATOM      4 CL   UNL     1      -1.036  13.975  23.566  0.00  0.00    +0.000 Cl
ATOM      5  C   UNL     1      -0.694  11.594  22.157  0.00  0.00    +0.000 A 
ATOM      6  C   UNL     1      -1.066  10.636  23.162  0.00  0.00    +0.000 A 
ATOM      7  C   UNL     1      -0.826   9.305  23.132  0.00  0.00    +0.000 A 
ATOM      8  C   UNL     1      -0.082   8.938  22.065  0.00  0.00    +0.000 A 
ATOM      9  C   UNL     1       0.379   9.857  20.981  0.00  0.00    +0.000 A 
ATOM     10  C   UNL     1       0.071  11.368  20.742  0.00  0.00    +0.000 A 
ENDROOT
BRANCH   9  11
ATOM     11  C   UNL     1       1.266   8.998  20.023  0.00  0.00    +0.000 A 
ATOM     12  C   UNL     1       1.594   9.340  18.702  0.00  0.00    +0.000 A 
ATOM     13  C   UNL     1       2.357   8.492  17.845  0.00  0.00    +0.000 A 
ATOM     14  C   UNL     1       2.883   7.283  18.305  0.00  0.00    +0.000 A 
ATOM     15  C   UNL     1       2.556   6.902  19.597  0.00  0.00    +0.000 A 
ATOM     16  F   UNL     1       2.908   5.685  20.044  0.00  0.00    +0.000 F 
ATOM     17  C   UNL     1       1.777   7.731  20.436  0.00  0.00    +0.000 A 
BRANCH  14  18
ATOM     18  C   UNL     1       3.720   6.455  17.473  0.00  0.00    +0.000 C 
ATOM     19  N   UNL     1       4.405   5.771  16.829  0.00  0.00    +0.000 NA
ENDBRANCH  14  18
ENDBRANCH   9  11
BRANCH   1  20
ATOM     20  S   UNL     1      -0.065  14.119  19.024  0.00  0.00    +0.000 S 
ATOM     21  O   UNL     1      -0.766  15.274  19.545  0.00  0.00    +0.000 OA
ATOM     22  O   UNL     1      -0.595  13.385  17.876  0.00  0.00    +0.000 OA
BRANCH  20  26
ATOM     23  C   UNL     1       4.600  15.437  18.035  0.00  0.00    +0.000 A 
ATOM     24  C   UNL     1       4.149  14.122  18.178  0.00  0.00    +0.000 A 
ATOM     25  C   UNL     1       2.763  13.796  18.397  0.00  0.00    +0.000 A 
ATOM     26  C   UNL     1       1.738  14.760  18.467  0.00  0.00    +0.000 A 
ATOM     27  C   UNL     1       2.202  16.111  18.363  0.00  0.00    +0.000 A 
ATOM     28  C   UNL     1       3.620  16.426  18.121  0.00  0.00    +0.000 A 
BRANCH  23  30
ATOM     29  C   UNL     1       6.825  14.464  17.912  0.00  0.00    +0.000 C 
ATOM     30  O   UNL     1       5.950  15.596  17.826  0.00  0.00    +0.000 OA
ENDBRANCH  23  30
ENDBRANCH  20  26
ENDBRANCH   1  20
TORSDOF 5
ENDMDL
