MODEL 1
REMARK VINA RESULT:      -7.1      0.000      0.000
REMARK  Name = 
REMARK  3 active torsions:
REMARK  status: ('A' for Active; 'I' for Inactive)
REMARK    1  A    between atoms: C_1  and  C_2
REMARK    2  A    between atoms: C_22  and  C_23
REMARK    3  A    between atoms: C_22  and  C_24
REMARK                            x       y       z     vdW  Elec       q    Type
REMARK                         _______ _______ _______ _____ _____    ______ ____
ROOT
ATOM      1  C   UNL     1       7.297   4.227  15.822  0.00  0.00    +0.000 C 
ATOM      2  C   UNL     1       5.942   4.835  16.147  0.00  0.00    +0.000 C 
ATOM      3  C   UNL     1       6.024   6.342  16.027  0.00  0.00    +0.000 C 
ATOM      4  C   UNL     1       4.644   6.837  16.257  0.00  0.00    +0.000 C 
ATOM      5  O   UNL     1       4.118   7.642  15.505  0.00  0.00    +0.000 OA
ATOM      6  C   UNL     1       3.979   6.280  17.463  0.00  0.00    +0.000 A 
ATOM      7  C   UNL     1       4.473   5.114  18.003  0.00  0.00    +0.000 A 
ATOM      8  C   UNL     1       3.832   4.594  19.143  0.00  0.00    +0.000 A 
ATOM      9  C   UNL     1       2.750   5.285  19.789  0.00  0.00    +0.000 A 
ATOM     10  C   UNL     1       2.345   6.575  19.323  0.00  0.00    +0.000 A 
ATOM     11  C   UNL     1       1.442   7.631  19.933  0.00  0.00    +0.000 A 
ATOM     12  C   UNL     1       1.563   8.884  19.435  0.00  0.00    +0.000 A 
ATOM     13  C   UNL     1       2.479   9.136  18.309  0.00  0.00    +0.000 A 
ATOM     14  O   UNL     1       3.000  10.230  18.098  0.00  0.00    +0.000 OA
ATOM     15  O   UNL     1       2.483   8.109  17.435  0.00  0.00    +0.000 OA
ATOM     16  C   UNL     1       2.939   6.967  18.097  0.00  0.00    +0.000 A 
ATOM     17  C   UNL     1       0.865  10.129  19.864  0.00  0.00    +0.000 C 
ATOM     18  C   UNL     1      -0.346   9.921  20.733  0.00  0.00    +0.000 C 
ATOM     19  C   UNL     1      -0.387   8.617  21.530  0.00  0.00    +0.000 C 
ATOM     20  C   UNL     1       0.505   7.415  21.089  0.00  0.00    +0.000 C 
ATOM     21  O   UNL     1       2.121   4.690  20.868  0.00  0.00    +0.000 OA
ATOM     22  C   UNL     1       2.134   3.223  20.888  0.00  0.00    +0.000 C 
ATOM     23  C   UNL     1       1.899   2.748  22.330  0.00  0.00    +0.000 C 
ATOM     24  C   UNL     1       1.002   2.697  19.997  0.00  0.00    +0.000 C 
ATOM     25  C   UNL     1       3.450   2.628  20.448  0.00  0.00    +0.000 C 
ATOM     26  C   UNL     1       4.282   3.295  19.655  0.00  0.00    +0.000 C 
ATOM     27  O   UNL     1       5.556   4.445  17.481  0.00  0.00    +0.000 OA
ENDROOT
TORSDOF 0
ENDMDL
MODEL 2
REMARK VINA RESULT:      -7.0      7.101     11.219
REMARK  Name = 
REMARK  3 active torsions:
REMARK  status: ('A' for Active; 'I' for Inactive)
REMARK    1  A    between atoms: C_1  and  C_2
REMARK    2  A    between atoms: C_22  and  C_23
REMARK    3  A    between atoms: C_22  and  C_24
REMARK                            x       y       z     vdW  Elec       q    Type
REMARK                         _______ _______ _______ _____ _____    ______ ____
ROOT
ATOM      1  C   UNL     1      -2.084  16.034  25.319  0.00  0.00    +0.000 C 
ATOM      2  C   UNL     1      -2.284  14.831  24.411  0.00  0.00    +0.000 C 
ATOM      3  C   UNL     1      -0.955  14.429  23.808  0.00  0.00    +0.000 C 
ATOM      4  C   UNL     1      -1.227  13.196  23.028  0.00  0.00    +0.000 C 
ATOM      5  O   UNL     1      -0.530  12.200  23.140  0.00  0.00    +0.000 OA
ATOM      6  C   UNL     1      -2.396  13.285  22.116  0.00  0.00    +0.000 A 
ATOM      7  C   UNL     1      -3.334  14.266  22.348  0.00  0.00    +0.000 A 
ATOM      8  C   UNL     1      -4.439  14.338  21.478  0.00  0.00    +0.000 A 
ATOM      9  C   UNL     1      -4.561  13.482  20.330  0.00  0.00    +0.000 A 
ATOM     10  C   UNL     1      -3.506  12.575  19.999  0.00  0.00    +0.000 A 
ATOM     11  C   UNL     1      -3.234  11.756  18.751  0.00  0.00    +0.000 A 
ATOM     12  C   UNL     1      -1.969  11.299  18.597  0.00  0.00    +0.000 A 
ATOM     13  C   UNL     1      -0.971  11.545  19.652  0.00  0.00    +0.000 A 
ATOM     14  O   UNL     1       0.238  11.599  19.436  0.00  0.00    +0.000 OA
ATOM     15  O   UNL     1      -1.522  11.470  20.881  0.00  0.00    +0.000 OA
ATOM     16  C   UNL     1      -2.499  12.462  20.990  0.00  0.00    +0.000 A 
ATOM     17  C   UNL     1      -1.388  10.528  17.461  0.00  0.00    +0.000 C 
ATOM     18  C   UNL     1      -2.390   9.907  16.526  0.00  0.00    +0.000 C 
ATOM     19  C   UNL     1      -3.764  10.572  16.474  0.00  0.00    +0.000 C 
ATOM     20  C   UNL     1      -4.221  11.494  17.648  0.00  0.00    +0.000 C 
ATOM     21  O   UNL     1      -5.701  13.560  19.551  0.00  0.00    +0.000 OA
ATOM     22  C   UNL     1      -6.921  13.992  20.243  0.00  0.00    +0.000 C 
ATOM     23  C   UNL     1      -7.915  14.528  19.201  0.00  0.00    +0.000 C 
ATOM     24  C   UNL     1      -7.547  12.788  20.959  0.00  0.00    +0.000 C 
ATOM     25  C   UNL     1      -6.687  15.109  21.231  0.00  0.00    +0.000 C 
ATOM     26  C   UNL     1      -5.496  15.307  21.787  0.00  0.00    +0.000 C 
ATOM     27  O   UNL     1      -3.236  15.169  23.381  0.00  0.00    +0.000 OA
ENDROOT
TORSDOF 0
ENDMDL
MODEL 3
REMARK VINA RESULT:      -7.0      7.729     11.268
REMARK  Name = 
REMARK  3 active torsions:
REMARK  status: ('A' for Active; 'I' for Inactive)
REMARK    1  A    between atoms: C_1  and  C_2
REMARK    2  A    between atoms: C_22  and  C_23
REMARK    3  A    between atoms: C_22  and  C_24
REMARK                            x       y       z     vdW  Elec       q    Type
REMARK                         _______ _______ _______ _____ _____    ______ ____
ROOT
ATOM      1  C   UNL     1      -0.936  15.678  26.285  0.00  0.00    +0.000 C 
ATOM      2  C   UNL     1      -1.778  15.520  25.029  0.00  0.00    +0.000 C 
ATOM      3  C   UNL     1      -3.106  14.888  25.390  0.00  0.00    +0.000 C 
ATOM      4  C   UNL     1      -3.894  14.869  24.133  0.00  0.00    +0.000 C 
ATOM      5  O   UNL     1      -5.046  15.272  24.092  0.00  0.00    +0.000 OA
ATOM      6  C   UNL     1      -3.171  14.322  22.956  0.00  0.00    +0.000 A 
ATOM      7  C   UNL     1      -1.796  14.275  22.997  0.00  0.00    +0.000 A 
ATOM      8  C   UNL     1      -1.121  13.758  21.875  0.00  0.00    +0.000 A 
ATOM      9  C   UNL     1      -1.827  13.213  20.747  0.00  0.00    +0.000 A 
ATOM     10  C   UNL     1      -3.254  13.114  20.776  0.00  0.00    +0.000 A 
ATOM     11  C   UNL     1      -4.233  12.375  19.882  0.00  0.00    +0.000 A 
ATOM     12  C   UNL     1      -5.469  12.166  20.391  0.00  0.00    +0.000 A 
ATOM     13  C   UNL     1      -5.817  12.716  21.713  0.00  0.00    +0.000 A 
ATOM     14  O   UNL     1      -6.678  12.226  22.441  0.00  0.00    +0.000 OA
ATOM     15  O   UNL     1      -5.252  13.925  21.910  0.00  0.00    +0.000 OA
ATOM     16  C   UNL     1      -3.864  13.776  21.871  0.00  0.00    +0.000 A 
ATOM     17  C   UNL     1      -6.614  11.428  19.785  0.00  0.00    +0.000 C 
ATOM     18  C   UNL     1      -6.496  11.158  18.310  0.00  0.00    +0.000 C 
ATOM     19  C   UNL     1      -5.078  11.119  17.744  0.00  0.00    +0.000 C 
ATOM     20  C   UNL     1      -3.912  11.790  18.536  0.00  0.00    +0.000 C 
ATOM     21  O   UNL     1      -1.108  12.779  19.649  0.00  0.00    +0.000 OA
ATOM     22  C   UNL     1       0.179  13.447  19.421  0.00  0.00    +0.000 C 
ATOM     23  C   UNL     1       1.058  12.539  18.548  0.00  0.00    +0.000 C 
ATOM     24  C   UNL     1      -0.065  14.769  18.681  0.00  0.00    +0.000 C 
ATOM     25  C   UNL     1       0.954  13.707  20.690  0.00  0.00    +0.000 C 
ATOM     26  C   UNL     1       0.345  13.810  21.867  0.00  0.00    +0.000 C 
ATOM     27  O   UNL     1      -1.061  14.706  24.079  0.00  0.00    +0.000 OA
ENDROOT
TORSDOF 0
ENDMDL
MODEL 4
REMARK VINA RESULT:      -6.9      6.360     11.211
REMARK  Name = 
REMARK  3 active torsions:
REMARK  status: ('A' for Active; 'I' for Inactive)
REMARK    1  A    between atoms: C_1  and  C_2
REMARK    2  A    between atoms: C_22  and  C_23
REMARK    3  A    between atoms: C_22  and  C_24
REMARK                            x       y       z     vdW  Elec       q    Type
REMARK                         _______ _______ _______ _____ _____    ______ ____
ROOT
ATOM      1  C   UNL     1      -4.574  16.914  24.798  0.00  0.00    +0.000 C 
ATOM      2  C   UNL     1      -4.032  15.615  24.225  0.00  0.00    +0.000 C 
ATOM      3  C   UNL     1      -2.524  15.703  24.115  0.00  0.00    +0.000 C 
ATOM      4  C   UNL     1      -2.079  14.366  23.650  0.00  0.00    +0.000 C 
ATOM      5  O   UNL     1      -1.168  13.766  24.200  0.00  0.00    +0.000 OA
ATOM      6  C   UNL     1      -2.823  13.837  22.478  0.00  0.00    +0.000 A 
ATOM      7  C   UNL     1      -4.057  14.375  22.190  0.00  0.00    +0.000 A 
ATOM      8  C   UNL     1      -4.754  13.864  21.078  0.00  0.00    +0.000 A 
ATOM      9  C   UNL     1      -4.179  12.874  20.210  0.00  0.00    +0.000 A 
ATOM     10  C   UNL     1      -2.833  12.435  20.416  0.00  0.00    +0.000 A 
ATOM     11  C   UNL     1      -1.891  11.623  19.546  0.00  0.00    +0.000 A 
ATOM     12  C   UNL     1      -0.575  11.702  19.852  0.00  0.00    +0.000 A 
ATOM     13  C   UNL     1      -0.143  12.484  21.023  0.00  0.00    +0.000 A 
ATOM     14  O   UNL     1       0.972  12.992  21.119  0.00  0.00    +0.000 OA
ATOM     15  O   UNL     1      -1.020  12.374  22.042  0.00  0.00    +0.000 OA
ATOM     16  C   UNL     1      -2.250  12.888  21.626  0.00  0.00    +0.000 A 
ATOM     17  C   UNL     1       0.583  11.076  19.153  0.00  0.00    +0.000 C 
ATOM     18  C   UNL     1       0.234   9.972  18.192  0.00  0.00    +0.000 C 
ATOM     19  C   UNL     1      -1.179  10.006  17.612  0.00  0.00    +0.000 C 
ATOM     20  C   UNL     1      -2.292  10.824  18.338  0.00  0.00    +0.000 C 
ATOM     21  O   UNL     1      -4.939  12.367  19.172  0.00  0.00    +0.000 OA
ATOM     22  C   UNL     1      -6.391  12.362  19.384  0.00  0.00    +0.000 C 
ATOM     23  C   UNL     1      -7.090  12.290  18.018  0.00  0.00    +0.000 C 
ATOM     24  C   UNL     1      -6.776  11.127  20.209  0.00  0.00    +0.000 C 
ATOM     25  C   UNL     1      -6.903  13.610  20.063  0.00  0.00    +0.000 C 
ATOM     26  C   UNL     1      -6.115  14.354  20.834  0.00  0.00    +0.000 C 
ATOM     27  O   UNL     1      -4.630  15.382  22.933  0.00  0.00    +0.000 OA
ENDROOT
TORSDOF 0
ENDMDL
MODEL 5
REMARK VINA RESULT:      -6.9      4.811      8.953
REMARK  Name = 
REMARK  3 active torsions:
REMARK  status: ('A' for Active; 'I' for Inactive)
REMARK    1  A    between atoms: C_1  and  C_2
REMARK    2  A    between atoms: C_22  and  C_23
REMARK    3  A    between atoms: C_22  and  C_24
REMARK                            x       y       z     vdW  Elec       q    Type
REMARK                         _______ _______ _______ _____ _____    ______ ____
ROOT
ATOM      1  C   UNL     1       1.740   7.585  19.978  0.00  0.00    +0.000 C 
ATOM      2  C   UNL     1       1.379   8.786  20.837  0.00  0.00    +0.000 C 
ATOM      3  C   UNL     1       0.032   8.554  21.488  0.00  0.00    +0.000 C 
ATOM      4  C   UNL     1      -0.187   9.719  22.380  0.00  0.00    +0.000 C 
ATOM      5  O   UNL     1      -0.537   9.581  23.541  0.00  0.00    +0.000 OA
ATOM      6  C   UNL     1       0.048  11.041  21.742  0.00  0.00    +0.000 A 
ATOM      7  C   UNL     1       0.808  11.088  20.595  0.00  0.00    +0.000 A 
ATOM      8  C   UNL     1       1.026  12.345  20.002  0.00  0.00    +0.000 A 
ATOM      9  C   UNL     1       0.416  13.543  20.512  0.00  0.00    +0.000 A 
ATOM     10  C   UNL     1      -0.503  13.469  21.605  0.00  0.00    +0.000 A 
ATOM     11  C   UNL     1      -1.473  14.484  22.179  0.00  0.00    +0.000 A 
ATOM     12  C   UNL     1      -2.465  13.993  22.957  0.00  0.00    +0.000 A 
ATOM     13  C   UNL     1      -2.508  12.552  23.263  0.00  0.00    +0.000 A 
ATOM     14  O   UNL     1      -3.546  11.952  23.537  0.00  0.00    +0.000 OA
ATOM     15  O   UNL     1      -1.269  12.045  23.428  0.00  0.00    +0.000 OA
ATOM     16  C   UNL     1      -0.565  12.198  22.232  0.00  0.00    +0.000 A 
ATOM     17  C   UNL     1      -3.590  14.724  23.606  0.00  0.00    +0.000 C 
ATOM     18  C   UNL     1      -3.432  16.219  23.673  0.00  0.00    +0.000 C 
ATOM     19  C   UNL     1      -2.516  16.847  22.624  0.00  0.00    +0.000 C 
ATOM     20  C   UNL     1      -1.469  15.958  21.882  0.00  0.00    +0.000 C 
ATOM     21  O   UNL     1       0.721  14.756  19.922  0.00  0.00    +0.000 OA
ATOM     22  C   UNL     1       2.045  14.850  19.296  0.00  0.00    +0.000 C 
ATOM     23  C   UNL     1       2.026  15.993  18.270  0.00  0.00    +0.000 C 
ATOM     24  C   UNL     1       3.091  15.163  20.375  0.00  0.00    +0.000 C 
ATOM     25  C   UNL     1       2.443  13.602  18.544  0.00  0.00    +0.000 C 
ATOM     26  C   UNL     1       1.927  12.415  18.846  0.00  0.00    +0.000 C 
ATOM     27  O   UNL     1       1.354   9.968  20.010  0.00  0.00    +0.000 OA
ENDROOT
TORSDOF 0
ENDMDL
MODEL 6
REMARK VINA RESULT:      -6.8      5.702      8.658
REMARK  Name = 
REMARK  3 active torsions:
REMARK  status: ('A' for Active; 'I' for Inactive)
REMARK    1  A    between atoms: C_1  and  C_2
REMARK    2  A    between atoms: C_22  and  C_23
REMARK    3  A    between atoms: C_22  and  C_24
REMARK                            x       y       z     vdW  Elec       q    Type
REMARK                         _______ _______ _______ _____ _____    ______ ____
ROOT
ATOM      1  C   UNL     1      -3.041  10.006  14.485  0.00  0.00    +0.000 C 
ATOM      2  C   UNL     1      -3.435  10.268  15.930  0.00  0.00    +0.000 C 
ATOM      3  C   UNL     1      -4.304  11.506  15.999  0.00  0.00    +0.000 C 
ATOM      4  C   UNL     1      -4.721  11.622  17.418  0.00  0.00    +0.000 C 
ATOM      5  O   UNL     1      -5.887  11.804  17.730  0.00  0.00    +0.000 OA
ATOM      6  C   UNL     1      -3.614  11.505  18.402  0.00  0.00    +0.000 A 
ATOM      7  C   UNL     1      -2.439  10.914  17.997  0.00  0.00    +0.000 A 
ATOM      8  C   UNL     1      -1.399  10.805  18.939  0.00  0.00    +0.000 A 
ATOM      9  C   UNL     1      -1.507  11.363  20.259  0.00  0.00    +0.000 A 
ATOM     10  C   UNL     1      -2.664  12.119  20.624  0.00  0.00    +0.000 A 
ATOM     11  C   UNL     1      -2.949  13.020  21.812  0.00  0.00    +0.000 A 
ATOM     12  C   UNL     1      -3.982  13.884  21.675  0.00  0.00    +0.000 A 
ATOM     13  C   UNL     1      -4.801  13.854  20.451  0.00  0.00    +0.000 A 
ATOM     14  O   UNL     1      -5.418  14.831  20.030  0.00  0.00    +0.000 OA
ATOM     15  O   UNL     1      -4.971  12.594  20.000  0.00  0.00    +0.000 OA
ATOM     16  C   UNL     1      -3.719  12.067  19.678  0.00  0.00    +0.000 A 
ATOM     17  C   UNL     1      -4.461  14.922  22.631  0.00  0.00    +0.000 C 
ATOM     18  C   UNL     1      -3.948  14.787  24.039  0.00  0.00    +0.000 C 
ATOM     19  C   UNL     1      -2.626  14.039  24.204  0.00  0.00    +0.000 C 
ATOM     20  C   UNL     1      -2.129  13.088  23.070  0.00  0.00    +0.000 C 
ATOM     21  O   UNL     1      -0.474  11.168  21.158  0.00  0.00    +0.000 OA
ATOM     22  C   UNL     1       0.317   9.946  20.970  0.00  0.00    +0.000 C 
ATOM     23  C   UNL     1       1.680  10.131  21.653  0.00  0.00    +0.000 C 
ATOM     24  C   UNL     1      -0.415   8.767  21.625  0.00  0.00    +0.000 C 
ATOM     25  C   UNL     1       0.600   9.631  19.521  0.00  0.00    +0.000 C 
ATOM     26  C   UNL     1      -0.187  10.077  18.547  0.00  0.00    +0.000 C 
ATOM     27  O   UNL     1      -2.241  10.431  16.723  0.00  0.00    +0.000 OA
ENDROOT
TORSDOF 0
ENDMDL
MODEL 7
REMARK VINA RESULT:      -6.8      6.911      9.476
REMARK  Name = 
REMARK  3 active torsions:
REMARK  status: ('A' for Active; 'I' for Inactive)
REMARK    1  A    between atoms: C_1  and  C_2
REMARK    2  A    between atoms: C_22  and  C_23
REMARK    3  A    between atoms: C_22  and  C_24
REMARK                            x       y       z     vdW  Elec       q    Type
REMARK                         _______ _______ _______ _____ _____    ______ ____
ROOT
ATOM      1  C   UNL     1      -3.028  10.124  14.667  0.00  0.00    +0.000 C 
ATOM      2  C   UNL     1      -3.305  10.375  16.141  0.00  0.00    +0.000 C 
ATOM      3  C   UNL     1      -4.622  11.107  16.289  0.00  0.00    +0.000 C 
ATOM      4  C   UNL     1      -4.857  11.215  17.750  0.00  0.00    +0.000 C 
ATOM      5  O   UNL     1      -5.928  10.909  18.251  0.00  0.00    +0.000 OA
ATOM      6  C   UNL     1      -3.699  11.723  18.529  0.00  0.00    +0.000 A 
ATOM      7  C   UNL     1      -2.447  11.655  17.959  0.00  0.00    +0.000 A 
ATOM      8  C   UNL     1      -1.357  12.136  18.709  0.00  0.00    +0.000 A 
ATOM      9  C   UNL     1      -1.531  12.758  19.992  0.00  0.00    +0.000 A 
ATOM     10  C   UNL     1      -2.847  12.975  20.510  0.00  0.00    +0.000 A 
ATOM     11  C   UNL     1      -3.350  13.808  21.674  0.00  0.00    +0.000 A 
ATOM     12  C   UNL     1      -4.670  14.109  21.671  0.00  0.00    +0.000 A 
ATOM     13  C   UNL     1      -5.539  13.564  20.614  0.00  0.00    +0.000 A 
ATOM     14  O   UNL     1      -6.580  14.110  20.250  0.00  0.00    +0.000 OA
ATOM     15  O   UNL     1      -5.179  12.309  20.274  0.00  0.00    +0.000 OA
ATOM     16  C   UNL     1      -3.878  12.344  19.769  0.00  0.00    +0.000 A 
ATOM     17  C   UNL     1      -5.436  14.949  22.633  0.00  0.00    +0.000 C 
ATOM     18  C   UNL     1      -4.738  15.237  23.935  0.00  0.00    +0.000 C 
ATOM     19  C   UNL     1      -3.212  15.170  23.909  0.00  0.00    +0.000 C 
ATOM     20  C   UNL     1      -2.493  14.391  22.763  0.00  0.00    +0.000 C 
ATOM     21  O   UNL     1      -0.415  13.153  20.706  0.00  0.00    +0.000 OA
ATOM     22  C   UNL     1       0.811  12.386  20.454  0.00  0.00    +0.000 C 
ATOM     23  C   UNL     1       2.020  13.235  20.875  0.00  0.00    +0.000 C 
ATOM     24  C   UNL     1       0.783  11.103  21.295  0.00  0.00    +0.000 C 
ATOM     25  C   UNL     1       1.014  12.039  18.998  0.00  0.00    +0.000 C 
ATOM     26  C   UNL     1      -0.010  11.964  18.154  0.00  0.00    +0.000 C 
ATOM     27  O   UNL     1      -2.221  11.145  16.701  0.00  0.00    +0.000 OA
ENDROOT
TORSDOF 0
ENDMDL
MODEL 8
REMARK VINA RESULT:      -6.8      7.124      9.689
REMARK  Name = 
REMARK  3 active torsions:
REMARK  status: ('A' for Active; 'I' for Inactive)
REMARK    1  A    between atoms: C_1  and  C_2
REMARK    2  A    between atoms: C_22  and  C_23
REMARK    3  A    between atoms: C_22  and  C_24
REMARK                            x       y       z     vdW  Elec       q    Type
REMARK                         _______ _______ _______ _____ _____    ______ ____
ROOT
ATOM      1  C   UNL     1       3.169  14.130  20.936  0.00  0.00    +0.000 C 
ATOM      2  C   UNL     1       1.895  13.309  20.825  0.00  0.00    +0.000 C 
ATOM      3  C   UNL     1       1.668  12.924  19.378  0.00  0.00    +0.000 C 
ATOM      4  C   UNL     1       0.472  12.046  19.381  0.00  0.00    +0.000 C 
ATOM      5  O   UNL     1       0.462  10.974  18.797  0.00  0.00    +0.000 OA
ATOM      6  C   UNL     1      -0.689  12.581  20.139  0.00  0.00    +0.000 A 
ATOM      7  C   UNL     1      -0.462  13.567  21.073  0.00  0.00    +0.000 A 
ATOM      8  C   UNL     1      -1.568  14.064  21.787  0.00  0.00    +0.000 A 
ATOM      9  C   UNL     1      -2.910  13.632  21.507  0.00  0.00    +0.000 A 
ATOM     10  C   UNL     1      -3.161  12.728  20.427  0.00  0.00    +0.000 A 
ATOM     11  C   UNL     1      -4.448  12.304  19.743  0.00  0.00    +0.000 A 
ATOM     12  C   UNL     1      -4.319  11.739  18.520  0.00  0.00    +0.000 A 
ATOM     13  C   UNL     1      -2.975  11.500  17.965  0.00  0.00    +0.000 A 
ATOM     14  O   UNL     1      -2.746  11.442  16.758  0.00  0.00    +0.000 OA
ATOM     15  O   UNL     1      -2.102  11.129  18.924  0.00  0.00    +0.000 OA
ATOM     16  C   UNL     1      -1.993  12.170  19.849  0.00  0.00    +0.000 A 
ATOM     17  C   UNL     1      -5.388  11.281  17.588  0.00  0.00    +0.000 C 
ATOM     18  C   UNL     1      -6.754  11.132  18.199  0.00  0.00    +0.000 C 
ATOM     19  C   UNL     1      -7.030  11.973  19.445  0.00  0.00    +0.000 C 
ATOM     20  C   UNL     1      -5.835  12.543  20.272  0.00  0.00    +0.000 C 
ATOM     21  O   UNL     1      -3.947  14.111  22.287  0.00  0.00    +0.000 OA
ATOM     22  C   UNL     1      -3.597  14.480  23.663  0.00  0.00    +0.000 C 
ATOM     23  C   UNL     1      -4.660  15.450  24.200  0.00  0.00    +0.000 C 
ATOM     24  C   UNL     1      -3.584  13.218  24.535  0.00  0.00    +0.000 C 
ATOM     25  C   UNL     1      -2.269  15.191  23.774  0.00  0.00    +0.000 C 
ATOM     26  C   UNL     1      -1.318  15.032  22.860  0.00  0.00    +0.000 C 
ATOM     27  O   UNL     1       0.788  14.083  21.332  0.00  0.00    +0.000 OA
ENDROOT
TORSDOF 0
ENDMDL
MODEL 9
REMARK VINA RESULT:      -6.7      5.229      9.444
REMARK  Name = 
REMARK  3 active torsions:
REMARK  status: ('A' for Active; 'I' for Inactive)
REMARK    1  A    between atoms: C_1  and  C_2
REMARK    2  A    between atoms: C_22  and  C_23
REMARK    3  A    between atoms: C_22  and  C_24
REMARK                            x       y       z     vdW  Elec       q    Type
REMARK                         _______ _______ _______ _____ _____    ______ ____
ROOT
ATOM      1  C   UNL     1       1.316   9.270  17.859  0.00  0.00    +0.000 C 
ATOM      2  C   UNL     1       1.125  10.012  19.172  0.00  0.00    +0.000 C 
ATOM      3  C   UNL     1      -0.170   9.568  19.818  0.00  0.00    +0.000 C 
ATOM      4  C   UNL     1      -0.220  10.259  21.130  0.00  0.00    +0.000 C 
ATOM      5  O   UNL     1      -0.471   9.658  22.163  0.00  0.00    +0.000 OA
ATOM      6  C   UNL     1       0.053  11.718  21.073  0.00  0.00    +0.000 A 
ATOM      7  C   UNL     1       0.706  12.219  19.970  0.00  0.00    +0.000 A 
ATOM      8  C   UNL     1       0.962  13.602  19.928  0.00  0.00    +0.000 A 
ATOM      9  C   UNL     1       0.492  14.494  20.953  0.00  0.00    +0.000 A 
ATOM     10  C   UNL     1      -0.326  13.996  22.015  0.00  0.00    +0.000 A 
ATOM     11  C   UNL     1      -1.162  14.706  23.064  0.00  0.00    +0.000 A 
ATOM     12  C   UNL     1      -2.112  13.963  23.677  0.00  0.00    +0.000 A 
ATOM     13  C   UNL     1      -2.233  12.529  23.363  0.00  0.00    +0.000 A 
ATOM     14  O   UNL     1      -3.283  11.900  23.482  0.00  0.00    +0.000 OA
ATOM     15  O   UNL     1      -1.026  11.963  23.161  0.00  0.00    +0.000 OA
ATOM     16  C   UNL     1      -0.424  12.582  22.063  0.00  0.00    +0.000 A 
ATOM     17  C   UNL     1      -3.116  14.388  24.694  0.00  0.00    +0.000 C 
ATOM     18  C   UNL     1      -2.842  15.712  25.354  0.00  0.00    +0.000 C 
ATOM     19  C   UNL     1      -1.982  16.695  24.560  0.00  0.00    +0.000 C 
ATOM     20  C   UNL     1      -1.076  16.168  23.403  0.00  0.00    +0.000 C 
ATOM     21  O   UNL     1       0.831  15.833  20.886  0.00  0.00    +0.000 OA
ATOM     22  C   UNL     1       2.095  16.141  20.208  0.00  0.00    +0.000 C 
ATOM     23  C   UNL     1       2.067  17.609  19.755  0.00  0.00    +0.000 C 
ATOM     24  C   UNL     1       3.255  15.943  21.193  0.00  0.00    +0.000 C 
ATOM     25  C   UNL     1       2.329  15.312  18.968  0.00  0.00    +0.000 C 
ATOM     26  C   UNL     1       1.756  14.123  18.810  0.00  0.00    +0.000 C 
ATOM     27  O   UNL     1       1.113  11.432  18.916  0.00  0.00    +0.000 OA
ENDROOT
TORSDOF 0
ENDMDL
