MODEL 1
REMARK VINA RESULT:      -7.9      0.000      0.000
REMARK  Name = 
REMARK  7 active torsions:
REMARK  status: ('A' for Active; 'I' for Inactive)
REMARK    1  A    between atoms: C_1  and  O_2
REMARK    2  A    between atoms: O_2  and  C_3
REMARK    3  A    between atoms: C_3  and  C_5
REMARK    4  A    between atoms: C_8  and  N_9
REMARK    5  A    between atoms: C_13  and  C_15
REMARK    6  A    between atoms: C_17  and  C_18
REMARK    7  A    between atoms: C_21  and  C_22
REMARK                            x       y       z     vdW  Elec       q    Type
REMARK                         _______ _______ _______ _____ _____    ______ ____
ROOT
ATOM      1  N   UNL     1       3.812   6.219  18.647  0.00  0.00    +0.000 N 
ATOM      2  C   UNL     1       3.659   5.657  17.306  0.00  0.00    +0.000 C 
ATOM      3  C   UNL     1       4.917   5.941  16.474  0.00  0.00    +0.000 C 
ATOM      4  N   UNL     1       6.159   5.516  17.147  0.00  0.00    +0.000 N 
ATOM      5  C   UNL     1       7.132   4.737  16.503  0.00  0.00    +0.000 C 
ATOM      6  O   UNL     1       8.007   4.148  17.128  0.00  0.00    +0.000 OA
ATOM      7  C   UNL     1       6.292   6.059  18.532  0.00  0.00    +0.000 C 
ATOM      8  C   UNL     1       7.524   5.670  19.352  0.00  0.00    +0.000 C 
ATOM      9  C   UNL     1       5.014   5.768  19.370  0.00  0.00    +0.000 C 
ENDROOT
BRANCH   1  13
ATOM     10  C   UNL     1       0.808   8.696  20.278  0.00  0.00    +0.000 A 
ATOM     11  C   UNL     1       1.239   7.561  20.962  0.00  0.00    +0.000 A 
ATOM     12  C   UNL     1       2.247   6.756  20.423  0.00  0.00    +0.000 A 
ATOM     13  C   UNL     1       2.854   7.046  19.190  0.00  0.00    +0.000 A 
ATOM     14  C   UNL     1       2.408   8.198  18.524  0.00  0.00    +0.000 A 
ATOM     15  C   UNL     1       1.400   9.013  19.054  0.00  0.00    +0.000 A 
BRANCH  10  16
ATOM     16  C   UNL     1      -0.261   9.520  20.895  0.00  0.00    +0.000 C 
ATOM     17  O   UNL     1      -0.744  10.506  20.365  0.00  0.00    +0.000 OA
BRANCH  16  19
ATOM     18  C   UNL     1      -0.478   9.956  23.177  0.00  0.00    +0.000 C 
ATOM     19  O   UNL     1      -0.607   9.021  22.107  0.00  0.00    +0.000 OA
ENDBRANCH  16  19
ENDBRANCH  10  16
ENDBRANCH   1  13
BRANCH   5  20
ATOM     20  C   UNL     1       7.062   4.619  15.053  0.00  0.00    +0.000 A 
ATOM     21  C   UNL     1       6.399   3.741  14.222  0.00  0.00    +0.000 A 
ATOM     22  C   UNL     1       6.777   4.128  12.915  0.00  0.00    +0.000 A 
ATOM     23  C   UNL     1       6.413   3.522  11.615  0.00  0.00    +0.000 C 
ATOM     24  N   UNL     1       7.603   5.179  12.942  0.00  0.00    +0.000 NA
ATOM     25  O   UNL     1       7.829   5.439  14.277  0.00  0.00    +0.000 OA
ENDBRANCH   5  20
TORSDOF 4
ENDMDL
MODEL 2
REMARK VINA RESULT:      -7.9      0.551      1.360
REMARK  Name = 
REMARK  7 active torsions:
REMARK  status: ('A' for Active; 'I' for Inactive)
REMARK    1  A    between atoms: C_1  and  O_2
REMARK    2  A    between atoms: O_2  and  C_3
REMARK    3  A    between atoms: C_3  and  C_5
REMARK    4  A    between atoms: C_8  and  N_9
REMARK    5  A    between atoms: C_13  and  C_15
REMARK    6  A    between atoms: C_17  and  C_18
REMARK    7  A    between atoms: C_21  and  C_22
REMARK                            x       y       z     vdW  Elec       q    Type
REMARK                         _______ _______ _______ _____ _____    ______ ____
ROOT
ATOM      1  N   UNL     1       3.737   6.216  18.633  0.00  0.00    +0.000 N 
ATOM      2  C   UNL     1       3.609   5.650  17.291  0.00  0.00    +0.000 C 
ATOM      3  C   UNL     1       4.878   5.941  16.478  0.00  0.00    +0.000 C 
ATOM      4  N   UNL     1       6.113   5.526  17.170  0.00  0.00    +0.000 N 
ATOM      5  C   UNL     1       7.100   4.753  16.543  0.00  0.00    +0.000 C 
ATOM      6  O   UNL     1       7.970   4.171  17.183  0.00  0.00    +0.000 OA
ATOM      7  C   UNL     1       6.220   6.073  18.556  0.00  0.00    +0.000 C 
ATOM      8  C   UNL     1       7.442   5.694  19.396  0.00  0.00    +0.000 C 
ATOM      9  C   UNL     1       4.931   5.775  19.375  0.00  0.00    +0.000 C 
ENDROOT
BRANCH   1  13
ATOM     10  C   UNL     1       0.827   8.794  20.276  0.00  0.00    +0.000 A 
ATOM     11  C   UNL     1       1.376   9.053  19.021  0.00  0.00    +0.000 A 
ATOM     12  C   UNL     1       2.326   8.184  18.477  0.00  0.00    +0.000 A 
ATOM     13  C   UNL     1       2.766   7.038  19.159  0.00  0.00    +0.000 A 
ATOM     14  C   UNL     1       2.193   6.794  20.417  0.00  0.00    +0.000 A 
ATOM     15  C   UNL     1       1.240   7.656  20.973  0.00  0.00    +0.000 A 
BRANCH  10  16
ATOM     16  C   UNL     1      -0.182   9.744  20.808  0.00  0.00    +0.000 C 
ATOM     17  O   UNL     1      -0.422   9.878  21.996  0.00  0.00    +0.000 OA
BRANCH  16  19
ATOM     18  C   UNL     1      -1.324  11.681  20.184  0.00  0.00    +0.000 C 
ATOM     19  O   UNL     1      -0.778  10.421  19.796  0.00  0.00    +0.000 OA
ENDBRANCH  16  19
ENDBRANCH  10  16
ENDBRANCH   1  13
BRANCH   5  20
ATOM     20  C   UNL     1       7.053   4.631  15.093  0.00  0.00    +0.000 A 
ATOM     21  C   UNL     1       6.406   3.749  14.254  0.00  0.00    +0.000 A 
ATOM     22  C   UNL     1       6.804   4.134  12.952  0.00  0.00    +0.000 A 
ATOM     23  C   UNL     1       6.462   3.525  11.647  0.00  0.00    +0.000 C 
ATOM     24  N   UNL     1       7.626   5.188  12.989  0.00  0.00    +0.000 NA
ATOM     25  O   UNL     1       7.830   5.451  14.327  0.00  0.00    +0.000 OA
ENDBRANCH   5  20
TORSDOF 4
ENDMDL
MODEL 3
REMARK VINA RESULT:      -7.7      1.880      2.738
REMARK  Name = 
REMARK  7 active torsions:
REMARK  status: ('A' for Active; 'I' for Inactive)
REMARK    1  A    between atoms: C_1  and  O_2
REMARK    2  A    between atoms: O_2  and  C_3
REMARK    3  A    between atoms: C_3  and  C_5
REMARK    4  A    between atoms: C_8  and  N_9
REMARK    5  A    between atoms: C_13  and  C_15
REMARK    6  A    between atoms: C_17  and  C_18
REMARK    7  A    between atoms: C_21  and  C_22
REMARK                            x       y       z     vdW  Elec       q    Type
REMARK                         _______ _______ _______ _____ _____    ______ ____
ROOT
ATOM      1  N   UNL     1       2.088   6.981  19.218  0.00  0.00    +0.000 N 
ATOM      2  C   UNL     1       2.721   7.119  17.906  0.00  0.00    +0.000 C 
ATOM      3  C   UNL     1       4.091   6.429  17.912  0.00  0.00    +0.000 C 
ATOM      4  N   UNL     1       4.030   5.033  18.386  0.00  0.00    +0.000 N 
ATOM      5  C   UNL     1       4.622   3.975  17.680  0.00  0.00    +0.000 C 
ATOM      6  O   UNL     1       4.333   2.805  17.906  0.00  0.00    +0.000 OA
ATOM      7  C   UNL     1       3.347   4.891  19.706  0.00  0.00    +0.000 C 
ATOM      8  C   UNL     1       3.189   3.488  20.298  0.00  0.00    +0.000 C 
ATOM      9  C   UNL     1       1.958   5.593  19.694  0.00  0.00    +0.000 C 
ENDROOT
BRANCH   1  13
ATOM     10  C   UNL     1       0.679  10.371  21.300  0.00  0.00    +0.000 A 
ATOM     11  C   UNL     1       0.875  10.417  19.921  0.00  0.00    +0.000 A 
ATOM     12  C   UNL     1       1.325   9.284  19.237  0.00  0.00    +0.000 A 
ATOM     13  C   UNL     1       1.599   8.075  19.896  0.00  0.00    +0.000 A 
ATOM     14  C   UNL     1       1.387   8.051  21.283  0.00  0.00    +0.000 A 
ATOM     15  C   UNL     1       0.936   9.179  21.980  0.00  0.00    +0.000 A 
BRANCH  10  16
ATOM     16  C   UNL     1       0.195  11.599  21.979  0.00  0.00    +0.000 C 
ATOM     17  O   UNL     1       0.409  12.727  21.568  0.00  0.00    +0.000 OA
BRANCH  16  19
ATOM     18  C   UNL     1      -1.883  11.639  23.039  0.00  0.00    +0.000 C 
ATOM     19  O   UNL     1      -0.503  11.281  23.097  0.00  0.00    +0.000 OA
ENDBRANCH  16  19
ENDBRANCH  10  16
ENDBRANCH   1  13
BRANCH   5  20
ATOM     20  C   UNL     1       5.582   4.304  16.636  0.00  0.00    +0.000 A 
ATOM     21  C   UNL     1       5.479   4.368  15.263  0.00  0.00    +0.000 A 
ATOM     22  C   UNL     1       6.781   4.698  14.819  0.00  0.00    +0.000 A 
ATOM     23  C   UNL     1       7.289   4.859  13.439  0.00  0.00    +0.000 C 
ATOM     24  N   UNL     1       7.621   4.840  15.849  0.00  0.00    +0.000 NA
ATOM     25  O   UNL     1       6.886   4.529  16.973  0.00  0.00    +0.000 OA
ENDBRANCH   5  20
TORSDOF 4
ENDMDL
MODEL 4
REMARK VINA RESULT:      -7.7      1.828      2.396
REMARK  Name = 
REMARK  7 active torsions:
REMARK  status: ('A' for Active; 'I' for Inactive)
REMARK    1  A    between atoms: C_1  and  O_2
REMARK    2  A    between atoms: O_2  and  C_3
REMARK    3  A    between atoms: C_3  and  C_5
REMARK    4  A    between atoms: C_8  and  N_9
REMARK    5  A    between atoms: C_13  and  C_15
REMARK    6  A    between atoms: C_17  and  C_18
REMARK    7  A    between atoms: C_21  and  C_22
REMARK                            x       y       z     vdW  Elec       q    Type
REMARK                         _______ _______ _______ _____ _____    ______ ____
ROOT
ATOM      1  N   UNL     1       2.187   7.065  19.050  0.00  0.00    +0.000 N 
ATOM      2  C   UNL     1       2.780   7.236  17.724  0.00  0.00    +0.000 C 
ATOM      3  C   UNL     1       4.158   6.561  17.677  0.00  0.00    +0.000 C 
ATOM      4  N   UNL     1       4.126   5.156  18.126  0.00  0.00    +0.000 N 
ATOM      5  C   UNL     1       4.710   4.119  17.383  0.00  0.00    +0.000 C 
ATOM      6  O   UNL     1       4.441   2.942  17.594  0.00  0.00    +0.000 OA
ATOM      7  C   UNL     1       3.483   4.981  19.462  0.00  0.00    +0.000 C 
ATOM      8  C   UNL     1       3.359   3.566  20.031  0.00  0.00    +0.000 C 
ATOM      9  C   UNL     1       2.087   5.667  19.503  0.00  0.00    +0.000 C 
ENDROOT
BRANCH   1  13
ATOM     10  C   UNL     1       0.625  10.321  21.234  0.00  0.00    +0.000 A 
ATOM     11  C   UNL     1       0.967   9.135  21.879  0.00  0.00    +0.000 A 
ATOM     12  C   UNL     1       1.500   8.067  21.151  0.00  0.00    +0.000 A 
ATOM     13  C   UNL     1       1.706   8.140  19.763  0.00  0.00    +0.000 A 
ATOM     14  C   UNL     1       1.361   9.347  19.138  0.00  0.00    +0.000 A 
ATOM     15  C   UNL     1       0.827  10.425  19.856  0.00  0.00    +0.000 A 
BRANCH  10  16
ATOM     16  C   UNL     1       0.067  11.427  22.052  0.00  0.00    +0.000 C 
ATOM     17  O   UNL     1       0.266  12.607  21.818  0.00  0.00    +0.000 OA
BRANCH  16  19
ATOM     18  C   UNL     1      -1.955  11.556  23.209  0.00  0.00    +0.000 C 
ATOM     19  O   UNL     1      -0.678  10.935  23.073  0.00  0.00    +0.000 OA
ENDBRANCH  16  19
ENDBRANCH  10  16
ENDBRANCH   1  13
BRANCH   5  20
ATOM     20  C   UNL     1       5.636   4.479  16.319  0.00  0.00    +0.000 A 
ATOM     21  C   UNL     1       5.578   4.343  14.949  0.00  0.00    +0.000 A 
ATOM     22  C   UNL     1       6.816   4.845  14.484  0.00  0.00    +0.000 A 
ATOM     23  C   UNL     1       7.341   4.915  13.102  0.00  0.00    +0.000 C 
ATOM     24  N   UNL     1       7.575   5.273  15.498  0.00  0.00    +0.000 NA
ATOM     25  O   UNL     1       6.864   4.983  16.642  0.00  0.00    +0.000 OA
ENDBRANCH   5  20
TORSDOF 4
ENDMDL
MODEL 5
REMARK VINA RESULT:      -7.3      2.009      2.865
REMARK  Name = 
REMARK  7 active torsions:
REMARK  status: ('A' for Active; 'I' for Inactive)
REMARK    1  A    between atoms: C_1  and  O_2
REMARK    2  A    between atoms: O_2  and  C_3
REMARK    3  A    between atoms: C_3  and  C_5
REMARK    4  A    between atoms: C_8  and  N_9
REMARK    5  A    between atoms: C_13  and  C_15
REMARK    6  A    between atoms: C_17  and  C_18
REMARK    7  A    between atoms: C_21  and  C_22
REMARK                            x       y       z     vdW  Elec       q    Type
REMARK                         _______ _______ _______ _____ _____    ______ ____
ROOT
ATOM      1  N   UNL     1       2.108   7.257  19.015  0.00  0.00    +0.000 N 
ATOM      2  C   UNL     1       2.700   7.375  17.683  0.00  0.00    +0.000 C 
ATOM      3  C   UNL     1       4.097   6.740  17.675  0.00  0.00    +0.000 C 
ATOM      4  N   UNL     1       4.105   5.361  18.197  0.00  0.00    +0.000 N 
ATOM      5  C   UNL     1       4.722   4.303  17.512  0.00  0.00    +0.000 C 
ATOM      6  O   UNL     1       4.487   3.131  17.785  0.00  0.00    +0.000 OA
ATOM      7  C   UNL     1       3.463   5.238  19.540  0.00  0.00    +0.000 C 
ATOM      8  C   UNL     1       3.378   3.852  20.183  0.00  0.00    +0.000 C 
ATOM      9  C   UNL     1       2.047   5.883  19.542  0.00  0.00    +0.000 C 
ENDROOT
BRANCH   1  13
ATOM     10  C   UNL     1       0.616  10.660  21.018  0.00  0.00    +0.000 A 
ATOM     11  C   UNL     1       0.768  10.663  19.633  0.00  0.00    +0.000 A 
ATOM     12  C   UNL     1       1.246   9.526  18.976  0.00  0.00    +0.000 A 
ATOM     13  C   UNL     1       1.593   8.355  19.669  0.00  0.00    +0.000 A 
ATOM     14  C   UNL     1       1.423   8.373  21.062  0.00  0.00    +0.000 A 
ATOM     15  C   UNL     1       0.944   9.505  21.732  0.00  0.00    +0.000 A 
BRANCH  10  16
ATOM     16  C   UNL     1       0.100  11.890  21.668  0.00  0.00    +0.000 C 
ATOM     17  O   UNL     1      -0.356  11.916  22.799  0.00  0.00    +0.000 OA
BRANCH  16  19
ATOM     18  C   UNL     1       1.296  13.824  21.143  0.00  0.00    +0.000 C 
ATOM     19  O   UNL     1       0.210  12.952  20.832  0.00  0.00    +0.000 OA
ENDBRANCH  16  19
ENDBRANCH  10  16
ENDBRANCH   1  13
BRANCH   5  20
ATOM     20  C   UNL     1       5.640   4.633  16.432  0.00  0.00    +0.000 A 
ATOM     21  C   UNL     1       5.604   4.397  15.074  0.00  0.00    +0.000 A 
ATOM     22  C   UNL     1       6.821   4.927  14.584  0.00  0.00    +0.000 A 
ATOM     23  C   UNL     1       7.357   4.926  13.205  0.00  0.00    +0.000 C 
ATOM     24  N   UNL     1       7.546   5.464  15.571  0.00  0.00    +0.000 NA
ATOM     25  O   UNL     1       6.838   5.219  16.727  0.00  0.00    +0.000 OA
ENDBRANCH   5  20
TORSDOF 4
ENDMDL
MODEL 6
REMARK VINA RESULT:      -7.1      2.194      3.586
REMARK  Name = 
REMARK  7 active torsions:
REMARK  status: ('A' for Active; 'I' for Inactive)
REMARK    1  A    between atoms: C_1  and  O_2
REMARK    2  A    between atoms: O_2  and  C_3
REMARK    3  A    between atoms: C_3  and  C_5
REMARK    4  A    between atoms: C_8  and  N_9
REMARK    5  A    between atoms: C_13  and  C_15
REMARK    6  A    between atoms: C_17  and  C_18
REMARK    7  A    between atoms: C_21  and  C_22
REMARK                            x       y       z     vdW  Elec       q    Type
REMARK                         _______ _______ _______ _____ _____    ______ ____
ROOT
ATOM      1  N   UNL     1       1.599   7.222  20.027  0.00  0.00    +0.000 N 
ATOM      2  C   UNL     1       2.372   7.261  18.786  0.00  0.00    +0.000 C 
ATOM      3  C   UNL     1       3.695   6.506  18.971  0.00  0.00    +0.000 C 
ATOM      4  N   UNL     1       3.510   5.142  19.500  0.00  0.00    +0.000 N 
ATOM      5  C   UNL     1       4.115   4.021  18.912  0.00  0.00    +0.000 C 
ATOM      6  O   UNL     1       3.742   2.879  19.161  0.00  0.00    +0.000 OA
ATOM      7  C   UNL     1       2.686   5.102  20.745  0.00  0.00    +0.000 C 
ATOM      8  C   UNL     1       2.393   3.742  21.382  0.00  0.00    +0.000 C 
ATOM      9  C   UNL     1       1.346   5.869  20.552  0.00  0.00    +0.000 C 
ENDROOT
BRANCH   1  13
ATOM     10  C   UNL     1      -0.011  10.707  21.782  0.00  0.00    +0.000 A 
ATOM     11  C   UNL     1       0.408   9.642  22.577  0.00  0.00    +0.000 A 
ATOM     12  C   UNL     1       0.957   8.499  21.988  0.00  0.00    +0.000 A 
ATOM     13  C   UNL     1       1.102   8.373  20.597  0.00  0.00    +0.000 A 
ATOM     14  C   UNL     1       0.680   9.461  19.819  0.00  0.00    +0.000 A 
ATOM     15  C   UNL     1       0.130  10.612  20.396  0.00  0.00    +0.000 A 
BRANCH  10  16
ATOM     16  C   UNL     1      -0.581  11.900  22.455  0.00  0.00    +0.000 C 
ATOM     17  O   UNL     1      -1.592  11.872  23.136  0.00  0.00    +0.000 OA
BRANCH  16  19
ATOM     18  C   UNL     1      -0.553  14.082  21.628  0.00  0.00    +0.000 C 
ATOM     19  O   UNL     1       0.175  12.997  22.201  0.00  0.00    +0.000 OA
ENDBRANCH  16  19
ENDBRANCH  10  16
ENDBRANCH   1  13
BRANCH   5  20
ATOM     20  C   UNL     1       5.196   4.248  17.964  0.00  0.00    +0.000 A 
ATOM     21  C   UNL     1       5.221   4.348  16.589  0.00  0.00    +0.000 A 
ATOM     22  C   UNL     1       6.588   4.523  16.267  0.00  0.00    +0.000 A 
ATOM     23  C   UNL     1       7.231   4.645  14.939  0.00  0.00    +0.000 C 
ATOM     24  N   UNL     1       7.345   4.544  17.368  0.00  0.00    +0.000 NA
ATOM     25  O   UNL     1       6.483   4.306  18.416  0.00  0.00    +0.000 OA
ENDBRANCH   5  20
TORSDOF 4
ENDMDL
MODEL 7
REMARK VINA RESULT:      -6.8      4.106     10.454
REMARK  Name = 
REMARK  7 active torsions:
REMARK  status: ('A' for Active; 'I' for Inactive)
REMARK    1  A    between atoms: C_1  and  O_2
REMARK    2  A    between atoms: O_2  and  C_3
REMARK    3  A    between atoms: C_3  and  C_5
REMARK    4  A    between atoms: C_8  and  N_9
REMARK    5  A    between atoms: C_13  and  C_15
REMARK    6  A    between atoms: C_17  and  C_18
REMARK    7  A    between atoms: C_21  and  C_22
REMARK                            x       y       z     vdW  Elec       q    Type
REMARK                         _______ _______ _______ _____ _____    ______ ____
ROOT
ATOM      1  N   UNL     1       0.896   9.957  19.319  0.00  0.00    +0.000 N 
ATOM      2  C   UNL     1      -0.488   9.856  19.781  0.00  0.00    +0.000 C 
ATOM      3  C   UNL     1      -0.690  10.738  21.021  0.00  0.00    +0.000 C 
ATOM      4  N   UNL     1      -0.242  12.129  20.817  0.00  0.00    +0.000 N 
ATOM      5  C   UNL     1      -1.046  13.231  21.144  0.00  0.00    +0.000 C 
ATOM      6  O   UNL     1      -0.807  14.355  20.717  0.00  0.00    +0.000 OA
ATOM      7  C   UNL     1       1.158  12.226  20.306  0.00  0.00    +0.000 C 
ATOM      8  C   UNL     1       1.736  13.614  20.023  0.00  0.00    +0.000 C 
ATOM      9  C   UNL     1       1.356  11.330  19.050  0.00  0.00    +0.000 C 
ENDROOT
BRANCH   1  13
ATOM     10  C   UNL     1       3.166   6.475  18.582  0.00  0.00    +0.000 A 
ATOM     11  C   UNL     1       3.130   7.509  17.648  0.00  0.00    +0.000 A 
ATOM     12  C   UNL     1       2.390   8.666  17.908  0.00  0.00    +0.000 A 
ATOM     13  C   UNL     1       1.660   8.833  19.096  0.00  0.00    +0.000 A 
ATOM     14  C   UNL     1       1.717   7.782  20.024  0.00  0.00    +0.000 A 
ATOM     15  C   UNL     1       2.455   6.618  19.776  0.00  0.00    +0.000 A 
BRANCH  10  16
ATOM     16  C   UNL     1       3.970   5.270  18.261  0.00  0.00    +0.000 C 
ATOM     17  O   UNL     1       3.898   4.673  17.200  0.00  0.00    +0.000 OA
BRANCH  16  19
ATOM     18  C   UNL     1       6.144   5.298  19.107  0.00  0.00    +0.000 C 
ATOM     19  O   UNL     1       4.776   4.944  19.302  0.00  0.00    +0.000 OA
ENDBRANCH  16  19
ENDBRANCH  10  16
ENDBRANCH   1  13
BRANCH   5  20
ATOM     20  C   UNL     1      -2.207  13.001  21.992  0.00  0.00    +0.000 A 
ATOM     21  C   UNL     1      -2.368  12.968  23.360  0.00  0.00    +0.000 A 
ATOM     22  C   UNL     1      -3.732  12.649  23.555  0.00  0.00    +0.000 A 
ATOM     23  C   UNL     1      -4.476  12.435  24.817  0.00  0.00    +0.000 C 
ATOM     24  N   UNL     1      -4.368  12.511  22.387  0.00  0.00    +0.000 NA
ATOM     25  O   UNL     1      -3.400  12.666  21.418  0.00  0.00    +0.000 OA
ENDBRANCH   5  20
TORSDOF 4
ENDMDL
MODEL 8
REMARK VINA RESULT:      -6.8      4.209     10.464
REMARK  Name = 
REMARK  7 active torsions:
REMARK  status: ('A' for Active; 'I' for Inactive)
REMARK    1  A    between atoms: C_1  and  O_2
REMARK    2  A    between atoms: O_2  and  C_3
REMARK    3  A    between atoms: C_3  and  C_5
REMARK    4  A    between atoms: C_8  and  N_9
REMARK    5  A    between atoms: C_13  and  C_15
REMARK    6  A    between atoms: C_17  and  C_18
REMARK    7  A    between atoms: C_21  and  C_22
REMARK                            x       y       z     vdW  Elec       q    Type
REMARK                         _______ _______ _______ _____ _____    ______ ____
ROOT
ATOM      1  N   UNL     1       0.853   9.912  19.274  0.00  0.00    +0.000 N 
ATOM      2  C   UNL     1      -0.510   9.788  19.788  0.00  0.00    +0.000 C 
ATOM      3  C   UNL     1      -0.705  10.729  20.984  0.00  0.00    +0.000 C 
ATOM      4  N   UNL     1      -0.318  12.122  20.689  0.00  0.00    +0.000 N 
ATOM      5  C   UNL     1      -1.153  13.210  20.982  0.00  0.00    +0.000 C 
ATOM      6  O   UNL     1      -0.970  14.317  20.486  0.00  0.00    +0.000 OA
ATOM      7  C   UNL     1       1.060  12.240  20.126  0.00  0.00    +0.000 C 
ATOM      8  C   UNL     1       1.576  13.631  19.748  0.00  0.00    +0.000 C 
ATOM      9  C   UNL     1       1.252  11.284  18.914  0.00  0.00    +0.000 C 
ENDROOT
BRANCH   1  13
ATOM     10  C   UNL     1       3.230   6.480  18.649  0.00  0.00    +0.000 A 
ATOM     11  C   UNL     1       3.152   7.475  17.676  0.00  0.00    +0.000 A 
ATOM     12  C   UNL     1       2.377   8.617  17.899  0.00  0.00    +0.000 A 
ATOM     13  C   UNL     1       1.652   8.805  19.087  0.00  0.00    +0.000 A 
ATOM     14  C   UNL     1       1.752   7.794  20.054  0.00  0.00    +0.000 A 
ATOM     15  C   UNL     1       2.526   6.646  19.844  0.00  0.00    +0.000 A 
BRANCH  10  16
ATOM     16  C   UNL     1       4.071   5.290  18.366  0.00  0.00    +0.000 C 
ATOM     17  O   UNL     1       5.017   4.953  19.058  0.00  0.00    +0.000 OA
BRANCH  16  19
ATOM     18  C   UNL     1       2.550   3.756  17.483  0.00  0.00    +0.000 C 
ATOM     19  O   UNL     1       3.635   4.653  17.251  0.00  0.00    +0.000 OA
ENDBRANCH  16  19
ENDBRANCH  10  16
ENDBRANCH   1  13
BRANCH   5  20
ATOM     20  C   UNL     1      -2.276  12.987  21.880  0.00  0.00    +0.000 A 
ATOM     21  C   UNL     1      -2.379  12.969  23.255  0.00  0.00    +0.000 A 
ATOM     22  C   UNL     1      -3.733  12.648  23.510  0.00  0.00    +0.000 A 
ATOM     23  C   UNL     1      -4.422  12.446  24.804  0.00  0.00    +0.000 C 
ATOM     24  N   UNL     1      -4.416  12.494  22.371  0.00  0.00    +0.000 NA
ATOM     25  O   UNL     1      -3.490  12.640  21.361  0.00  0.00    +0.000 OA
ENDBRANCH   5  20
TORSDOF 4
ENDMDL
MODEL 9
REMARK VINA RESULT:      -6.7      4.021      9.840
REMARK  Name = 
REMARK  7 active torsions:
REMARK  status: ('A' for Active; 'I' for Inactive)
REMARK    1  A    between atoms: C_1  and  O_2
REMARK    2  A    between atoms: O_2  and  C_3
REMARK    3  A    between atoms: C_3  and  C_5
REMARK    4  A    between atoms: C_8  and  N_9
REMARK    5  A    between atoms: C_13  and  C_15
REMARK    6  A    between atoms: C_17  and  C_18
REMARK    7  A    between atoms: C_21  and  C_22
REMARK                            x       y       z     vdW  Elec       q    Type
REMARK                         _______ _______ _______ _____ _____    ______ ____
ROOT
ATOM      1  N   UNL     1       1.547   9.210  18.978  0.00  0.00    +0.000 N 
ATOM      2  C   UNL     1       0.449   9.358  19.933  0.00  0.00    +0.000 C 
ATOM      3  C   UNL     1       0.665  10.618  20.784  0.00  0.00    +0.000 C 
ATOM      4  N   UNL     1       0.900  11.827  19.972  0.00  0.00    +0.000 N 
ATOM      5  C   UNL     1       0.198  13.022  20.188  0.00  0.00    +0.000 C 
ATOM      6  O   UNL     1       0.177  13.919  19.352  0.00  0.00    +0.000 OA
ATOM      7  C   UNL     1       1.994  11.657  18.969  0.00  0.00    +0.000 C 
ATOM      8  C   UNL     1       2.319  12.830  18.041  0.00  0.00    +0.000 C 
ATOM      9  C   UNL     1       1.769  10.379  18.111  0.00  0.00    +0.000 C 
ENDROOT
BRANCH   1  13
ATOM     10  C   UNL     1       3.770   5.631  18.717  0.00  0.00    +0.000 A 
ATOM     11  C   UNL     1       2.917   5.859  19.796  0.00  0.00    +0.000 A 
ATOM     12  C   UNL     1       2.171   7.039  19.865  0.00  0.00    +0.000 A 
ATOM     13  C   UNL     1       2.250   8.030  18.874  0.00  0.00    +0.000 A 
ATOM     14  C   UNL     1       3.110   7.775  17.794  0.00  0.00    +0.000 A 
ATOM     15  C   UNL     1       3.862   6.597  17.713  0.00  0.00    +0.000 A 
BRANCH  10  16
ATOM     16  C   UNL     1       4.536   4.360  18.688  0.00  0.00    +0.000 C 
ATOM     17  O   UNL     1       5.538   4.161  19.353  0.00  0.00    +0.000 OA
BRANCH  16  19
ATOM     18  C   UNL     1       3.413   2.327  18.463  0.00  0.00    +0.000 C 
ATOM     19  O   UNL     1       3.965   3.480  17.829  0.00  0.00    +0.000 OA
ENDBRANCH  16  19
ENDBRANCH  10  16
ENDBRANCH   1  13
BRANCH   5  20
ATOM     20  C   UNL     1      -0.538  13.166  21.436  0.00  0.00    +0.000 A 
ATOM     21  C   UNL     1      -1.862  12.966  21.763  0.00  0.00    +0.000 A 
ATOM     22  C   UNL     1      -1.953  13.325  23.129  0.00  0.00    +0.000 A 
ATOM     23  C   UNL     1      -3.139  13.356  24.014  0.00  0.00    +0.000 C 
ATOM     24  N   UNL     1      -0.765  13.705  23.609  0.00  0.00    +0.000 NA
ATOM     25  O   UNL     1       0.098  13.667  22.535  0.00  0.00    +0.000 OA
ENDBRANCH   5  20
TORSDOF 4
ENDMDL
