MODEL 1
REMARK VINA RESULT:      -8.1      0.000      0.000
REMARK  Name = 
REMARK  9 active torsions:
REMARK  status: ('A' for Active; 'I' for Inactive)
REMARK    1  A    between atoms: C_2  and  C_3
REMARK    2  A    between atoms: C_3  and  C_4
REMARK    3  A    between atoms: C_4  and  C_5
REMARK    4  A    between atoms: C_5  and  C_6
REMARK    5  A    between atoms: N_11  and  C_12
REMARK    6  A    between atoms: C_12  and  C_13
REMARK    7  A    between atoms: C_13  and  C_14
REMARK    8  A    between atoms: C_14  and  C_15
REMARK    9  A    between atoms: C_14  and  C_22
REMARK                            x       y       z     vdW  Elec       q    Type
REMARK                         _______ _______ _______ _____ _____    ______ ____
ROOT
ATOM      1  C   UNL     1       5.078   5.498  17.066  0.00  0.00    +0.000 C 
ENDROOT
BRANCH   1   4
ATOM      2  N   UNL     1       8.032   5.203  19.048  0.00  0.00    +0.000 NA
ATOM      3  C   UNL     1       7.160   5.840  18.333  0.00  0.00    +0.000 C 
ATOM      4  N   UNL     1       5.909   5.288  18.240  0.00  0.00    +0.000 N 
ATOM      5  H   UNL     1       8.920   5.708  19.080  0.00  0.00    +0.000 HD
ATOM      6  H   UNL     1       5.925   4.334  18.587  0.00  0.00    +0.000 HD
BRANCH   3   7
ATOM      7  C   UNL     1       7.473   7.173  17.654  0.00  0.00    +0.000 C 
BRANCH   7   8
ATOM      8  C   UNL     1       8.403   8.115  18.413  0.00  0.00    +0.000 C 
BRANCH   8   9
ATOM      9  C   UNL     1       8.188   9.586  18.048  0.00  0.00    +0.000 C 
BRANCH   9  10
ATOM     10  C   UNL     1       9.229  10.457  18.660  0.00  0.00    +0.000 A 
ATOM     11  C   UNL     1      10.224  11.181  18.038  0.00  0.00    +0.000 A 
ATOM     12  N   UNL     1      10.906  11.797  19.050  0.00  0.00    +0.000 N 
ATOM     13  C   UNL     1      10.317  11.428  20.226  0.00  0.00    +0.000 A 
ATOM     14  N   UNL     1       9.303  10.618  20.023  0.00  0.00    +0.000 NA
ATOM     15  H   UNL     1      11.701  12.412  18.953  0.00  0.00    +0.000 HD
ENDBRANCH   9  10
ENDBRANCH   8   9
ENDBRANCH   7   8
ENDBRANCH   3   7
ENDBRANCH   1   4
BRANCH   1  16
ATOM     16  C   UNL     1       4.057   6.613  17.281  0.00  0.00    +0.000 C 
BRANCH  16  17
ATOM     17  C   UNL     1       3.319   6.520  18.646  0.00  0.00    +0.000 C 
BRANCH  17  18
ATOM     18  C   UNL     1       2.337   7.677  18.890  0.00  0.00    +0.000 A 
ATOM     19  C   UNL     1       1.891   8.522  17.859  0.00  0.00    +0.000 A 
ATOM     20  C   UNL     1       0.960   9.537  18.103  0.00  0.00    +0.000 A 
ATOM     21  C   UNL     1       0.472   9.734  19.391  0.00  0.00    +0.000 A 
ATOM     22 CL   UNL     1      -0.700  10.959  19.683  0.00  0.00    +0.000 Cl
ATOM     23  C   UNL     1       0.922   8.936  20.436  0.00  0.00    +0.000 A 
ATOM     24  C   UNL     1       1.844   7.912  20.188  0.00  0.00    +0.000 A 
ENDBRANCH  17  18
BRANCH  17  25
ATOM     25  C   UNL     1       2.763   5.102  18.849  0.00  0.00    +0.000 A 
ATOM     26  C   UNL     1       1.760   4.602  18.025  0.00  0.00    +0.000 A 
ATOM     27  C   UNL     1       1.216   3.347  18.312  0.00  0.00    +0.000 A 
ATOM     28  C   UNL     1       1.689   2.622  19.395  0.00  0.00    +0.000 A 
ATOM     29  C   UNL     1       2.712   3.165  20.141  0.00  0.00    +0.000 A 
ATOM     30  N   UNL     1       3.257   4.376  19.885  0.00  0.00    +0.000 NA
ENDBRANCH  17  25
ENDBRANCH  16  17
ENDBRANCH   1  16
TORSDOF 9
ENDMDL
MODEL 2
REMARK VINA RESULT:      -8.0      3.399      4.669
REMARK  Name = 
REMARK  9 active torsions:
REMARK  status: ('A' for Active; 'I' for Inactive)
REMARK    1  A    between atoms: C_2  and  C_3
REMARK    2  A    between atoms: C_3  and  C_4
REMARK    3  A    between atoms: C_4  and  C_5
REMARK    4  A    between atoms: C_5  and  C_6
REMARK    5  A    between atoms: N_11  and  C_12
REMARK    6  A    between atoms: C_12  and  C_13
REMARK    7  A    between atoms: C_13  and  C_14
REMARK    8  A    between atoms: C_14  and  C_15
REMARK    9  A    between atoms: C_14  and  C_22
REMARK                            x       y       z     vdW  Elec       q    Type
REMARK                         _______ _______ _______ _____ _____    ______ ____
ROOT
ATOM      1  C   UNL     1       4.930   4.287  19.167  0.00  0.00    +0.000 C 
ENDROOT
BRANCH   1   4
ATOM      2  N   UNL     1       7.861   4.238  17.129  0.00  0.00    +0.000 NA
ATOM      3  C   UNL     1       6.823   4.788  17.677  0.00  0.00    +0.000 C 
ATOM      4  N   UNL     1       6.339   4.203  18.818  0.00  0.00    +0.000 N 
ATOM      5  H   UNL     1       8.163   4.763  16.306  0.00  0.00    +0.000 HD
ATOM      6  H   UNL     1       6.754   3.284  18.940  0.00  0.00    +0.000 HD
BRANCH   3   7
ATOM      7  C   UNL     1       6.183   6.060  17.124  0.00  0.00    +0.000 C 
BRANCH   7   8
ATOM      8  C   UNL     1       5.371   5.905  15.842  0.00  0.00    +0.000 C 
BRANCH   8   9
ATOM      9  C   UNL     1       5.410   4.482  15.281  0.00  0.00    +0.000 C 
BRANCH   9  10
ATOM     10  C   UNL     1       6.198   4.415  14.019  0.00  0.00    +0.000 A 
ATOM     11  C   UNL     1       6.005   3.601  12.922  0.00  0.00    +0.000 A 
ATOM     12  N   UNL     1       7.003   3.934  12.049  0.00  0.00    +0.000 N 
ATOM     13  C   UNL     1       7.753   4.912  12.636  0.00  0.00    +0.000 A 
ATOM     14  N   UNL     1       7.293   5.223  13.826  0.00  0.00    +0.000 NA
ATOM     15  H   UNL     1       7.162   3.532  11.136  0.00  0.00    +0.000 HD
ENDBRANCH   9  10
ENDBRANCH   8   9
ENDBRANCH   7   8
ENDBRANCH   3   7
ENDBRANCH   1   4
BRANCH   1  16
ATOM     16  C   UNL     1       4.446   5.733  19.242  0.00  0.00    +0.000 C 
BRANCH  16  17
ATOM     17  C   UNL     1       3.033   5.879  19.874  0.00  0.00    +0.000 C 
BRANCH  17  18
ATOM     18  C   UNL     1       2.352   7.218  19.545  0.00  0.00    +0.000 A 
ATOM     19  C   UNL     1       2.399   7.797  18.265  0.00  0.00    +0.000 A 
ATOM     20  C   UNL     1       1.730   8.993  17.985  0.00  0.00    +0.000 A 
ATOM     21  C   UNL     1       1.014   9.638  18.988  0.00  0.00    +0.000 A 
ATOM     22 CL   UNL     1       0.162  11.089  18.632  0.00  0.00    +0.000 Cl
ATOM     23  C   UNL     1       0.981   9.106  20.272  0.00  0.00    +0.000 A 
ATOM     24  C   UNL     1       1.640   7.903  20.549  0.00  0.00    +0.000 A 
ENDBRANCH  17  18
BRANCH  17  25
ATOM     25  C   UNL     1       2.205   4.612  19.611  0.00  0.00    +0.000 A 
ATOM     26  C   UNL     1       1.739   3.832  20.662  0.00  0.00    +0.000 A 
ATOM     27  C   UNL     1       1.076   2.635  20.372  0.00  0.00    +0.000 A 
ATOM     28  C   UNL     1       0.887   2.256  19.051  0.00  0.00    +0.000 A 
ATOM     29  C   UNL     1       1.342   3.101  18.063  0.00  0.00    +0.000 A 
ATOM     30  N   UNL     1       1.983   4.264  18.317  0.00  0.00    +0.000 NA
ENDBRANCH  17  25
ENDBRANCH  16  17
ENDBRANCH   1  16
TORSDOF 9
ENDMDL
MODEL 3
REMARK VINA RESULT:      -7.9      3.253      4.925
REMARK  Name = 
REMARK  9 active torsions:
REMARK  status: ('A' for Active; 'I' for Inactive)
REMARK    1  A    between atoms: C_2  and  C_3
REMARK    2  A    between atoms: C_3  and  C_4
REMARK    3  A    between atoms: C_4  and  C_5
REMARK    4  A    between atoms: C_5  and  C_6
REMARK    5  A    between atoms: N_11  and  C_12
REMARK    6  A    between atoms: C_12  and  C_13
REMARK    7  A    between atoms: C_13  and  C_14
REMARK    8  A    between atoms: C_14  and  C_15
REMARK    9  A    between atoms: C_14  and  C_22
REMARK                            x       y       z     vdW  Elec       q    Type
REMARK                         _______ _______ _______ _____ _____    ______ ____
ROOT
ATOM      1  C   UNL     1       4.413   7.028  17.172  0.00  0.00    +0.000 C 
ENDROOT
BRANCH   1   4
ATOM      2  N   UNL     1       7.065   5.706  15.181  0.00  0.00    +0.000 NA
ATOM      3  C   UNL     1       6.457   5.977  16.293  0.00  0.00    +0.000 C 
ATOM      4  N   UNL     1       5.100   6.158  16.232  0.00  0.00    +0.000 N 
ATOM      5  H   UNL     1       8.064   5.558  15.335  0.00  0.00    +0.000 HD
ATOM      6  H   UNL     1       4.807   6.260  15.264  0.00  0.00    +0.000 HD
BRANCH   3   7
ATOM      7  C   UNL     1       7.191   6.046  17.631  0.00  0.00    +0.000 C 
BRANCH   7   8
ATOM      8  C   UNL     1       7.146   4.787  18.492  0.00  0.00    +0.000 C 
BRANCH   8   9
ATOM      9  C   UNL     1       5.868   4.683  19.328  0.00  0.00    +0.000 C 
BRANCH   9  10
ATOM     10  C   UNL     1       5.044   3.512  18.920  0.00  0.00    +0.000 A 
ATOM     11  C   UNL     1       4.651   2.427  19.675  0.00  0.00    +0.000 A 
ATOM     12  N   UNL     1       3.922   1.644  18.825  0.00  0.00    +0.000 N 
ATOM     13  C   UNL     1       3.903   2.263  17.608  0.00  0.00    +0.000 A 
ATOM     14  N   UNL     1       4.574   3.393  17.633  0.00  0.00    +0.000 NA
ATOM     15  H   UNL     1       3.475   0.765  19.049  0.00  0.00    +0.000 HD
ENDBRANCH   9  10
ENDBRANCH   8   9
ENDBRANCH   7   8
ENDBRANCH   3   7
ENDBRANCH   1   4
BRANCH   1  16
ATOM     16  C   UNL     1       3.054   6.466  17.582  0.00  0.00    +0.000 C 
BRANCH  16  17
ATOM     17  C   UNL     1       2.745   6.641  19.095  0.00  0.00    +0.000 C 
BRANCH  17  18
ATOM     18  C   UNL     1       1.923   7.902  19.410  0.00  0.00    +0.000 A 
ATOM     19  C   UNL     1       1.459   8.199  20.703  0.00  0.00    +0.000 A 
ATOM     20  C   UNL     1       0.754   9.378  20.968  0.00  0.00    +0.000 A 
ATOM     21  C   UNL     1       0.487  10.272  19.936  0.00  0.00    +0.000 A 
ATOM     22 CL   UNL     1      -0.349  11.738  20.271  0.00  0.00    +0.000 Cl
ATOM     23  C   UNL     1       0.902   9.986  18.641  0.00  0.00    +0.000 A 
ATOM     24  C   UNL     1       1.619   8.812  18.379  0.00  0.00    +0.000 A 
ENDBRANCH  17  18
BRANCH  17  25
ATOM     25  C   UNL     1       2.218   5.322  19.681  0.00  0.00    +0.000 A 
ATOM     26  C   UNL     1       1.381   4.495  18.941  0.00  0.00    +0.000 A 
ATOM     27  C   UNL     1       0.846   3.356  19.552  0.00  0.00    +0.000 A 
ATOM     28  C   UNL     1       1.165   3.068  20.871  0.00  0.00    +0.000 A 
ATOM     29  C   UNL     1       2.033   3.914  21.527  0.00  0.00    +0.000 A 
ATOM     30  N   UNL     1       2.566   5.019  20.959  0.00  0.00    +0.000 NA
ENDBRANCH  17  25
ENDBRANCH  16  17
ENDBRANCH   1  16
TORSDOF 9
ENDMDL
MODEL 4
REMARK VINA RESULT:      -7.8      1.307      1.515
REMARK  Name = 
REMARK  9 active torsions:
REMARK  status: ('A' for Active; 'I' for Inactive)
REMARK    1  A    between atoms: C_2  and  C_3
REMARK    2  A    between atoms: C_3  and  C_4
REMARK    3  A    between atoms: C_4  and  C_5
REMARK    4  A    between atoms: C_5  and  C_6
REMARK    5  A    between atoms: N_11  and  C_12
REMARK    6  A    between atoms: C_12  and  C_13
REMARK    7  A    between atoms: C_13  and  C_14
REMARK    8  A    between atoms: C_14  and  C_15
REMARK    9  A    between atoms: C_14  and  C_22
REMARK                            x       y       z     vdW  Elec       q    Type
REMARK                         _______ _______ _______ _____ _____    ______ ____
ROOT
ATOM      1  C   UNL     1       5.773   5.118  18.864  0.00  0.00    +0.000 C 
ENDROOT
BRANCH   1   4
ATOM      2  N   UNL     1       7.558   6.132  15.943  0.00  0.00    +0.000 NA
ATOM      3  C   UNL     1       7.163   6.241  17.173  0.00  0.00    +0.000 C 
ATOM      4  N   UNL     1       6.767   5.091  17.803  0.00  0.00    +0.000 N 
ATOM      5  H   UNL     1       7.861   7.035  15.573  0.00  0.00    +0.000 HD
ATOM      6  H   UNL     1       6.644   4.347  17.122  0.00  0.00    +0.000 HD
BRANCH   3   7
ATOM      7  C   UNL     1       7.178   7.573  17.922  0.00  0.00    +0.000 C 
BRANCH   7   8
ATOM      8  C   UNL     1       8.290   8.547  17.546  0.00  0.00    +0.000 C 
BRANCH   8   9
ATOM      9  C   UNL     1       8.654   9.503  18.684  0.00  0.00    +0.000 C 
BRANCH   9  10
ATOM     10  C   UNL     1       9.132  10.814  18.163  0.00  0.00    +0.000 A 
ATOM     11  C   UNL     1       8.391  11.904  17.759  0.00  0.00    +0.000 A 
ATOM     12  N   UNL     1       9.310  12.836  17.365  0.00  0.00    +0.000 N 
ATOM     13  C   UNL     1      10.550  12.289  17.535  0.00  0.00    +0.000 A 
ATOM     14  N   UNL     1      10.475  11.068  18.014  0.00  0.00    +0.000 NA
ATOM     15  H   UNL     1       9.115  13.762  17.011  0.00  0.00    +0.000 HD
ENDBRANCH   9  10
ENDBRANCH   8   9
ENDBRANCH   7   8
ENDBRANCH   3   7
ENDBRANCH   1   4
BRANCH   1  16
ATOM     16  C   UNL     1       4.420   5.621  18.366  0.00  0.00    +0.000 C 
BRANCH  16  17
ATOM     17  C   UNL     1       3.424   5.951  19.513  0.00  0.00    +0.000 C 
BRANCH  17  18
ATOM     18  C   UNL     1       2.620   7.239  19.273  0.00  0.00    +0.000 A 
ATOM     19  C   UNL     1       2.664   7.943  18.057  0.00  0.00    +0.000 A 
ATOM     20  C   UNL     1       1.884   9.087  17.852  0.00  0.00    +0.000 A 
ATOM     21  C   UNL     1       1.058   9.553  18.869  0.00  0.00    +0.000 A 
ATOM     22 CL   UNL     1       0.073  10.938  18.602  0.00  0.00    +0.000 Cl
ATOM     23  C   UNL     1       1.022   8.897  20.093  0.00  0.00    +0.000 A 
ATOM     24  C   UNL     1       1.793   7.745  20.294  0.00  0.00    +0.000 A 
ENDBRANCH  17  18
BRANCH  17  25
ATOM     25  C   UNL     1       2.611   4.700  19.881  0.00  0.00    +0.000 A 
ATOM     26  C   UNL     1       1.752   4.109  18.961  0.00  0.00    +0.000 A 
ATOM     27  C   UNL     1       0.959   3.035  19.373  0.00  0.00    +0.000 A 
ATOM     28  C   UNL     1       1.048   2.573  20.678  0.00  0.00    +0.000 A 
ATOM     29  C   UNL     1       1.951   3.183  21.520  0.00  0.00    +0.000 A 
ATOM     30  N   UNL     1       2.732   4.223  21.146  0.00  0.00    +0.000 NA
ENDBRANCH  17  25
ENDBRANCH  16  17
ENDBRANCH   1  16
TORSDOF 9
ENDMDL
MODEL 5
REMARK VINA RESULT:      -7.8      4.778      7.739
REMARK  Name = 
REMARK  9 active torsions:
REMARK  status: ('A' for Active; 'I' for Inactive)
REMARK    1  A    between atoms: C_2  and  C_3
REMARK    2  A    between atoms: C_3  and  C_4
REMARK    3  A    between atoms: C_4  and  C_5
REMARK    4  A    between atoms: C_5  and  C_6
REMARK    5  A    between atoms: N_11  and  C_12
REMARK    6  A    between atoms: C_12  and  C_13
REMARK    7  A    between atoms: C_13  and  C_14
REMARK    8  A    between atoms: C_14  and  C_15
REMARK    9  A    between atoms: C_14  and  C_22
REMARK                            x       y       z     vdW  Elec       q    Type
REMARK                         _______ _______ _______ _____ _____    ______ ____
ROOT
ATOM      1  C   UNL     1       1.640   7.774  19.847  0.00  0.00    +0.000 C 
ENDROOT
BRANCH   1   4
ATOM      2  N   UNL     1       1.457   9.590  22.914  0.00  0.00    +0.000 NA
ATOM      3  C   UNL     1       0.969   9.041  21.847  0.00  0.00    +0.000 C 
ATOM      4  N   UNL     1       1.702   8.034  21.275  0.00  0.00    +0.000 N 
ATOM      5  H   UNL     1       0.825  10.305  23.281  0.00  0.00    +0.000 HD
ATOM      6  H   UNL     1       2.638   8.018  21.671  0.00  0.00    +0.000 HD
BRANCH   3   7
ATOM      7  C   UNL     1      -0.382   9.447  21.261  0.00  0.00    +0.000 C 
BRANCH   7   8
ATOM      8  C   UNL     1      -0.402  10.725  20.429  0.00  0.00    +0.000 C 
BRANCH   8   9
ATOM      9  C   UNL     1      -0.212  10.465  18.933  0.00  0.00    +0.000 C 
BRANCH   9  10
ATOM     10  C   UNL     1      -1.420  10.856  18.155  0.00  0.00    +0.000 A 
ATOM     11  C   UNL     1      -2.305  11.886  18.394  0.00  0.00    +0.000 A 
ATOM     12  N   UNL     1      -3.232  11.802  17.392  0.00  0.00    +0.000 N 
ATOM     13  C   UNL     1      -2.887  10.744  16.600  0.00  0.00    +0.000 A 
ATOM     14  N   UNL     1      -1.798  10.152  17.036  0.00  0.00    +0.000 NA
ATOM     15  H   UNL     1      -4.029  12.408  17.257  0.00  0.00    +0.000 HD
ENDBRANCH   9  10
ENDBRANCH   8   9
ENDBRANCH   7   8
ENDBRANCH   3   7
ENDBRANCH   1   4
BRANCH   1  16
ATOM     16  C   UNL     1       2.905   7.088  19.335  0.00  0.00    +0.000 C 
BRANCH  16  17
ATOM     17  C   UNL     1       2.619   5.812  18.496  0.00  0.00    +0.000 C 
BRANCH  17  18
ATOM     18  C   UNL     1       3.742   5.468  17.504  0.00  0.00    +0.000 A 
ATOM     19  C   UNL     1       4.085   4.144  17.178  0.00  0.00    +0.000 A 
ATOM     20  C   UNL     1       5.080   3.862  16.236  0.00  0.00    +0.000 A 
ATOM     21  C   UNL     1       5.760   4.905  15.615  0.00  0.00    +0.000 A 
ATOM     22 CL   UNL     1       6.957   4.557  14.430  0.00  0.00    +0.000 Cl
ATOM     23  C   UNL     1       5.465   6.222  15.944  0.00  0.00    +0.000 A 
ATOM     24  C   UNL     1       4.461   6.504  16.878  0.00  0.00    +0.000 A 
ENDBRANCH  17  18
BRANCH  17  25
ATOM     25  C   UNL     1       2.149   4.672  19.414  0.00  0.00    +0.000 A 
ATOM     26  C   UNL     1       2.719   4.482  20.667  0.00  0.00    +0.000 A 
ATOM     27  C   UNL     1       2.331   3.372  21.423  0.00  0.00    +0.000 A 
ATOM     28  C   UNL     1       1.384   2.493  20.920  0.00  0.00    +0.000 A 
ATOM     29  C   UNL     1       0.835   2.769  19.687  0.00  0.00    +0.000 A 
ATOM     30  N   UNL     1       1.191   3.836  18.936  0.00  0.00    +0.000 NA
ENDBRANCH  17  25
ENDBRANCH  16  17
ENDBRANCH   1  16
TORSDOF 9
ENDMDL
MODEL 6
REMARK VINA RESULT:      -7.8      2.489      3.512
REMARK  Name = 
REMARK  9 active torsions:
REMARK  status: ('A' for Active; 'I' for Inactive)
REMARK    1  A    between atoms: C_2  and  C_3
REMARK    2  A    between atoms: C_3  and  C_4
REMARK    3  A    between atoms: C_4  and  C_5
REMARK    4  A    between atoms: C_5  and  C_6
REMARK    5  A    between atoms: N_11  and  C_12
REMARK    6  A    between atoms: C_12  and  C_13
REMARK    7  A    between atoms: C_13  and  C_14
REMARK    8  A    between atoms: C_14  and  C_15
REMARK    9  A    between atoms: C_14  and  C_22
REMARK                            x       y       z     vdW  Elec       q    Type
REMARK                         _______ _______ _______ _____ _____    ______ ____
ROOT
ATOM      1  C   UNL     1       5.230   4.840  19.372  0.00  0.00    +0.000 C 
ENDROOT
BRANCH   1   4
ATOM      2  N   UNL     1       3.843   2.058  17.619  0.00  0.00    +0.000 NA
ATOM      3  C   UNL     1       4.517   3.159  17.723  0.00  0.00    +0.000 C 
ATOM      4  N   UNL     1       5.027   3.462  18.958  0.00  0.00    +0.000 N 
ATOM      5  H   UNL     1       3.532   1.906  16.657  0.00  0.00    +0.000 HD
ATOM      6  H   UNL     1       4.608   2.862  19.663  0.00  0.00    +0.000 HD
BRANCH   3   7
ATOM      7  C   UNL     1       4.786   4.071  16.526  0.00  0.00    +0.000 C 
BRANCH   7   8
ATOM      8  C   UNL     1       6.144   3.916  15.851  0.00  0.00    +0.000 C 
BRANCH   8   9
ATOM      9  C   UNL     1       6.900   5.241  15.723  0.00  0.00    +0.000 C 
BRANCH   9  10
ATOM     10  C   UNL     1       7.433   5.693  17.037  0.00  0.00    +0.000 A 
ATOM     11  C   UNL     1       7.556   6.978  17.523  0.00  0.00    +0.000 A 
ATOM     12  N   UNL     1       8.106   6.840  18.767  0.00  0.00    +0.000 N 
ATOM     13  C   UNL     1       8.299   5.505  18.985  0.00  0.00    +0.000 A 
ATOM     14  N   UNL     1       7.904   4.788  17.958  0.00  0.00    +0.000 NA
ATOM     15  H   UNL     1       8.332   7.584  19.412  0.00  0.00    +0.000 HD
ENDBRANCH   9  10
ENDBRANCH   8   9
ENDBRANCH   7   8
ENDBRANCH   3   7
ENDBRANCH   1   4
BRANCH   1  16
ATOM     16  C   UNL     1       4.169   5.773  18.792  0.00  0.00    +0.000 C 
BRANCH  16  17
ATOM     17  C   UNL     1       2.985   6.040  19.762  0.00  0.00    +0.000 C 
BRANCH  17  18
ATOM     18  C   UNL     1       2.251   7.362  19.482  0.00  0.00    +0.000 A 
ATOM     19  C   UNL     1       2.253   7.975  18.216  0.00  0.00    +0.000 A 
ATOM     20  C   UNL     1       1.537   9.153  17.979  0.00  0.00    +0.000 A 
ATOM     21  C   UNL     1       0.817   9.746  19.012  0.00  0.00    +0.000 A 
ATOM     22 CL   UNL     1      -0.092  11.174  18.709  0.00  0.00    +0.000 Cl
ATOM     23  C   UNL     1       0.827   9.181  20.281  0.00  0.00    +0.000 A 
ATOM     24  C   UNL     1       1.534   7.995  20.515  0.00  0.00    +0.000 A 
ENDBRANCH  17  18
BRANCH  17  25
ATOM     25  C   UNL     1       2.106   4.786  19.880  0.00  0.00    +0.000 A 
ATOM     26  C   UNL     1       1.915   4.159  21.106  0.00  0.00    +0.000 A 
ATOM     27  C   UNL     1       1.190   2.964  21.147  0.00  0.00    +0.000 A 
ATOM     28  C   UNL     1       0.669   2.434  19.976  0.00  0.00    +0.000 A 
ATOM     29  C   UNL     1       0.866   3.133  18.805  0.00  0.00    +0.000 A 
ATOM     30  N   UNL     1       1.561   4.291  18.738  0.00  0.00    +0.000 NA
ENDBRANCH  17  25
ENDBRANCH  16  17
ENDBRANCH   1  16
TORSDOF 9
ENDMDL
MODEL 7
REMARK VINA RESULT:      -7.7      4.626      7.398
REMARK  Name = 
REMARK  9 active torsions:
REMARK  status: ('A' for Active; 'I' for Inactive)
REMARK    1  A    between atoms: C_2  and  C_3
REMARK    2  A    between atoms: C_3  and  C_4
REMARK    3  A    between atoms: C_4  and  C_5
REMARK    4  A    between atoms: C_5  and  C_6
REMARK    5  A    between atoms: N_11  and  C_12
REMARK    6  A    between atoms: C_12  and  C_13
REMARK    7  A    between atoms: C_13  and  C_14
REMARK    8  A    between atoms: C_14  and  C_15
REMARK    9  A    between atoms: C_14  and  C_22
REMARK                            x       y       z     vdW  Elec       q    Type
REMARK                         _______ _______ _______ _____ _____    ______ ____
ROOT
ATOM      1  C   UNL     1       1.482   7.864  19.835  0.00  0.00    +0.000 C 
ENDROOT
BRANCH   1   4
ATOM      2  N   UNL     1       1.965   9.350  23.045  0.00  0.00    +0.000 NA
ATOM      3  C   UNL     1       1.439   9.255  21.865  0.00  0.00    +0.000 C 
ATOM      4  N   UNL     1       1.441   8.015  21.280  0.00  0.00    +0.000 N 
ATOM      5  H   UNL     1       1.887  10.303  23.407  0.00  0.00    +0.000 HD
ATOM      6  H   UNL     1       2.058   7.392  21.792  0.00  0.00    +0.000 HD
BRANCH   3   7
ATOM      7  C   UNL     1       0.795  10.446  21.157  0.00  0.00    +0.000 C 
BRANCH   7   8
ATOM      8  C   UNL     1      -0.638  10.777  21.560  0.00  0.00    +0.000 C 
BRANCH   8   9
ATOM      9  C   UNL     1      -1.087  12.161  21.083  0.00  0.00    +0.000 C 
BRANCH   9  10
ATOM     10  C   UNL     1      -1.244  12.202  19.603  0.00  0.00    +0.000 A 
ATOM     11  C   UNL     1      -0.632  13.037  18.692  0.00  0.00    +0.000 A 
ATOM     12  N   UNL     1      -1.128  12.665  17.474  0.00  0.00    +0.000 N 
ATOM     13  C   UNL     1      -2.009  11.643  17.684  0.00  0.00    +0.000 A 
ATOM     14  N   UNL     1      -2.102  11.342  18.959  0.00  0.00    +0.000 NA
ATOM     15  H   UNL     1      -0.891  13.068  16.579  0.00  0.00    +0.000 HD
ENDBRANCH   9  10
ENDBRANCH   8   9
ENDBRANCH   7   8
ENDBRANCH   3   7
ENDBRANCH   1   4
BRANCH   1  16
ATOM     16  C   UNL     1       2.774   7.197  19.368  0.00  0.00    +0.000 C 
BRANCH  16  17
ATOM     17  C   UNL     1       2.535   5.920  18.515  0.00  0.00    +0.000 C 
BRANCH  17  18
ATOM     18  C   UNL     1       3.660   5.641  17.503  0.00  0.00    +0.000 A 
ATOM     19  C   UNL     1       4.417   6.668  16.912  0.00  0.00    +0.000 A 
ATOM     20  C   UNL     1       5.465   6.381  16.031  0.00  0.00    +0.000 A 
ATOM     21  C   UNL     1       5.762   5.059  15.715  0.00  0.00    +0.000 A 
ATOM     22 CL   UNL     1       7.075   4.707  14.660  0.00  0.00    +0.000 Cl
ATOM     23  C   UNL     1       5.007   4.026  16.257  0.00  0.00    +0.000 A 
ATOM     24  C   UNL     1       3.966   4.313  17.149  0.00  0.00    +0.000 A 
ENDBRANCH  17  18
BRANCH  17  25
ATOM     25  C   UNL     1       2.131   4.748  19.422  0.00  0.00    +0.000 A 
ATOM     26  C   UNL     1       1.272   3.755  18.966  0.00  0.00    +0.000 A 
ATOM     27  C   UNL     1       0.853   2.764  19.860  0.00  0.00    +0.000 A 
ATOM     28  C   UNL     1       1.307   2.781  21.170  0.00  0.00    +0.000 A 
ATOM     29  C   UNL     1       2.188   3.775  21.537  0.00  0.00    +0.000 A 
ATOM     30  N   UNL     1       2.610   4.743  20.693  0.00  0.00    +0.000 NA
ENDBRANCH  17  25
ENDBRANCH  16  17
ENDBRANCH   1  16
TORSDOF 9
ENDMDL
MODEL 8
REMARK VINA RESULT:      -7.7      0.994      1.525
REMARK  Name = 
REMARK  9 active torsions:
REMARK  status: ('A' for Active; 'I' for Inactive)
REMARK    1  A    between atoms: C_2  and  C_3
REMARK    2  A    between atoms: C_3  and  C_4
REMARK    3  A    between atoms: C_4  and  C_5
REMARK    4  A    between atoms: C_5  and  C_6
REMARK    5  A    between atoms: N_11  and  C_12
REMARK    6  A    between atoms: C_12  and  C_13
REMARK    7  A    between atoms: C_13  and  C_14
REMARK    8  A    between atoms: C_14  and  C_15
REMARK    9  A    between atoms: C_14  and  C_22
REMARK                            x       y       z     vdW  Elec       q    Type
REMARK                         _______ _______ _______ _____ _____    ______ ____
ROOT
ATOM      1  C   UNL     1       5.740   5.578  16.947  0.00  0.00    +0.000 C 
ENDROOT
BRANCH   1   4
ATOM      2  N   UNL     1       8.086   5.680  19.636  0.00  0.00    +0.000 NA
ATOM      3  C   UNL     1       7.407   6.182  18.653  0.00  0.00    +0.000 C 
ATOM      4  N   UNL     1       6.244   5.544  18.310  0.00  0.00    +0.000 N 
ATOM      5  H   UNL     1       8.916   6.242  19.834  0.00  0.00    +0.000 HD
ATOM      6  H   UNL     1       6.203   4.633  18.757  0.00  0.00    +0.000 HD
BRANCH   3   7
ATOM      7  C   UNL     1       7.838   7.456  17.927  0.00  0.00    +0.000 C 
BRANCH   7   8
ATOM      8  C   UNL     1       8.620   8.473  18.753  0.00  0.00    +0.000 C 
BRANCH   8   9
ATOM      9  C   UNL     1       8.545   9.890  18.179  0.00  0.00    +0.000 C 
BRANCH   9  10
ATOM     10  C   UNL     1       9.586  10.773  18.772  0.00  0.00    +0.000 A 
ATOM     11  C   UNL     1       9.757  11.142  20.090  0.00  0.00    +0.000 A 
ATOM     12  N   UNL     1      10.849  11.965  20.093  0.00  0.00    +0.000 N 
ATOM     13  C   UNL     1      11.289  12.070  18.804  0.00  0.00    +0.000 A 
ATOM     14  N   UNL     1      10.546  11.362  17.983  0.00  0.00    +0.000 NA
ATOM     15  H   UNL     1      11.260  12.418  20.897  0.00  0.00    +0.000 HD
ENDBRANCH   9  10
ENDBRANCH   8   9
ENDBRANCH   7   8
ENDBRANCH   3   7
ENDBRANCH   1   4
BRANCH   1  16
ATOM     16  C   UNL     1       4.241   5.868  16.899  0.00  0.00    +0.000 C 
BRANCH  16  17
ATOM     17  C   UNL     1       3.556   5.803  18.293  0.00  0.00    +0.000 C 
BRANCH  17  18
ATOM     18  C   UNL     1       2.734   7.059  18.629  0.00  0.00    +0.000 A 
ATOM     19  C   UNL     1       2.191   7.289  19.905  0.00  0.00    +0.000 A 
ATOM     20  C   UNL     1       1.487   8.463  20.194  0.00  0.00    +0.000 A 
ATOM     21  C   UNL     1       1.302   9.421  19.202  0.00  0.00    +0.000 A 
ATOM     22 CL   UNL     1       0.468  10.880  19.570  0.00  0.00    +0.000 Cl
ATOM     23  C   UNL     1       1.797   9.203  17.922  0.00  0.00    +0.000 A 
ATOM     24  C   UNL     1       2.512   8.033  17.637  0.00  0.00    +0.000 A 
ENDBRANCH  17  18
BRANCH  17  25
ATOM     25  C   UNL     1       2.839   4.455  18.466  0.00  0.00    +0.000 A 
ATOM     26  C   UNL     1       3.290   3.316  17.808  0.00  0.00    +0.000 A 
ATOM     27  C   UNL     1       2.547   2.137  17.917  0.00  0.00    +0.000 A 
ATOM     28  C   UNL     1       1.389   2.120  18.680  0.00  0.00    +0.000 A 
ATOM     29  C   UNL     1       1.028   3.277  19.334  0.00  0.00    +0.000 A 
ATOM     30  N   UNL     1       1.729   4.430  19.248  0.00  0.00    +0.000 NA
ENDBRANCH  17  25
ENDBRANCH  16  17
ENDBRANCH   1  16
TORSDOF 9
ENDMDL
MODEL 9
REMARK VINA RESULT:      -7.7      4.706      8.136
REMARK  Name = 
REMARK  9 active torsions:
REMARK  status: ('A' for Active; 'I' for Inactive)
REMARK    1  A    between atoms: C_2  and  C_3
REMARK    2  A    between atoms: C_3  and  C_4
REMARK    3  A    between atoms: C_4  and  C_5
REMARK    4  A    between atoms: C_5  and  C_6
REMARK    5  A    between atoms: N_11  and  C_12
REMARK    6  A    between atoms: C_12  and  C_13
REMARK    7  A    between atoms: C_13  and  C_14
REMARK    8  A    between atoms: C_14  and  C_15
REMARK    9  A    between atoms: C_14  and  C_22
REMARK                            x       y       z     vdW  Elec       q    Type
REMARK                         _______ _______ _______ _____ _____    ______ ____
ROOT
ATOM      1  C   UNL     1       1.738   8.384  18.944  0.00  0.00    +0.000 C 
ENDROOT
BRANCH   1   4
ATOM      2  N   UNL     1       0.886  10.782  21.447  0.00  0.00    +0.000 NA
ATOM      3  C   UNL     1       0.940  10.319  20.238  0.00  0.00    +0.000 C 
ATOM      4  N   UNL     1       1.068   8.962  20.097  0.00  0.00    +0.000 N 
ATOM      5  H   UNL     1       0.759  11.796  21.447  0.00  0.00    +0.000 HD
ATOM      6  H   UNL     1       1.316   8.543  20.989  0.00  0.00    +0.000 HD
BRANCH   3   7
ATOM      7  C   UNL     1       0.819  11.220  19.010  0.00  0.00    +0.000 C 
BRANCH   7   8
ATOM      8  C   UNL     1      -0.569  11.781  18.719  0.00  0.00    +0.000 C 
BRANCH   8   9
ATOM      9  C   UNL     1      -1.646  10.696  18.639  0.00  0.00    +0.000 C 
BRANCH   9  10
ATOM     10  C   UNL     1      -2.676  11.025  17.616  0.00  0.00    +0.000 A 
ATOM     11  C   UNL     1      -2.571  10.988  16.241  0.00  0.00    +0.000 A 
ATOM     12  N   UNL     1      -3.793  11.388  15.777  0.00  0.00    +0.000 N 
ATOM     13  C   UNL     1      -4.578  11.655  16.862  0.00  0.00    +0.000 A 
ATOM     14  N   UNL     1      -3.931  11.447  17.987  0.00  0.00    +0.000 NA
ATOM     15  H   UNL     1      -4.071  11.474  14.809  0.00  0.00    +0.000 HD
ENDBRANCH   9  10
ENDBRANCH   8   9
ENDBRANCH   7   8
ENDBRANCH   3   7
ENDBRANCH   1   4
BRANCH   1  16
ATOM     16  C   UNL     1       2.697   7.266  19.341  0.00  0.00    +0.000 C 
BRANCH  16  17
ATOM     17  C   UNL     1       2.491   5.957  18.528  0.00  0.00    +0.000 C 
BRANCH  17  18
ATOM     18  C   UNL     1       3.662   5.632  17.586  0.00  0.00    +0.000 A 
ATOM     19  C   UNL     1       3.963   4.321  17.177  0.00  0.00    +0.000 A 
ATOM     20  C   UNL     1       5.006   4.061  16.282  0.00  0.00    +0.000 A 
ATOM     21  C   UNL     1       5.777   5.111  15.793  0.00  0.00    +0.000 A 
ATOM     22 CL   UNL     1       7.036   4.792  14.664  0.00  0.00    +0.000 Cl
ATOM     23  C   UNL     1       5.525   6.412  16.208  0.00  0.00    +0.000 A 
ATOM     24  C   UNL     1       4.473   6.674  17.095  0.00  0.00    +0.000 A 
ENDBRANCH  17  18
BRANCH  17  25
ATOM     25  C   UNL     1       2.032   4.824  19.459  0.00  0.00    +0.000 A 
ATOM     26  C   UNL     1       2.481   4.752  20.772  0.00  0.00    +0.000 A 
ATOM     27  C   UNL     1       2.117   3.649  21.549  0.00  0.00    +0.000 A 
ATOM     28  C   UNL     1       1.312   2.659  21.006  0.00  0.00    +0.000 A 
ATOM     29  C   UNL     1       0.874   2.820  19.710  0.00  0.00    +0.000 A 
ATOM     30  N   UNL     1       1.210   3.878  18.937  0.00  0.00    +0.000 NA
ENDBRANCH  17  25
ENDBRANCH  16  17
ENDBRANCH   1  16
TORSDOF 9
ENDMDL
