MODEL 1
REMARK VINA RESULT:     -10.2      0.000      0.000
REMARK  Name = 
REMARK  10 active torsions:
REMARK  status: ('A' for Active; 'I' for Inactive)
REMARK    1  A    between atoms: C_1  and  C_2
REMARK    2  A    between atoms: C_4  and  N_5
REMARK    3  A    between atoms: C_10  and  C_11
REMARK    4  A    between atoms: C_14  and  C_15
REMARK    5  A    between atoms: C_18  and  C_19
REMARK    6  A    between atoms: C_19  and  C_20
REMARK    7  A    between atoms: C_19  and  O_21
REMARK    8  A    between atoms: C_19  and  C_22
REMARK    9  A    between atoms: C_25  and  C_26
REMARK   10  A    between atoms: C_26  and  O_28
REMARK                            x       y       z     vdW  Elec       q    Type
REMARK                         _______ _______ _______ _____ _____    ______ ____
ROOT
ATOM      1  C   UNL     1       2.134   6.976  19.469  0.00  0.00    +0.000 A 
ATOM      2  C   UNL     1       1.514   7.565  20.576  0.00  0.00    +0.000 A 
ATOM      3  C   UNL     1       0.979   8.856  20.509  0.00  0.00    +0.000 A 
ATOM      4  C   UNL     1       1.025   9.608  19.325  0.00  0.00    +0.000 A 
ATOM      5  C   UNL     1       1.685   9.038  18.227  0.00  0.00    +0.000 A 
ATOM      6  C   UNL     1       2.231   7.752  18.300  0.00  0.00    +0.000 A 
ENDROOT
BRANCH   1  12
ATOM      7  C   UNL     1       2.519   2.526  21.768  0.00  0.00    +0.000 C 
ATOM      8  C   UNL     1       2.815   3.395  20.582  0.00  0.00    +0.000 A 
ATOM      9  C   UNL     1       3.548   2.916  19.485  0.00  0.00    +0.000 A 
ATOM     10  C   UNL     1       3.786   3.727  18.369  0.00  0.00    +0.000 A 
ATOM     11  C   UNL     1       3.341   5.052  18.428  0.00  0.00    +0.000 A 
ATOM     12  C   UNL     1       2.615   5.579  19.509  0.00  0.00    +0.000 A 
ATOM     13  C   UNL     1       2.349   4.719  20.579  0.00  0.00    +0.000 A 
BRANCH  10  14
ATOM     14  N   UNL     1       4.469   3.211  17.250  0.00  0.00    +0.000 N 
ATOM     15  C   UNL     1       5.441   3.837  16.457  0.00  0.00    +0.000 A 
ATOM     16  N   UNL     1       6.198   4.832  16.944  0.00  0.00    +0.000 NA
ATOM     17  C   UNL     1       7.008   5.487  16.103  0.00  0.00    +0.000 A 
ATOM     18  C   UNL     1       7.112   5.173  14.776  0.00  0.00    +0.000 A 
ATOM     19  C   UNL     1       6.341   4.111  14.353  0.00  0.00    +0.000 A 
ATOM     20  C   UNL     1       6.373   3.674  12.922  0.00  0.00    +0.000 C 
ATOM     21  N   UNL     1       5.509   3.434  15.179  0.00  0.00    +0.000 NA
ATOM     22  H   UNL     1       3.936   2.594  16.653  0.00  0.00    +0.000 HD
ENDBRANCH  10  14
ENDBRANCH   1  12
BRANCH   4  23
ATOM     23  C   UNL     1       0.353  10.978  19.209  0.00  0.00    +0.000 C 
ATOM     24  C   UNL     1       0.749  11.908  20.374  0.00  0.00    +0.000 C 
BRANCH  23  25
ATOM     25  C   UNL     1      -1.210  10.899  19.053  0.00  0.00    +0.000 C 
ATOM     26  C   UNL     1      -1.925  12.261  19.233  0.00  0.00    +0.000 C 
ATOM     27  C   UNL     1      -3.447  12.135  19.154  0.00  0.00    +0.000 C 
ATOM     28  C   UNL     1      -3.889  11.461  17.855  0.00  0.00    +0.000 C 
ATOM     29  C   UNL     1      -3.207  10.104  17.691  0.00  0.00    +0.000 C 
ATOM     30  C   UNL     1      -1.683  10.233  17.745  0.00  0.00    +0.000 C 
BRANCH  28  31
ATOM     31  C   UNL     1      -5.398  11.278  17.824  0.00  0.00    +0.000 C 
ATOM     32  O   UNL     1      -6.045  10.608  18.617  0.00  0.00    +0.000 OA
BRANCH  31  33
ATOM     33  O   UNL     1      -5.993  11.923  16.789  0.00  0.00    +0.000 OA
ATOM     34  H   UNL     1      -5.670  11.645  15.912  0.00  0.00    +0.000 HD
ENDBRANCH  31  33
ENDBRANCH  28  31
ENDBRANCH  23  25
BRANCH  23  35
ATOM     35  O   UNL     1       0.857  11.637  18.032  0.00  0.00    +0.000 OA
ATOM     36  H   UNL     1       0.115  12.134  17.644  0.00  0.00    +0.000 HD
ENDBRANCH  23  35
ENDBRANCH   4  23
TORSDOF 7
ENDMDL
MODEL 2
REMARK VINA RESULT:     -10.1      0.542      1.020
REMARK  Name = 
REMARK  10 active torsions:
REMARK  status: ('A' for Active; 'I' for Inactive)
REMARK    1  A    between atoms: C_1  and  C_2
REMARK    2  A    between atoms: C_4  and  N_5
REMARK    3  A    between atoms: C_10  and  C_11
REMARK    4  A    between atoms: C_14  and  C_15
REMARK    5  A    between atoms: C_18  and  C_19
REMARK    6  A    between atoms: C_19  and  C_20
REMARK    7  A    between atoms: C_19  and  O_21
REMARK    8  A    between atoms: C_19  and  C_22
REMARK    9  A    between atoms: C_25  and  C_26
REMARK   10  A    between atoms: C_26  and  O_28
REMARK                            x       y       z     vdW  Elec       q    Type
REMARK                         _______ _______ _______ _____ _____    ______ ____
ROOT
ATOM      1  C   UNL     1       2.046   7.426  19.366  0.00  0.00    +0.000 A 
ATOM      2  C   UNL     1       1.444   8.082  20.445  0.00  0.00    +0.000 A 
ATOM      3  C   UNL     1       1.016   9.411  20.342  0.00  0.00    +0.000 A 
ATOM      4  C   UNL     1       1.157  10.136  19.149  0.00  0.00    +0.000 A 
ATOM      5  C   UNL     1       1.799   9.495  18.080  0.00  0.00    +0.000 A 
ATOM      6  C   UNL     1       2.237   8.171  18.188  0.00  0.00    +0.000 A 
ENDROOT
BRANCH   1  12
ATOM      7  C   UNL     1       2.047   3.013  21.765  0.00  0.00    +0.000 C 
ATOM      8  C   UNL     1       2.423   3.828  20.563  0.00  0.00    +0.000 A 
ATOM      9  C   UNL     1       3.125   3.267  19.485  0.00  0.00    +0.000 A 
ATOM     10  C   UNL     1       3.438   4.030  18.354  0.00  0.00    +0.000 A 
ATOM     11  C   UNL     1       3.101   5.388  18.380  0.00  0.00    +0.000 A 
ATOM     12  C   UNL     1       2.411   5.997  19.441  0.00  0.00    +0.000 A 
ATOM     13  C   UNL     1       2.067   5.184  20.526  0.00  0.00    +0.000 A 
BRANCH  10  14
ATOM     14  N   UNL     1       4.086   3.435  17.254  0.00  0.00    +0.000 N 
ATOM     15  C   UNL     1       5.200   3.903  16.542  0.00  0.00    +0.000 A 
ATOM     16  N   UNL     1       6.088   4.734  17.108  0.00  0.00    +0.000 NA
ATOM     17  C   UNL     1       7.050   5.260  16.340  0.00  0.00    +0.000 A 
ATOM     18  C   UNL     1       7.177   4.973  15.009  0.00  0.00    +0.000 A 
ATOM     19  C   UNL     1       6.260   4.077  14.502  0.00  0.00    +0.000 A 
ATOM     20  C   UNL     1       6.301   3.685  13.058  0.00  0.00    +0.000 C 
ATOM     21  N   UNL     1       5.274   3.533  15.254  0.00  0.00    +0.000 NA
ATOM     22  H   UNL     1       3.491   2.941  16.604  0.00  0.00    +0.000 HD
ENDBRANCH  10  14
ENDBRANCH   1  12
BRANCH   4  23
ATOM     23  C   UNL     1       0.600  11.552  18.992  0.00  0.00    +0.000 C 
ATOM     24  C   UNL     1       0.772  12.379  20.283  0.00  0.00    +0.000 C 
BRANCH  23  25
ATOM     25  C   UNL     1      -0.889  11.590  18.489  0.00  0.00    +0.000 C 
ATOM     26  C   UNL     1      -1.332  10.304  17.749  0.00  0.00    +0.000 C 
ATOM     27  C   UNL     1      -2.758  10.406  17.205  0.00  0.00    +0.000 C 
ATOM     28  C   UNL     1      -3.755  10.765  18.307  0.00  0.00    +0.000 C 
ATOM     29  C   UNL     1      -3.336  12.050  19.018  0.00  0.00    +0.000 C 
ATOM     30  C   UNL     1      -1.918  11.939  19.584  0.00  0.00    +0.000 C 
BRANCH  28  31
ATOM     31  C   UNL     1      -5.155  10.933  17.738  0.00  0.00    +0.000 C 
ATOM     32  O   UNL     1      -6.195  10.788  18.368  0.00  0.00    +0.000 OA
BRANCH  31  33
ATOM     33  O   UNL     1      -5.163  11.244  16.418  0.00  0.00    +0.000 OA
ATOM     34  H   UNL     1      -5.384  12.175  16.233  0.00  0.00    +0.000 HD
ENDBRANCH  31  33
ENDBRANCH  28  31
ENDBRANCH  23  25
BRANCH  23  35
ATOM     35  O   UNL     1       1.390  12.249  18.009  0.00  0.00    +0.000 OA
ATOM     36  H   UNL     1       1.795  11.572  17.438  0.00  0.00    +0.000 HD
ENDBRANCH  23  35
ENDBRANCH   4  23
TORSDOF 7
ENDMDL
MODEL 3
REMARK VINA RESULT:      -9.7      1.784      2.266
REMARK  Name = 
REMARK  10 active torsions:
REMARK  status: ('A' for Active; 'I' for Inactive)
REMARK    1  A    between atoms: C_1  and  C_2
REMARK    2  A    between atoms: C_4  and  N_5
REMARK    3  A    between atoms: C_10  and  C_11
REMARK    4  A    between atoms: C_14  and  C_15
REMARK    5  A    between atoms: C_18  and  C_19
REMARK    6  A    between atoms: C_19  and  C_20
REMARK    7  A    between atoms: C_19  and  O_21
REMARK    8  A    between atoms: C_19  and  C_22
REMARK    9  A    between atoms: C_25  and  C_26
REMARK   10  A    between atoms: C_26  and  O_28
REMARK                            x       y       z     vdW  Elec       q    Type
REMARK                         _______ _______ _______ _____ _____    ______ ____
ROOT
ATOM      1  C   UNL     1       1.879   7.403  19.729  0.00  0.00    +0.000 A 
ATOM      2  C   UNL     1       1.356   7.996  20.882  0.00  0.00    +0.000 A 
ATOM      3  C   UNL     1       0.930   9.329  20.887  0.00  0.00    +0.000 A 
ATOM      4  C   UNL     1       0.994  10.123  19.731  0.00  0.00    +0.000 A 
ATOM      5  C   UNL     1       1.558   9.545  18.586  0.00  0.00    +0.000 A 
ATOM      6  C   UNL     1       1.995   8.216  18.587  0.00  0.00    +0.000 A 
ENDROOT
BRANCH   1  12
ATOM      7  C   UNL     1       1.928   2.835  21.817  0.00  0.00    +0.000 C 
ATOM      8  C   UNL     1       2.274   3.731  20.665  0.00  0.00    +0.000 A 
ATOM      9  C   UNL     1       2.943   3.243  19.531  0.00  0.00    +0.000 A 
ATOM     10  C   UNL     1       3.228   4.082  18.447  0.00  0.00    +0.000 A 
ATOM     11  C   UNL     1       2.898   5.436  18.576  0.00  0.00    +0.000 A 
ATOM     12  C   UNL     1       2.240   5.971  19.695  0.00  0.00    +0.000 A 
ATOM     13  C   UNL     1       1.922   5.087  20.731  0.00  0.00    +0.000 A 
BRANCH  10  14
ATOM     14  N   UNL     1       3.843   3.562  17.291  0.00  0.00    +0.000 N 
ATOM     15  C   UNL     1       5.077   3.916  16.727  0.00  0.00    +0.000 A 
ATOM     16  N   UNL     1       6.054   4.453  17.474  0.00  0.00    +0.000 NA
ATOM     17  C   UNL     1       7.154   4.901  16.858  0.00  0.00    +0.000 A 
ATOM     18  C   UNL     1       7.334   4.819  15.505  0.00  0.00    +0.000 A 
ATOM     19  C   UNL     1       6.312   4.216  14.804  0.00  0.00    +0.000 A 
ATOM     20  C   UNL     1       6.397   4.067  13.317  0.00  0.00    +0.000 C 
ATOM     21  N   UNL     1       5.186   3.757  15.399  0.00  0.00    +0.000 NA
ATOM     22  H   UNL     1       3.221   3.308  16.536  0.00  0.00    +0.000 HD
ENDBRANCH  10  14
ENDBRANCH   1  12
BRANCH   4  23
ATOM     23  C   UNL     1       0.436  11.548  19.696  0.00  0.00    +0.000 C 
ATOM     24  C   UNL     1       1.466  12.576  20.210  0.00  0.00    +0.000 C 
BRANCH  23  25
ATOM     25  C   UNL     1      -0.940  11.703  20.440  0.00  0.00    +0.000 C 
ATOM     26  C   UNL     1      -0.804  12.141  21.919  0.00  0.00    +0.000 C 
ATOM     27  C   UNL     1      -2.155  12.205  22.635  0.00  0.00    +0.000 C 
ATOM     28  C   UNL     1      -3.141  13.107  21.893  0.00  0.00    +0.000 C 
ATOM     29  C   UNL     1      -3.299  12.658  20.441  0.00  0.00    +0.000 C 
ATOM     30  C   UNL     1      -1.950  12.618  19.719  0.00  0.00    +0.000 C 
BRANCH  28  31
ATOM     31  C   UNL     1      -4.499  13.104  22.576  0.00  0.00    +0.000 C 
ATOM     32  O   UNL     1      -4.804  13.786  23.545  0.00  0.00    +0.000 OA
BRANCH  31  33
ATOM     33  O   UNL     1      -5.376  12.232  22.018  0.00  0.00    +0.000 OA
ATOM     34  H   UNL     1      -4.951  11.485  21.558  0.00  0.00    +0.000 HD
ENDBRANCH  31  33
ENDBRANCH  28  31
ENDBRANCH  23  25
BRANCH  23  35
ATOM     35  O   UNL     1       0.211  11.917  18.322  0.00  0.00    +0.000 OA
ATOM     36  H   UNL     1       1.079  12.144  17.942  0.00  0.00    +0.000 HD
ENDBRANCH  23  35
ENDBRANCH   4  23
TORSDOF 7
ENDMDL
MODEL 4
REMARK VINA RESULT:      -9.4      6.482     10.344
REMARK  Name = 
REMARK  10 active torsions:
REMARK  status: ('A' for Active; 'I' for Inactive)
REMARK    1  A    between atoms: C_1  and  C_2
REMARK    2  A    between atoms: C_4  and  N_5
REMARK    3  A    between atoms: C_10  and  C_11
REMARK    4  A    between atoms: C_14  and  C_15
REMARK    5  A    between atoms: C_18  and  C_19
REMARK    6  A    between atoms: C_19  and  C_20
REMARK    7  A    between atoms: C_19  and  O_21
REMARK    8  A    between atoms: C_19  and  C_22
REMARK    9  A    between atoms: C_25  and  C_26
REMARK   10  A    between atoms: C_26  and  O_28
REMARK                            x       y       z     vdW  Elec       q    Type
REMARK                         _______ _______ _______ _____ _____    ______ ____
ROOT
ATOM      1  C   UNL     1       8.424   8.908  18.516  0.00  0.00    +0.000 A 
ATOM      2  C   UNL     1       8.691   7.718  19.200  0.00  0.00    +0.000 A 
ATOM      3  C   UNL     1       8.094   6.509  18.821  0.00  0.00    +0.000 A 
ATOM      4  C   UNL     1       7.215   6.437  17.730  0.00  0.00    +0.000 A 
ATOM      5  C   UNL     1       6.911   7.637  17.070  0.00  0.00    +0.000 A 
ATOM      6  C   UNL     1       7.499   8.845  17.458  0.00  0.00    +0.000 A 
ENDROOT
BRANCH   1  12
ATOM      7  C   UNL     1      10.995  13.004  17.160  0.00  0.00    +0.000 C 
ATOM      8  C   UNL     1      10.364  12.175  18.239  0.00  0.00    +0.000 A 
ATOM      9  C   UNL     1      10.419  12.561  19.587  0.00  0.00    +0.000 A 
ATOM     10  C   UNL     1       9.796  11.796  20.581  0.00  0.00    +0.000 A 
ATOM     11  C   UNL     1       9.194  10.596  20.187  0.00  0.00    +0.000 A 
ATOM     12  C   UNL     1       9.125  10.163  18.853  0.00  0.00    +0.000 A 
ATOM     13  C   UNL     1       9.711  10.985  17.885  0.00  0.00    +0.000 A 
BRANCH  10  14
ATOM     14  N   UNL     1       9.806  12.230  21.921  0.00  0.00    +0.000 N 
ATOM     15  C   UNL     1       8.718  12.426  22.782  0.00  0.00    +0.000 A 
ATOM     16  N   UNL     1       7.561  11.769  22.600  0.00  0.00    +0.000 NA
ATOM     17  C   UNL     1       6.513  12.099  23.364  0.00  0.00    +0.000 A 
ATOM     18  C   UNL     1       6.574  13.062  24.334  0.00  0.00    +0.000 A 
ATOM     19  C   UNL     1       7.803  13.665  24.498  0.00  0.00    +0.000 A 
ATOM     20  C   UNL     1       7.992  14.732  25.530  0.00  0.00    +0.000 C 
ATOM     21  N   UNL     1       8.880  13.354  23.737  0.00  0.00    +0.000 NA
ATOM     22  H   UNL     1      10.513  12.913  22.159  0.00  0.00    +0.000 HD
ENDBRANCH  10  14
ENDBRANCH   1  12
BRANCH   4  23
ATOM     23  C   UNL     1       6.637   5.107  17.242  0.00  0.00    +0.000 C 
ATOM     24  C   UNL     1       6.843   4.918  15.725  0.00  0.00    +0.000 C 
BRANCH  23  25
ATOM     25  C   UNL     1       5.130   4.894  17.640  0.00  0.00    +0.000 C 
ATOM     26  C   UNL     1       4.506   3.603  17.053  0.00  0.00    +0.000 C 
ATOM     27  C   UNL     1       3.021   3.468  17.393  0.00  0.00    +0.000 C 
ATOM     28  C   UNL     1       2.780   3.546  18.900  0.00  0.00    +0.000 C 
ATOM     29  C   UNL     1       3.369   4.833  19.476  0.00  0.00    +0.000 C 
ATOM     30  C   UNL     1       4.861   4.957  19.157  0.00  0.00    +0.000 C 
BRANCH  28  31
ATOM     31  C   UNL     1       1.294   3.482  19.217  0.00  0.00    +0.000 C 
ATOM     32  O   UNL     1       0.761   3.973  20.202  0.00  0.00    +0.000 OA
BRANCH  31  33
ATOM     33  O   UNL     1       0.581   2.786  18.296  0.00  0.00    +0.000 OA
ATOM     34  H   UNL     1       0.345   1.884  18.579  0.00  0.00    +0.000 HD
ENDBRANCH  31  33
ENDBRANCH  28  31
ENDBRANCH  23  25
BRANCH  23  35
ATOM     35  O   UNL     1       7.384   4.034  17.846  0.00  0.00    +0.000 OA
ATOM     36  H   UNL     1       7.219   3.237  17.311  0.00  0.00    +0.000 HD
ENDBRANCH  23  35
ENDBRANCH   4  23
TORSDOF 7
ENDMDL
MODEL 5
REMARK VINA RESULT:      -9.4      0.871      1.487
REMARK  Name = 
REMARK  10 active torsions:
REMARK  status: ('A' for Active; 'I' for Inactive)
REMARK    1  A    between atoms: C_1  and  C_2
REMARK    2  A    between atoms: C_4  and  N_5
REMARK    3  A    between atoms: C_10  and  C_11
REMARK    4  A    between atoms: C_14  and  C_15
REMARK    5  A    between atoms: C_18  and  C_19
REMARK    6  A    between atoms: C_19  and  C_20
REMARK    7  A    between atoms: C_19  and  O_21
REMARK    8  A    between atoms: C_19  and  C_22
REMARK    9  A    between atoms: C_25  and  C_26
REMARK   10  A    between atoms: C_26  and  O_28
REMARK                            x       y       z     vdW  Elec       q    Type
REMARK                         _______ _______ _______ _____ _____    ______ ____
ROOT
ATOM      1  C   UNL     1       1.877   7.494  19.250  0.00  0.00    +0.000 A 
ATOM      2  C   UNL     1       2.064   8.225  18.072  0.00  0.00    +0.000 A 
ATOM      3  C   UNL     1       1.719   9.580  17.993  0.00  0.00    +0.000 A 
ATOM      4  C   UNL     1       1.188  10.266  19.097  0.00  0.00    +0.000 A 
ATOM      5  C   UNL     1       0.960   9.524  20.265  0.00  0.00    +0.000 A 
ATOM      6  C   UNL     1       1.293   8.168  20.337  0.00  0.00    +0.000 A 
ENDROOT
BRANCH   1  12
ATOM      7  C   UNL     1       2.247   3.193  21.818  0.00  0.00    +0.000 C 
ATOM      8  C   UNL     1       2.519   3.977  20.568  0.00  0.00    +0.000 A 
ATOM      9  C   UNL     1       3.201   3.411  19.480  0.00  0.00    +0.000 A 
ATOM     10  C   UNL     1       3.416   4.142  18.306  0.00  0.00    +0.000 A 
ATOM     11  C   UNL     1       3.003   5.479  18.295  0.00  0.00    +0.000 A 
ATOM     12  C   UNL     1       2.328   6.092  19.364  0.00  0.00    +0.000 A 
ATOM     13  C   UNL     1       2.083   5.308  20.495  0.00  0.00    +0.000 A 
BRANCH  10  14
ATOM     14  N   UNL     1       4.046   3.538  17.200  0.00  0.00    +0.000 N 
ATOM     15  C   UNL     1       5.183   3.971  16.502  0.00  0.00    +0.000 A 
ATOM     16  N   UNL     1       6.101   4.754  17.087  0.00  0.00    +0.000 NA
ATOM     17  C   UNL     1       7.089   5.252  16.333  0.00  0.00    +0.000 A 
ATOM     18  C   UNL     1       7.213   4.982  14.998  0.00  0.00    +0.000 A 
ATOM     19  C   UNL     1       6.262   4.134  14.471  0.00  0.00    +0.000 A 
ATOM     20  C   UNL     1       6.296   3.764  13.022  0.00  0.00    +0.000 C 
ATOM     21  N   UNL     1       5.250   3.619  15.208  0.00  0.00    +0.000 NA
ATOM     22  H   UNL     1       3.435   3.080  16.539  0.00  0.00    +0.000 HD
ENDBRANCH  10  14
ENDBRANCH   1  12
BRANCH   4  23
ATOM     23  C   UNL     1       0.905  11.769  19.056  0.00  0.00    +0.000 C 
ATOM     24  C   UNL     1       1.483  12.492  20.290  0.00  0.00    +0.000 C 
BRANCH  23  25
ATOM     25  C   UNL     1      -0.616  12.116  18.857  0.00  0.00    +0.000 C 
ATOM     26  C   UNL     1      -1.366  11.129  17.928  0.00  0.00    +0.000 C 
ATOM     27  C   UNL     1      -2.820  11.541  17.693  0.00  0.00    +0.000 C 
ATOM     28  C   UNL     1      -3.573  11.720  19.011  0.00  0.00    +0.000 C 
ATOM     29  C   UNL     1      -2.850  12.716  19.917  0.00  0.00    +0.000 C 
ATOM     30  C   UNL     1      -1.402  12.291  20.172  0.00  0.00    +0.000 C 
BRANCH  28  31
ATOM     31  C   UNL     1      -4.995  12.199  18.764  0.00  0.00    +0.000 C 
ATOM     32  O   UNL     1      -5.608  12.987  19.471  0.00  0.00    +0.000 OA
BRANCH  31  33
ATOM     33  O   UNL     1      -5.563  11.641  17.665  0.00  0.00    +0.000 OA
ATOM     34  H   UNL     1      -5.103  10.843  17.345  0.00  0.00    +0.000 HD
ENDBRANCH  31  33
ENDBRANCH  28  31
ENDBRANCH  23  25
BRANCH  23  35
ATOM     35  O   UNL     1       1.613  12.338  17.939  0.00  0.00    +0.000 OA
ATOM     36  H   UNL     1       1.321  11.860  17.142  0.00  0.00    +0.000 HD
ENDBRANCH  23  35
ENDBRANCH   4  23
TORSDOF 7
ENDMDL
MODEL 6
REMARK VINA RESULT:      -9.4      2.303      3.123
REMARK  Name = 
REMARK  10 active torsions:
REMARK  status: ('A' for Active; 'I' for Inactive)
REMARK    1  A    between atoms: C_1  and  C_2
REMARK    2  A    between atoms: C_4  and  N_5
REMARK    3  A    between atoms: C_10  and  C_11
REMARK    4  A    between atoms: C_14  and  C_15
REMARK    5  A    between atoms: C_18  and  C_19
REMARK    6  A    between atoms: C_19  and  C_20
REMARK    7  A    between atoms: C_19  and  O_21
REMARK    8  A    between atoms: C_19  and  C_22
REMARK    9  A    between atoms: C_25  and  C_26
REMARK   10  A    between atoms: C_26  and  O_28
REMARK                            x       y       z     vdW  Elec       q    Type
REMARK                         _______ _______ _______ _____ _____    ______ ____
ROOT
ATOM      1  C   UNL     1       2.087   7.315  19.416  0.00  0.00    +0.000 A 
ATOM      2  C   UNL     1       1.569   7.969  20.539  0.00  0.00    +0.000 A 
ATOM      3  C   UNL     1       1.161   9.306  20.480  0.00  0.00    +0.000 A 
ATOM      4  C   UNL     1       1.238  10.044  19.288  0.00  0.00    +0.000 A 
ATOM      5  C   UNL     1       1.797   9.405  18.173  0.00  0.00    +0.000 A 
ATOM      6  C   UNL     1       2.216   8.072  18.238  0.00  0.00    +0.000 A 
ENDROOT
BRANCH   1  12
ATOM      7  C   UNL     1       1.975   2.827  21.669  0.00  0.00    +0.000 C 
ATOM      8  C   UNL     1       2.386   3.675  20.502  0.00  0.00    +0.000 A 
ATOM      9  C   UNL     1       3.100   3.138  19.419  0.00  0.00    +0.000 A 
ATOM     10  C   UNL     1       3.446   3.932  18.320  0.00  0.00    +0.000 A 
ATOM     11  C   UNL     1       3.129   5.294  18.384  0.00  0.00    +0.000 A 
ATOM     12  C   UNL     1       2.428   5.879  19.452  0.00  0.00    +0.000 A 
ATOM     13  C   UNL     1       2.051   5.037  20.503  0.00  0.00    +0.000 A 
BRANCH  10  14
ATOM     14  N   UNL     1       4.106   3.363  17.213  0.00  0.00    +0.000 N 
ATOM     15  C   UNL     1       5.199   3.869  16.496  0.00  0.00    +0.000 A 
ATOM     16  N   UNL     1       6.064   4.726  17.061  0.00  0.00    +0.000 NA
ATOM     17  C   UNL     1       7.003   5.285  16.288  0.00  0.00    +0.000 A 
ATOM     18  C   UNL     1       7.131   5.008  14.955  0.00  0.00    +0.000 A 
ATOM     19  C   UNL     1       6.240   4.086  14.450  0.00  0.00    +0.000 A 
ATOM     20  C   UNL     1       6.284   3.701  13.004  0.00  0.00    +0.000 C 
ATOM     21  N   UNL     1       5.276   3.507  15.206  0.00  0.00    +0.000 NA
ATOM     22  H   UNL     1       3.522   2.853  16.565  0.00  0.00    +0.000 HD
ENDBRANCH  10  14
ENDBRANCH   1  12
BRANCH   4  23
ATOM     23  C   UNL     1       0.700  11.472  19.184  0.00  0.00    +0.000 C 
ATOM     24  C   UNL     1       1.737  12.428  18.558  0.00  0.00    +0.000 C 
BRANCH  23  25
ATOM     25  C   UNL     1       0.157  12.040  20.546  0.00  0.00    +0.000 C 
ATOM     26  C   UNL     1       0.540  13.518  20.804  0.00  0.00    +0.000 C 
ATOM     27  C   UNL     1       0.064  14.014  22.171  0.00  0.00    +0.000 C 
ATOM     28  C   UNL     1      -1.440  13.807  22.350  0.00  0.00    +0.000 C 
ATOM     29  C   UNL     1      -1.816  12.343  22.125  0.00  0.00    +0.000 C 
ATOM     30  C   UNL     1      -1.361  11.855  20.748  0.00  0.00    +0.000 C 
BRANCH  28  31
ATOM     31  C   UNL     1      -1.885  14.238  23.739  0.00  0.00    +0.000 C 
ATOM     32  O   UNL     1      -3.014  14.103  24.192  0.00  0.00    +0.000 OA
BRANCH  31  33
ATOM     33  O   UNL     1      -0.898  14.830  24.457  0.00  0.00    +0.000 OA
ATOM     34  H   UNL     1      -1.184  15.628  24.938  0.00  0.00    +0.000 HD
ENDBRANCH  31  33
ENDBRANCH  28  31
ENDBRANCH  23  25
BRANCH  23  35
ATOM     35  O   UNL     1      -0.403  11.480  18.259  0.00  0.00    +0.000 OA
ATOM     36  H   UNL     1      -0.290  12.259  17.686  0.00  0.00    +0.000 HD
ENDBRANCH  23  35
ENDBRANCH   4  23
TORSDOF 7
ENDMDL
MODEL 7
REMARK VINA RESULT:      -9.4      4.929     10.767
REMARK  Name = 
REMARK  10 active torsions:
REMARK  status: ('A' for Active; 'I' for Inactive)
REMARK    1  A    between atoms: C_1  and  C_2
REMARK    2  A    between atoms: C_4  and  N_5
REMARK    3  A    between atoms: C_10  and  C_11
REMARK    4  A    between atoms: C_14  and  C_15
REMARK    5  A    between atoms: C_18  and  C_19
REMARK    6  A    between atoms: C_19  and  C_20
REMARK    7  A    between atoms: C_19  and  O_21
REMARK    8  A    between atoms: C_19  and  C_22
REMARK    9  A    between atoms: C_25  and  C_26
REMARK   10  A    between atoms: C_26  and  O_28
REMARK                            x       y       z     vdW  Elec       q    Type
REMARK                         _______ _______ _______ _____ _____    ______ ____
ROOT
ATOM      1  C   UNL     1       1.129   9.790  19.162  0.00  0.00    +0.000 A 
ATOM      2  C   UNL     1       1.657   9.364  17.938  0.00  0.00    +0.000 A 
ATOM      3  C   UNL     1       2.246   8.102  17.799  0.00  0.00    +0.000 A 
ATOM      4  C   UNL     1       2.319   7.205  18.875  0.00  0.00    +0.000 A 
ATOM      5  C   UNL     1       1.831   7.646  20.114  0.00  0.00    +0.000 A 
ATOM      6  C   UNL     1       1.253   8.912  20.254  0.00  0.00    +0.000 A 
ENDROOT
BRANCH   1  12
ATOM      7  C   UNL     1       1.063  14.806  18.904  0.00  0.00    +0.000 C 
ATOM      8  C   UNL     1       0.339  13.518  19.160  0.00  0.00    +0.000 A 
ATOM      9  C   UNL     1      -1.017  13.497  19.522  0.00  0.00    +0.000 A 
ATOM     10  C   UNL     1      -1.690  12.286  19.723  0.00  0.00    +0.000 A 
ATOM     11  C   UNL     1      -0.939  11.109  19.634  0.00  0.00    +0.000 A 
ATOM     12  C   UNL     1       0.422  11.081  19.287  0.00  0.00    +0.000 A 
ATOM     13  C   UNL     1       1.042  12.310  19.038  0.00  0.00    +0.000 A 
BRANCH  10  14
ATOM     14  N   UNL     1      -3.066  12.281  20.024  0.00  0.00    +0.000 N 
ATOM     15  C   UNL     1      -4.151  12.204  19.139  0.00  0.00    +0.000 A 
ATOM     16  N   UNL     1      -4.021  11.642  17.927  0.00  0.00    +0.000 NA
ATOM     17  C   UNL     1      -5.048  11.724  17.072  0.00  0.00    +0.000 A 
ATOM     18  C   UNL     1      -6.229  12.337  17.387  0.00  0.00    +0.000 A 
ATOM     19  C   UNL     1      -6.312  12.852  18.663  0.00  0.00    +0.000 A 
ATOM     20  C   UNL     1      -7.557  13.543  19.123  0.00  0.00    +0.000 C 
ATOM     21  N   UNL     1      -5.288  12.788  19.547  0.00  0.00    +0.000 NA
ATOM     22  H   UNL     1      -3.349  12.851  20.808  0.00  0.00    +0.000 HD
ENDBRANCH  10  14
ENDBRANCH   1  12
BRANCH   4  23
ATOM     23  C   UNL     1       2.866   5.786  18.711  0.00  0.00    +0.000 C 
ATOM     24  C   UNL     1       3.570   5.293  19.993  0.00  0.00    +0.000 C 
BRANCH  23  25
ATOM     25  C   UNL     1       3.794   5.612  17.453  0.00  0.00    +0.000 C 
ATOM     26  C   UNL     1       5.152   6.347  17.572  0.00  0.00    +0.000 C 
ATOM     27  C   UNL     1       5.995   6.224  16.303  0.00  0.00    +0.000 C 
ATOM     28  C   UNL     1       6.206   4.762  15.908  0.00  0.00    +0.000 C 
ATOM     29  C   UNL     1       4.866   4.043  15.761  0.00  0.00    +0.000 C 
ATOM     30  C   UNL     1       4.033   4.145  17.040  0.00  0.00    +0.000 C 
BRANCH  28  31
ATOM     31  C   UNL     1       6.984   4.657  14.606  0.00  0.00    +0.000 C 
ATOM     32  O   UNL     1       7.862   5.428  14.244  0.00  0.00    +0.000 OA
BRANCH  31  33
ATOM     33  O   UNL     1       6.596   3.611  13.834  0.00  0.00    +0.000 OA
ATOM     34  H   UNL     1       5.681   3.318  13.998  0.00  0.00    +0.000 HD
ENDBRANCH  31  33
ENDBRANCH  28  31
ENDBRANCH  23  25
BRANCH  23  35
ATOM     35  O   UNL     1       1.757   4.884  18.538  0.00  0.00    +0.000 OA
ATOM     36  H   UNL     1       1.187   4.980  19.321  0.00  0.00    +0.000 HD
ENDBRANCH  23  35
ENDBRANCH   4  23
TORSDOF 7
ENDMDL
MODEL 8
REMARK VINA RESULT:      -9.4      5.053     10.874
REMARK  Name = 
REMARK  10 active torsions:
REMARK  status: ('A' for Active; 'I' for Inactive)
REMARK    1  A    between atoms: C_1  and  C_2
REMARK    2  A    between atoms: C_4  and  N_5
REMARK    3  A    between atoms: C_10  and  C_11
REMARK    4  A    between atoms: C_14  and  C_15
REMARK    5  A    between atoms: C_18  and  C_19
REMARK    6  A    between atoms: C_19  and  C_20
REMARK    7  A    between atoms: C_19  and  O_21
REMARK    8  A    between atoms: C_19  and  C_22
REMARK    9  A    between atoms: C_25  and  C_26
REMARK   10  A    between atoms: C_26  and  O_28
REMARK                            x       y       z     vdW  Elec       q    Type
REMARK                         _______ _______ _______ _____ _____    ______ ____
ROOT
ATOM      1  C   UNL     1       1.145   9.782  19.153  0.00  0.00    +0.000 A 
ATOM      2  C   UNL     1       1.644   9.338  17.924  0.00  0.00    +0.000 A 
ATOM      3  C   UNL     1       2.217   8.068  17.787  0.00  0.00    +0.000 A 
ATOM      4  C   UNL     1       2.301   7.180  18.871  0.00  0.00    +0.000 A 
ATOM      5  C   UNL     1       1.841   7.640  20.114  0.00  0.00    +0.000 A 
ATOM      6  C   UNL     1       1.280   8.914  20.251  0.00  0.00    +0.000 A 
ENDROOT
BRANCH   1  12
ATOM      7  C   UNL     1       1.228  14.745  19.920  0.00  0.00    +0.000 C 
ATOM      8  C   UNL     1       0.448  13.497  19.631  0.00  0.00    +0.000 A 
ATOM      9  C   UNL     1      -0.947  13.524  19.472  0.00  0.00    +0.000 A 
ATOM     10  C   UNL     1      -1.659  12.357  19.166  0.00  0.00    +0.000 A 
ATOM     11  C   UNL     1      -0.939  11.159  19.113  0.00  0.00    +0.000 A 
ATOM     12  C   UNL     1       0.454  11.081  19.278  0.00  0.00    +0.000 A 
ATOM     13  C   UNL     1       1.134  12.278  19.524  0.00  0.00    +0.000 A 
BRANCH  10  14
ATOM     14  N   UNL     1      -3.049  12.412  18.947  0.00  0.00    +0.000 N 
ATOM     15  C   UNL     1      -4.076  12.545  19.893  0.00  0.00    +0.000 A 
ATOM     16  N   UNL     1      -3.852  13.118  21.086  0.00  0.00    +0.000 NA
ATOM     17  C   UNL     1      -4.829  13.088  22.000  0.00  0.00    +0.000 A 
ATOM     18  C   UNL     1      -6.049  12.518  21.766  0.00  0.00    +0.000 A 
ATOM     19  C   UNL     1      -6.227  11.989  20.506  0.00  0.00    +0.000 A 
ATOM     20  C   UNL     1      -7.523  11.340  20.132  0.00  0.00    +0.000 C 
ATOM     21  N   UNL     1      -5.256  12.000  19.562  0.00  0.00    +0.000 NA
ATOM     22  H   UNL     1      -3.400  11.842  18.190  0.00  0.00    +0.000 HD
ENDBRANCH  10  14
ENDBRANCH   1  12
BRANCH   4  23
ATOM     23  C   UNL     1       2.829   5.754  18.711  0.00  0.00    +0.000 C 
ATOM     24  C   UNL     1       3.531   5.258  19.993  0.00  0.00    +0.000 C 
BRANCH  23  25
ATOM     25  C   UNL     1       3.751   5.563  17.451  0.00  0.00    +0.000 C 
ATOM     26  C   UNL     1       5.056   6.397  17.499  0.00  0.00    +0.000 C 
ATOM     27  C   UNL     1       5.889   6.250  16.225  0.00  0.00    +0.000 C 
ATOM     28  C   UNL     1       6.197   4.784  15.922  0.00  0.00    +0.000 C 
ATOM     29  C   UNL     1       4.909   3.965  15.845  0.00  0.00    +0.000 C 
ATOM     30  C   UNL     1       4.087   4.093  17.130  0.00  0.00    +0.000 C 
BRANCH  28  31
ATOM     31  C   UNL     1       6.964   4.648  14.617  0.00  0.00    +0.000 C 
ATOM     32  O   UNL     1       7.865   5.388  14.247  0.00  0.00    +0.000 OA
BRANCH  31  33
ATOM     33  O   UNL     1       6.536   3.613  13.851  0.00  0.00    +0.000 OA
ATOM     34  H   UNL     1       5.566   3.554  13.773  0.00  0.00    +0.000 HD
ENDBRANCH  31  33
ENDBRANCH  28  31
ENDBRANCH  23  25
BRANCH  23  35
ATOM     35  O   UNL     1       1.708   4.865  18.546  0.00  0.00    +0.000 OA
ATOM     36  H   UNL     1       1.817   4.427  17.683  0.00  0.00    +0.000 HD
ENDBRANCH  23  35
ENDBRANCH   4  23
TORSDOF 7
ENDMDL
MODEL 9
REMARK VINA RESULT:      -9.3      2.591      4.252
REMARK  Name = 
REMARK  10 active torsions:
REMARK  status: ('A' for Active; 'I' for Inactive)
REMARK    1  A    between atoms: C_1  and  C_2
REMARK    2  A    between atoms: C_4  and  N_5
REMARK    3  A    between atoms: C_10  and  C_11
REMARK    4  A    between atoms: C_14  and  C_15
REMARK    5  A    between atoms: C_18  and  C_19
REMARK    6  A    between atoms: C_19  and  C_20
REMARK    7  A    between atoms: C_19  and  O_21
REMARK    8  A    between atoms: C_19  and  C_22
REMARK    9  A    between atoms: C_25  and  C_26
REMARK   10  A    between atoms: C_26  and  O_28
REMARK                            x       y       z     vdW  Elec       q    Type
REMARK                         _______ _______ _______ _____ _____    ______ ____
ROOT
ATOM      1  C   UNL     1       1.745   7.288  20.122  0.00  0.00    +0.000 A 
ATOM      2  C   UNL     1       1.287   7.791  21.344  0.00  0.00    +0.000 A 
ATOM      3  C   UNL     1       0.919   9.135  21.486  0.00  0.00    +0.000 A 
ATOM      4  C   UNL     1       0.978  10.029  20.406  0.00  0.00    +0.000 A 
ATOM      5  C   UNL     1       1.479   9.537  19.192  0.00  0.00    +0.000 A 
ATOM      6  C   UNL     1       1.858   8.198  19.055  0.00  0.00    +0.000 A 
ENDROOT
BRANCH   1  12
ATOM      7  C   UNL     1       1.466   2.519  21.676  0.00  0.00    +0.000 C 
ATOM      8  C   UNL     1       1.919   3.519  20.653  0.00  0.00    +0.000 A 
ATOM      9  C   UNL     1       2.631   3.127  19.509  0.00  0.00    +0.000 A 
ATOM     10  C   UNL     1       3.017   4.065  18.544  0.00  0.00    +0.000 A 
ATOM     11  C   UNL     1       2.741   5.411  18.808  0.00  0.00    +0.000 A 
ATOM     12  C   UNL     1       2.043   5.852  19.945  0.00  0.00    +0.000 A 
ATOM     13  C   UNL     1       1.625   4.875  20.855  0.00  0.00    +0.000 A 
BRANCH  10  14
ATOM     14  N   UNL     1       3.675   3.647  17.371  0.00  0.00    +0.000 N 
ATOM     15  C   UNL     1       4.976   3.950  16.947  0.00  0.00    +0.000 A 
ATOM     16  N   UNL     1       5.934   4.283  17.826  0.00  0.00    +0.000 NA
ATOM     17  C   UNL     1       7.115   4.700  17.355  0.00  0.00    +0.000 A 
ATOM     18  C   UNL     1       7.395   4.782  16.019  0.00  0.00    +0.000 A 
ATOM     19  C   UNL     1       6.384   4.381  15.173  0.00  0.00    +0.000 A 
ATOM     20  C   UNL     1       6.575   4.425  13.689  0.00  0.00    +0.000 C 
ATOM     21  N   UNL     1       5.177   3.960  15.620  0.00  0.00    +0.000 NA
ATOM     22  H   UNL     1       3.096   3.558  16.547  0.00  0.00    +0.000 HD
ENDBRANCH  10  14
ENDBRANCH   1  12
BRANCH   4  23
ATOM     23  C   UNL     1       0.482  11.471  20.520  0.00  0.00    +0.000 C 
ATOM     24  C   UNL     1      -0.937  11.634  19.937  0.00  0.00    +0.000 C 
BRANCH  23  25
ATOM     25  C   UNL     1       1.471  12.527  19.906  0.00  0.00    +0.000 C 
ATOM     26  C   UNL     1       1.191  12.856  18.418  0.00  0.00    +0.000 C 
ATOM     27  C   UNL     1       2.219  13.824  17.831  0.00  0.00    +0.000 C 
ATOM     28  C   UNL     1       2.318  15.106  18.657  0.00  0.00    +0.000 C 
ATOM     29  C   UNL     1       2.624  14.786  20.119  0.00  0.00    +0.000 C 
ATOM     30  C   UNL     1       1.582  13.837  20.714  0.00  0.00    +0.000 C 
BRANCH  28  31
ATOM     31  C   UNL     1       3.393  16.027  18.103  0.00  0.00    +0.000 C 
ATOM     32  O   UNL     1       3.581  17.184  18.453  0.00  0.00    +0.000 OA
BRANCH  31  33
ATOM     33  O   UNL     1       4.143  15.450  17.131  0.00  0.00    +0.000 OA
ATOM     34  H   UNL     1       3.739  14.653  16.742  0.00  0.00    +0.000 HD
ENDBRANCH  31  33
ENDBRANCH  28  31
ENDBRANCH  23  25
BRANCH  23  35
ATOM     35  O   UNL     1       0.338  11.797  21.916  0.00  0.00    +0.000 OA
ATOM     36  H   UNL     1       1.134  11.466  22.369  0.00  0.00    +0.000 HD
ENDBRANCH  23  35
ENDBRANCH   4  23
TORSDOF 7
ENDMDL
