MODEL 1
REMARK VINA RESULT:      -9.2      0.000      0.000
REMARK  Name = 
REMARK  9 active torsions:
REMARK  status: ('A' for Active; 'I' for Inactive)
REMARK    1  A    between atoms: C_1  and  C_2
REMARK    2  A    between atoms: C_8  and  C_9
REMARK    3  A    between atoms: C_12  and  C_13
REMARK    4  A    between atoms: C_17  and  N_18
REMARK    5  A    between atoms: C_19  and  C_21
REMARK    6  A    between atoms: C_21  and  C_22
REMARK    7  A    between atoms: C_21  and  C_23
REMARK    8  A    between atoms: C_23  and  N_24
REMARK    9  A    between atoms: N_27  and  C_28
REMARK                            x       y       z     vdW  Elec       q    Type
REMARK                         _______ _______ _______ _____ _____    ______ ____
ROOT
ATOM      1  C   UNL     1       0.864   9.296  20.142  0.00  0.00    +0.000 A 
ATOM      2  C   UNL     1       1.041   9.714  18.816  0.00  0.00    +0.000 A 
ATOM      3  C   UNL     1       1.777   8.928  17.937  0.00  0.00    +0.000 A 
ATOM      4  C   UNL     1       2.356   7.739  18.360  0.00  0.00    +0.000 A 
ATOM      5  C   UNL     1       2.213   7.308  19.679  0.00  0.00    +0.000 A 
ATOM      6  C   UNL     1       1.455   8.083  20.554  0.00  0.00    +0.000 A 
ENDROOT
BRANCH   1  10
ATOM      7  C   UNL     1      -1.515  11.554  22.276  0.00  0.00    +0.000 A 
ATOM      8  C   UNL     1      -0.935  10.659  23.148  0.00  0.00    +0.000 A 
ATOM      9  C   UNL     1      -0.012   9.800  22.495  0.00  0.00    +0.000 A 
ATOM     10  C   UNL     1       0.090  10.049  21.136  0.00  0.00    +0.000 A 
ATOM     11  S   UNL     1      -0.941  11.331  20.676  0.00  0.00    +0.000 S 
BRANCH   7  19
ATOM     12  C   UNL     1      -6.730  12.680  23.943  0.00  0.00    +0.000 C 
ATOM     13  C   UNL     1      -5.722  13.743  23.633  0.00  0.00    +0.000 A 
ATOM     14  C   UNL     1      -6.043  15.108  23.739  0.00  0.00    +0.000 A 
ATOM     15  C   UNL     1      -5.118  16.110  23.427  0.00  0.00    +0.000 A 
ATOM     16  C   UNL     1      -3.826  15.790  22.998  0.00  0.00    +0.000 A 
ATOM     17  C   UNL     1      -3.467  14.439  22.904  0.00  0.00    +0.000 A 
ATOM     18  N   UNL     1      -2.272  13.867  22.531  0.00  0.00    +0.000 NA
ATOM     19  C   UNL     1      -2.472  12.566  22.598  0.00  0.00    +0.000 A 
ATOM     20  N   UNL     1      -3.747  12.289  23.012  0.00  0.00    +0.000 N 
ATOM     21  C   UNL     1      -4.414  13.466  23.218  0.00  0.00    +0.000 A 
ATOM     22  H   UNL     1      -4.121  11.360  23.137  0.00  0.00    +0.000 HD
ENDBRANCH   7  19
ENDBRANCH   1  10
BRANCH   5  23
ATOM     23  N   UNL     1       2.790   6.108  20.145  0.00  0.00    +0.000 N 
ATOM     24  C   UNL     1       2.170   4.864  20.086  0.00  0.00    +0.000 C 
ATOM     25  O   UNL     1       1.091   4.621  19.568  0.00  0.00    +0.000 OA
ATOM     26  H   UNL     1       3.732   6.165  20.502  0.00  0.00    +0.000 HD
BRANCH  24  27
ATOM     27  C   UNL     1       2.973   3.718  20.688  0.00  0.00    +0.000 C 
ATOM     28  C   UNL     1       2.075   2.577  21.139  0.00  0.00    +0.000 C 
BRANCH  27  29
ATOM     29  C   UNL     1       4.049   3.219  19.714  0.00  0.00    +0.000 C 
BRANCH  29  30
ATOM     30  N   UNL     1       4.434   4.202  18.701  0.00  0.00    +0.000 NA
ATOM     31  C   UNL     1       4.384   3.620  17.347  0.00  0.00    +0.000 C 
ATOM     32  C   UNL     1       4.791   4.641  16.258  0.00  0.00    +0.000 C 
ATOM     33  N   UNL     1       6.088   5.317  16.489  0.00  0.00    +0.000 NA
ATOM     34  C   UNL     1       7.211   4.418  16.239  0.00  0.00    +0.000 C 
ATOM     35  C   UNL     1       6.124   5.825  17.874  0.00  0.00    +0.000 C 
ATOM     36  C   UNL     1       5.775   4.768  18.938  0.00  0.00    +0.000 C 
ENDBRANCH  29  30
ENDBRANCH  27  29
ENDBRANCH  24  27
ENDBRANCH   5  23
TORSDOF 6
ENDMDL
MODEL 2
REMARK VINA RESULT:      -8.9      0.567      1.036
REMARK  Name = 
REMARK  9 active torsions:
REMARK  status: ('A' for Active; 'I' for Inactive)
REMARK    1  A    between atoms: C_1  and  C_2
REMARK    2  A    between atoms: C_8  and  C_9
REMARK    3  A    between atoms: C_12  and  C_13
REMARK    4  A    between atoms: C_17  and  N_18
REMARK    5  A    between atoms: C_19  and  C_21
REMARK    6  A    between atoms: C_21  and  C_22
REMARK    7  A    between atoms: C_21  and  C_23
REMARK    8  A    between atoms: C_23  and  N_24
REMARK    9  A    between atoms: N_27  and  C_28
REMARK                            x       y       z     vdW  Elec       q    Type
REMARK                         _______ _______ _______ _____ _____    ______ ____
ROOT
ATOM      1  C   UNL     1       0.788   9.458  20.164  0.00  0.00    +0.000 A 
ATOM      2  C   UNL     1       0.984   9.941  18.863  0.00  0.00    +0.000 A 
ATOM      3  C   UNL     1       1.747   9.205  17.962  0.00  0.00    +0.000 A 
ATOM      4  C   UNL     1       2.332   8.005  18.341  0.00  0.00    +0.000 A 
ATOM      5  C   UNL     1       2.170   7.510  19.635  0.00  0.00    +0.000 A 
ATOM      6  C   UNL     1       1.385   8.234  20.531  0.00  0.00    +0.000 A 
ENDROOT
BRANCH   1  10
ATOM      7  C   UNL     1      -1.647  11.601  22.355  0.00  0.00    +0.000 A 
ATOM      8  C   UNL     1      -1.106  10.646  23.186  0.00  0.00    +0.000 A 
ATOM      9  C   UNL     1      -0.167   9.821  22.513  0.00  0.00    +0.000 A 
ATOM     10  C   UNL     1      -0.015  10.155  21.177  0.00  0.00    +0.000 A 
ATOM     11  S   UNL     1      -1.018  11.475  20.764  0.00  0.00    +0.000 S 
BRANCH   7  19
ATOM     12  C   UNL     1      -6.908  12.675  23.904  0.00  0.00    +0.000 C 
ATOM     13  C   UNL     1      -5.880  13.745  23.700  0.00  0.00    +0.000 A 
ATOM     14  C   UNL     1      -6.193  15.104  23.883  0.00  0.00    +0.000 A 
ATOM     15  C   UNL     1      -5.249  16.113  23.671  0.00  0.00    +0.000 A 
ATOM     16  C   UNL     1      -3.944  15.807  23.268  0.00  0.00    +0.000 A 
ATOM     17  C   UNL     1      -3.595  14.461  23.099  0.00  0.00    +0.000 A 
ATOM     18  N   UNL     1      -2.392  13.901  22.732  0.00  0.00    +0.000 NA
ATOM     19  C   UNL     1      -2.606  12.601  22.707  0.00  0.00    +0.000 A 
ATOM     20  N   UNL     1      -3.897  12.312  23.057  0.00  0.00    +0.000 N 
ATOM     21  C   UNL     1      -4.561  13.481  23.314  0.00  0.00    +0.000 A 
ATOM     22  H   UNL     1      -4.283  11.381  23.107  0.00  0.00    +0.000 HD
ENDBRANCH   7  19
ENDBRANCH   1  10
BRANCH   5  23
ATOM     23  N   UNL     1       2.753   6.297  20.056  0.00  0.00    +0.000 N 
ATOM     24  C   UNL     1       2.225   5.038  19.787  0.00  0.00    +0.000 C 
ATOM     25  O   UNL     1       1.243   4.800  19.102  0.00  0.00    +0.000 OA
ATOM     26  H   UNL     1       3.633   6.361  20.545  0.00  0.00    +0.000 HD
BRANCH  24  27
ATOM     27  C   UNL     1       3.011   3.874  20.379  0.00  0.00    +0.000 C 
ATOM     28  C   UNL     1       2.278   3.237  21.549  0.00  0.00    +0.000 C 
BRANCH  27  29
ATOM     29  C   UNL     1       3.351   2.828  19.309  0.00  0.00    +0.000 C 
BRANCH  29  30
ATOM     30  N   UNL     1       4.443   3.224  18.419  0.00  0.00    +0.000 NA
ATOM     31  C   UNL     1       5.303   4.242  19.051  0.00  0.00    +0.000 C 
ATOM     32  C   UNL     1       6.463   4.680  18.125  0.00  0.00    +0.000 C 
ATOM     33  N   UNL     1       6.053   5.111  16.770  0.00  0.00    +0.000 NA
ATOM     34  C   UNL     1       5.416   6.425  16.796  0.00  0.00    +0.000 C 
ATOM     35  C   UNL     1       5.142   4.100  16.201  0.00  0.00    +0.000 C 
ATOM     36  C   UNL     1       3.962   3.732  17.120  0.00  0.00    +0.000 C 
ENDBRANCH  29  30
ENDBRANCH  27  29
ENDBRANCH  24  27
ENDBRANCH   5  23
TORSDOF 6
ENDMDL
MODEL 3
REMARK VINA RESULT:      -8.9      1.060      1.861
REMARK  Name = 
REMARK  9 active torsions:
REMARK  status: ('A' for Active; 'I' for Inactive)
REMARK    1  A    between atoms: C_1  and  C_2
REMARK    2  A    between atoms: C_8  and  C_9
REMARK    3  A    between atoms: C_12  and  C_13
REMARK    4  A    between atoms: C_17  and  N_18
REMARK    5  A    between atoms: C_19  and  C_21
REMARK    6  A    between atoms: C_21  and  C_22
REMARK    7  A    between atoms: C_21  and  C_23
REMARK    8  A    between atoms: C_23  and  N_24
REMARK    9  A    between atoms: N_27  and  C_28
REMARK                            x       y       z     vdW  Elec       q    Type
REMARK                         _______ _______ _______ _____ _____    ______ ____
ROOT
ATOM      1  C   UNL     1       0.890   9.305  20.148  0.00  0.00    +0.000 A 
ATOM      2  C   UNL     1       1.004   9.806  18.845  0.00  0.00    +0.000 A 
ATOM      3  C   UNL     1       1.710   9.086  17.887  0.00  0.00    +0.000 A 
ATOM      4  C   UNL     1       2.320   7.882  18.211  0.00  0.00    +0.000 A 
ATOM      5  C   UNL     1       2.240   7.368  19.506  0.00  0.00    +0.000 A 
ATOM      6  C   UNL     1       1.512   8.077  20.459  0.00  0.00    +0.000 A 
ENDROOT
BRANCH   1  10
ATOM      7  C   UNL     1      -1.283  11.521  22.532  0.00  0.00    +0.000 A 
ATOM      8  C   UNL     1      -0.976  10.375  23.231  0.00  0.00    +0.000 A 
ATOM      9  C   UNL     1      -0.150   9.497  22.481  0.00  0.00    +0.000 A 
ATOM     10  C   UNL     1       0.151   9.984  21.220  0.00  0.00    +0.000 A 
ATOM     11  S   UNL     1      -0.576  11.510  20.970  0.00  0.00    +0.000 S 
BRANCH   7  19
ATOM     12  C   UNL     1      -1.523  16.065  25.778  0.00  0.00    +0.000 C 
ATOM     13  C   UNL     1      -2.672  15.595  24.940  0.00  0.00    +0.000 A 
ATOM     14  C   UNL     1      -3.899  16.281  24.933  0.00  0.00    +0.000 A 
ATOM     15  C   UNL     1      -4.988  15.839  24.175  0.00  0.00    +0.000 A 
ATOM     16  C   UNL     1      -4.896  14.687  23.386  0.00  0.00    +0.000 A 
ATOM     17  C   UNL     1      -3.679  13.993  23.354  0.00  0.00    +0.000 A 
ATOM     18  N   UNL     1      -3.328  12.861  22.655  0.00  0.00    +0.000 NA
ATOM     19  C   UNL     1      -2.077  12.618  22.991  0.00  0.00    +0.000 A 
ATOM     20  N   UNL     1      -1.616  13.562  23.869  0.00  0.00    +0.000 N 
ATOM     21  C   UNL     1      -2.617  14.459  24.124  0.00  0.00    +0.000 A 
ATOM     22  H   UNL     1      -0.685  13.577  24.259  0.00  0.00    +0.000 HD
ENDBRANCH   7  19
ENDBRANCH   1  10
BRANCH   5  23
ATOM     23  N   UNL     1       2.850   6.151  19.872  0.00  0.00    +0.000 N 
ATOM     24  C   UNL     1       2.192   4.925  19.916  0.00  0.00    +0.000 C 
ATOM     25  O   UNL     1       1.036   4.716  19.584  0.00  0.00    +0.000 OA
ATOM     26  H   UNL     1       3.840   6.179  20.068  0.00  0.00    +0.000 HD
BRANCH  24  27
ATOM     27  C   UNL     1       3.050   3.754  20.378  0.00  0.00    +0.000 C 
ATOM     28  C   UNL     1       2.434   3.041  21.571  0.00  0.00    +0.000 C 
BRANCH  27  29
ATOM     29  C   UNL     1       3.320   2.772  19.230  0.00  0.00    +0.000 C 
BRANCH  29  30
ATOM     30  N   UNL     1       4.404   3.186  18.339  0.00  0.00    +0.000 NA
ATOM     31  C   UNL     1       5.315   4.131  19.011  0.00  0.00    +0.000 C 
ATOM     32  C   UNL     1       6.468   4.587  18.084  0.00  0.00    +0.000 C 
ATOM     33  N   UNL     1       6.041   5.117  16.771  0.00  0.00    +0.000 NA
ATOM     34  C   UNL     1       5.453   6.448  16.896  0.00  0.00    +0.000 C 
ATOM     35  C   UNL     1       5.081   4.176  16.163  0.00  0.00    +0.000 C 
ATOM     36  C   UNL     1       3.911   3.792  17.087  0.00  0.00    +0.000 C 
ENDBRANCH  29  30
ENDBRANCH  27  29
ENDBRANCH  24  27
ENDBRANCH   5  23
TORSDOF 6
ENDMDL
MODEL 4
REMARK VINA RESULT:      -8.9      0.926      1.012
REMARK  Name = 
REMARK  9 active torsions:
REMARK  status: ('A' for Active; 'I' for Inactive)
REMARK    1  A    between atoms: C_1  and  C_2
REMARK    2  A    between atoms: C_8  and  C_9
REMARK    3  A    between atoms: C_12  and  C_13
REMARK    4  A    between atoms: C_17  and  N_18
REMARK    5  A    between atoms: C_19  and  C_21
REMARK    6  A    between atoms: C_21  and  C_22
REMARK    7  A    between atoms: C_21  and  C_23
REMARK    8  A    between atoms: C_23  and  N_24
REMARK    9  A    between atoms: N_27  and  C_28
REMARK                            x       y       z     vdW  Elec       q    Type
REMARK                         _______ _______ _______ _____ _____    ______ ____
ROOT
ATOM      1  C   UNL     1       0.836   9.333  20.244  0.00  0.00    +0.000 A 
ATOM      2  C   UNL     1       1.048   9.755  18.924  0.00  0.00    +0.000 A 
ATOM      3  C   UNL     1       1.798   8.965  18.060  0.00  0.00    +0.000 A 
ATOM      4  C   UNL     1       2.357   7.770  18.492  0.00  0.00    +0.000 A 
ATOM      5  C   UNL     1       2.179   7.335  19.805  0.00  0.00    +0.000 A 
ATOM      6  C   UNL     1       1.407   8.113  20.666  0.00  0.00    +0.000 A 
ENDROOT
BRANCH   1  10
ATOM      7  C   UNL     1      -1.515  11.662  22.332  0.00  0.00    +0.000 A 
ATOM      8  C   UNL     1      -1.102  10.657  23.179  0.00  0.00    +0.000 A 
ATOM      9  C   UNL     1      -0.204   9.759  22.545  0.00  0.00    +0.000 A 
ATOM     10  C   UNL     1       0.045  10.089  21.223  0.00  0.00    +0.000 A 
ATOM     11  S   UNL     1      -0.818  11.493  20.775  0.00  0.00    +0.000 S 
BRANCH   7  19
ATOM     12  C   UNL     1      -5.694  14.929  20.569  0.00  0.00    +0.000 C 
ATOM     13  C   UNL     1      -5.065  15.062  21.921  0.00  0.00    +0.000 A 
ATOM     14  C   UNL     1      -5.495  16.041  22.834  0.00  0.00    +0.000 A 
ATOM     15  C   UNL     1      -4.899  16.193  24.090  0.00  0.00    +0.000 A 
ATOM     16  C   UNL     1      -3.844  15.366  24.492  0.00  0.00    +0.000 A 
ATOM     17  C   UNL     1      -3.407  14.365  23.613  0.00  0.00    +0.000 A 
ATOM     18  N   UNL     1      -2.416  13.424  23.772  0.00  0.00    +0.000 NA
ATOM     19  C   UNL     1      -2.402  12.739  22.647  0.00  0.00    +0.000 A 
ATOM     20  N   UNL     1      -3.356  13.202  21.782  0.00  0.00    +0.000 N 
ATOM     21  C   UNL     1      -4.020  14.245  22.369  0.00  0.00    +0.000 A 
ATOM     22  H   UNL     1      -3.527  12.826  20.861  0.00  0.00    +0.000 HD
ENDBRANCH   7  19
ENDBRANCH   1  10
BRANCH   5  23
ATOM     23  N   UNL     1       2.735   6.129  20.280  0.00  0.00    +0.000 N 
ATOM     24  C   UNL     1       2.068   4.908  20.290  0.00  0.00    +0.000 C 
ATOM     25  O   UNL     1       0.956   4.691  19.834  0.00  0.00    +0.000 OA
ATOM     26  H   UNL     1       3.695   6.161  20.589  0.00  0.00    +0.000 HD
BRANCH  24  27
ATOM     27  C   UNL     1       2.859   3.751  20.888  0.00  0.00    +0.000 C 
ATOM     28  C   UNL     1       1.945   2.638  21.378  0.00  0.00    +0.000 C 
BRANCH  27  29
ATOM     29  C   UNL     1       3.897   3.212  19.895  0.00  0.00    +0.000 C 
BRANCH  29  30
ATOM     30  N   UNL     1       4.273   4.169  18.853  0.00  0.00    +0.000 NA
ATOM     31  C   UNL     1       4.290   3.530  17.524  0.00  0.00    +0.000 C 
ATOM     32  C   UNL     1       4.690   4.523  16.406  0.00  0.00    +0.000 C 
ATOM     33  N   UNL     1       5.949   5.261  16.647  0.00  0.00    +0.000 NA
ATOM     34  C   UNL     1       7.116   4.402  16.469  0.00  0.00    +0.000 C 
ATOM     35  C   UNL     1       5.919   5.827  18.009  0.00  0.00    +0.000 C 
ATOM     36  C   UNL     1       5.581   4.801  19.107  0.00  0.00    +0.000 C 
ENDBRANCH  29  30
ENDBRANCH  27  29
ENDBRANCH  24  27
ENDBRANCH   5  23
TORSDOF 6
ENDMDL
MODEL 5
REMARK VINA RESULT:      -8.8      0.551      1.490
REMARK  Name = 
REMARK  9 active torsions:
REMARK  status: ('A' for Active; 'I' for Inactive)
REMARK    1  A    between atoms: C_1  and  C_2
REMARK    2  A    between atoms: C_8  and  C_9
REMARK    3  A    between atoms: C_12  and  C_13
REMARK    4  A    between atoms: C_17  and  N_18
REMARK    5  A    between atoms: C_19  and  C_21
REMARK    6  A    between atoms: C_21  and  C_22
REMARK    7  A    between atoms: C_21  and  C_23
REMARK    8  A    between atoms: C_23  and  N_24
REMARK    9  A    between atoms: N_27  and  C_28
REMARK                            x       y       z     vdW  Elec       q    Type
REMARK                         _______ _______ _______ _____ _____    ______ ____
ROOT
ATOM      1  C   UNL     1       0.825   9.230  20.419  0.00  0.00    +0.000 A 
ATOM      2  C   UNL     1       1.088   9.682  19.119  0.00  0.00    +0.000 A 
ATOM      3  C   UNL     1       1.857   8.905  18.260  0.00  0.00    +0.000 A 
ATOM      4  C   UNL     1       2.383   7.690  18.680  0.00  0.00    +0.000 A 
ATOM      5  C   UNL     1       2.153   7.224  19.974  0.00  0.00    +0.000 A 
ATOM      6  C   UNL     1       1.362   7.991  20.827  0.00  0.00    +0.000 A 
ENDROOT
BRANCH   1  10
ATOM      7  C   UNL     1      -1.614  11.492  22.480  0.00  0.00    +0.000 A 
ATOM      8  C   UNL     1      -1.132  10.538  23.349  0.00  0.00    +0.000 A 
ATOM      9  C   UNL     1      -0.198   9.671  22.726  0.00  0.00    +0.000 A 
ATOM     10  C   UNL     1       0.011   9.972  21.389  0.00  0.00    +0.000 A 
ATOM     11  S   UNL     1      -0.935  11.313  20.916  0.00  0.00    +0.000 S 
BRANCH   7  19
ATOM     12  C   UNL     1      -2.356  16.884  23.753  0.00  0.00    +0.000 C 
ATOM     13  C   UNL     1      -3.486  15.910  23.623  0.00  0.00    +0.000 A 
ATOM     14  C   UNL     1      -4.820  16.307  23.826  0.00  0.00    +0.000 A 
ATOM     15  C   UNL     1      -5.882  15.401  23.733  0.00  0.00    +0.000 A 
ATOM     16  C   UNL     1      -5.656  14.055  23.428  0.00  0.00    +0.000 A 
ATOM     17  C   UNL     1      -4.340  13.632  23.197  0.00  0.00    +0.000 A 
ATOM     18  N   UNL     1      -3.859  12.386  22.867  0.00  0.00    +0.000 NA
ATOM     19  C   UNL     1      -2.552  12.529  22.780  0.00  0.00    +0.000 A 
ATOM     20  N   UNL     1      -2.185  13.824  23.031  0.00  0.00    +0.000 N 
ATOM     21  C   UNL     1      -3.306  14.559  23.302  0.00  0.00    +0.000 A 
ATOM     22  H   UNL     1      -1.235  14.163  23.018  0.00  0.00    +0.000 HD
ENDBRANCH   7  19
ENDBRANCH   1  10
BRANCH   5  23
ATOM     23  N   UNL     1       2.674   5.998  20.436  0.00  0.00    +0.000 N 
ATOM     24  C   UNL     1       1.956   4.807  20.483  0.00  0.00    +0.000 C 
ATOM     25  O   UNL     1       0.818   4.636  20.074  0.00  0.00    +0.000 OA
ATOM     26  H   UNL     1       3.647   5.989  20.704  0.00  0.00    +0.000 HD
BRANCH  24  27
ATOM     27  C   UNL     1       2.719   3.620  21.057  0.00  0.00    +0.000 C 
ATOM     28  C   UNL     1       1.785   2.482  21.440  0.00  0.00    +0.000 C 
BRANCH  27  29
ATOM     29  C   UNL     1       3.808   3.135  20.090  0.00  0.00    +0.000 C 
BRANCH  29  30
ATOM     30  N   UNL     1       4.096   4.074  19.005  0.00  0.00    +0.000 NA
ATOM     31  C   UNL     1       3.844   3.459  17.688  0.00  0.00    +0.000 C 
ATOM     32  C   UNL     1       4.148   4.433  16.524  0.00  0.00    +0.000 C 
ATOM     33  N   UNL     1       5.490   5.054  16.562  0.00  0.00    +0.000 NA
ATOM     34  C   UNL     1       6.532   4.098  16.196  0.00  0.00    +0.000 C 
ATOM     35  C   UNL     1       5.730   5.595  17.914  0.00  0.00    +0.000 C 
ATOM     36  C   UNL     1       5.480   4.584  19.047  0.00  0.00    +0.000 C 
ENDBRANCH  29  30
ENDBRANCH  27  29
ENDBRANCH  24  27
ENDBRANCH   5  23
TORSDOF 6
ENDMDL
MODEL 6
REMARK VINA RESULT:      -8.7      1.338      2.199
REMARK  Name = 
REMARK  9 active torsions:
REMARK  status: ('A' for Active; 'I' for Inactive)
REMARK    1  A    between atoms: C_1  and  C_2
REMARK    2  A    between atoms: C_8  and  C_9
REMARK    3  A    between atoms: C_12  and  C_13
REMARK    4  A    between atoms: C_17  and  N_18
REMARK    5  A    between atoms: C_19  and  C_21
REMARK    6  A    between atoms: C_21  and  C_22
REMARK    7  A    between atoms: C_21  and  C_23
REMARK    8  A    between atoms: C_23  and  N_24
REMARK    9  A    between atoms: N_27  and  C_28
REMARK                            x       y       z     vdW  Elec       q    Type
REMARK                         _______ _______ _______ _____ _____    ______ ____
ROOT
ATOM      1  C   UNL     1       0.943   9.317  20.326  0.00  0.00    +0.000 A 
ATOM      2  C   UNL     1       1.068   9.725  18.991  0.00  0.00    +0.000 A 
ATOM      3  C   UNL     1       1.738   8.913  18.082  0.00  0.00    +0.000 A 
ATOM      4  C   UNL     1       2.300   7.709  18.484  0.00  0.00    +0.000 A 
ATOM      5  C   UNL     1       2.207   7.287  19.810  0.00  0.00    +0.000 A 
ATOM      6  C   UNL     1       1.515   8.088  20.716  0.00  0.00    +0.000 A 
ENDROOT
BRANCH   1  10
ATOM      7  C   UNL     1      -0.885  11.892  22.637  0.00  0.00    +0.000 A 
ATOM      8  C   UNL     1      -1.122  10.645  23.172  0.00  0.00    +0.000 A 
ATOM      9  C   UNL     1      -0.473   9.617  22.440  0.00  0.00    +0.000 A 
ATOM     10  C   UNL     1       0.240  10.097  21.353  0.00  0.00    +0.000 A 
ATOM     11  S   UNL     1       0.110  11.797  21.245  0.00  0.00    +0.000 S 
BRANCH   7  19
ATOM     12  C   UNL     1       0.119  17.352  23.288  0.00  0.00    +0.000 C 
ATOM     13  C   UNL     1      -1.133  16.687  23.770  0.00  0.00    +0.000 A 
ATOM     14  C   UNL     1      -2.139  17.413  24.431  0.00  0.00    +0.000 A 
ATOM     15  C   UNL     1      -3.301  16.799  24.908  0.00  0.00    +0.000 A 
ATOM     16  C   UNL     1      -3.511  15.426  24.741  0.00  0.00    +0.000 A 
ATOM     17  C   UNL     1      -2.538  14.677  24.065  0.00  0.00    +0.000 A 
ATOM     18  N   UNL     1      -2.513  13.336  23.758  0.00  0.00    +0.000 NA
ATOM     19  C   UNL     1      -1.369  13.143  23.132  0.00  0.00    +0.000 A 
ATOM     20  N   UNL     1      -0.671  14.315  23.019  0.00  0.00    +0.000 N 
ATOM     21  C   UNL     1      -1.391  15.320  23.607  0.00  0.00    +0.000 A 
ATOM     22  H   UNL     1       0.230  14.406  22.575  0.00  0.00    +0.000 HD
ENDBRANCH   7  19
ENDBRANCH   1  10
BRANCH   5  23
ATOM     23  N   UNL     1       2.769   6.072  20.254  0.00  0.00    +0.000 N 
ATOM     24  C   UNL     1       2.166   4.828  20.106  0.00  0.00    +0.000 C 
ATOM     25  O   UNL     1       1.120   4.600  19.519  0.00  0.00    +0.000 OA
ATOM     26  H   UNL     1       3.690   6.120  20.665  0.00  0.00    +0.000 HD
BRANCH  24  27
ATOM     27  C   UNL     1       2.946   3.662  20.701  0.00  0.00    +0.000 C 
ATOM     28  C   UNL     1       2.047   2.470  20.988  0.00  0.00    +0.000 C 
BRANCH  27  29
ATOM     29  C   UNL     1       4.121   3.259  19.800  0.00  0.00    +0.000 C 
BRANCH  29  30
ATOM     30  N   UNL     1       4.439   4.244  18.765  0.00  0.00    +0.000 NA
ATOM     31  C   UNL     1       4.412   3.634  17.422  0.00  0.00    +0.000 C 
ATOM     32  C   UNL     1       4.750   4.657  16.312  0.00  0.00    +0.000 C 
ATOM     33  N   UNL     1       6.007   5.411  16.517  0.00  0.00    +0.000 NA
ATOM     34  C   UNL     1       7.179   4.574  16.273  0.00  0.00    +0.000 C 
ATOM     35  C   UNL     1       6.025   5.947  17.892  0.00  0.00    +0.000 C 
ATOM     36  C   UNL     1       5.747   4.892  18.979  0.00  0.00    +0.000 C 
ENDBRANCH  29  30
ENDBRANCH  27  29
ENDBRANCH  24  27
ENDBRANCH   5  23
TORSDOF 6
ENDMDL
MODEL 7
REMARK VINA RESULT:      -8.4      2.604     11.916
REMARK  Name = 
REMARK  9 active torsions:
REMARK  status: ('A' for Active; 'I' for Inactive)
REMARK    1  A    between atoms: C_1  and  C_2
REMARK    2  A    between atoms: C_8  and  C_9
REMARK    3  A    between atoms: C_12  and  C_13
REMARK    4  A    between atoms: C_17  and  N_18
REMARK    5  A    between atoms: C_19  and  C_21
REMARK    6  A    between atoms: C_21  and  C_22
REMARK    7  A    between atoms: C_21  and  C_23
REMARK    8  A    between atoms: C_23  and  N_24
REMARK    9  A    between atoms: N_27  and  C_28
REMARK                            x       y       z     vdW  Elec       q    Type
REMARK                         _______ _______ _______ _____ _____    ______ ____
ROOT
ATOM      1  C   UNL     1       0.178  10.108  21.041  0.00  0.00    +0.000 A 
ATOM      2  C   UNL     1      -0.059   9.410  22.232  0.00  0.00    +0.000 A 
ATOM      3  C   UNL     1      -0.833   9.991  23.230  0.00  0.00    +0.000 A 
ATOM      4  C   UNL     1      -1.361  11.265  23.069  0.00  0.00    +0.000 A 
ATOM      5  C   UNL     1      -1.125  11.991  21.902  0.00  0.00    +0.000 A 
ATOM      6  C   UNL     1      -0.370  11.399  20.891  0.00  0.00    +0.000 A 
ENDROOT
BRANCH   1  10
ATOM      7  C   UNL     1       2.303   8.123  18.422  0.00  0.00    +0.000 A 
ATOM      8  C   UNL     1       1.832   9.245  17.777  0.00  0.00    +0.000 A 
ATOM      9  C   UNL     1       1.071  10.077  18.640  0.00  0.00    +0.000 A 
ATOM     10  C   UNL     1       0.966   9.570  19.925  0.00  0.00    +0.000 A 
ATOM     11  S   UNL     1       1.804   8.087  20.062  0.00  0.00    +0.000 S 
BRANCH   7  19
ATOM     12  C   UNL     1       3.002   2.626  17.693  0.00  0.00    +0.000 C 
ATOM     13  C   UNL     1       3.957   3.650  17.164  0.00  0.00    +0.000 A 
ATOM     14  C   UNL     1       5.108   3.275  16.448  0.00  0.00    +0.000 A 
ATOM     15  C   UNL     1       6.022   4.220  15.971  0.00  0.00    +0.000 A 
ATOM     16  C   UNL     1       5.822   5.588  16.185  0.00  0.00    +0.000 A 
ATOM     17  C   UNL     1       4.673   5.996  16.876  0.00  0.00    +0.000 A 
ATOM     18  N   UNL     1       4.240   7.262  17.197  0.00  0.00    +0.000 NA
ATOM     19  C   UNL     1       3.114   7.088  17.859  0.00  0.00    +0.000 A 
ATOM     20  N   UNL     1       2.808   5.757  17.961  0.00  0.00    +0.000 N 
ATOM     21  C   UNL     1       3.786   5.028  17.341  0.00  0.00    +0.000 A 
ATOM     22  H   UNL     1       1.991   5.390  18.425  0.00  0.00    +0.000 HD
ENDBRANCH   7  19
ENDBRANCH   1  10
BRANCH   5  23
ATOM     23  N   UNL     1      -1.642  13.288  21.705  0.00  0.00    +0.000 N 
ATOM     24  C   UNL     1      -1.296  14.397  22.472  0.00  0.00    +0.000 C 
ATOM     25  O   UNL     1      -0.459  14.424  23.361  0.00  0.00    +0.000 OA
ATOM     26  H   UNL     1      -2.269  13.415  20.924  0.00  0.00    +0.000 HD
BRANCH  24  27
ATOM     27  C   UNL     1      -2.014  15.686  22.095  0.00  0.00    +0.000 C 
ATOM     28  C   UNL     1      -2.020  15.909  20.591  0.00  0.00    +0.000 C 
BRANCH  27  29
ATOM     29  C   UNL     1      -3.441  15.716  22.661  0.00  0.00    +0.000 C 
BRANCH  29  30
ATOM     30  N   UNL     1      -4.044  14.392  22.816  0.00  0.00    +0.000 NA
ATOM     31  C   UNL     1      -5.267  14.265  22.001  0.00  0.00    +0.000 C 
ATOM     32  C   UNL     1      -5.925  12.873  22.153  0.00  0.00    +0.000 C 
ATOM     33  N   UNL     1      -6.182  12.452  23.548  0.00  0.00    +0.000 NA
ATOM     34  C   UNL     1      -7.305  13.182  24.130  0.00  0.00    +0.000 C 
ATOM     35  C   UNL     1      -4.956  12.658  24.344  0.00  0.00    +0.000 C 
ATOM     36  C   UNL     1      -4.360  14.073  24.221  0.00  0.00    +0.000 C 
ENDBRANCH  29  30
ENDBRANCH  27  29
ENDBRANCH  24  27
ENDBRANCH   5  23
TORSDOF 6
ENDMDL
MODEL 8
REMARK VINA RESULT:      -8.2      1.232      1.653
REMARK  Name = 
REMARK  9 active torsions:
REMARK  status: ('A' for Active; 'I' for Inactive)
REMARK    1  A    between atoms: C_1  and  C_2
REMARK    2  A    between atoms: C_8  and  C_9
REMARK    3  A    between atoms: C_12  and  C_13
REMARK    4  A    between atoms: C_17  and  N_18
REMARK    5  A    between atoms: C_19  and  C_21
REMARK    6  A    between atoms: C_21  and  C_22
REMARK    7  A    between atoms: C_21  and  C_23
REMARK    8  A    between atoms: C_23  and  N_24
REMARK    9  A    between atoms: N_27  and  C_28
REMARK                            x       y       z     vdW  Elec       q    Type
REMARK                         _______ _______ _______ _____ _____    ______ ____
ROOT
ATOM      1  C   UNL     1       1.039   9.748  19.948  0.00  0.00    +0.000 A 
ATOM      2  C   UNL     1       1.195  10.375  18.704  0.00  0.00    +0.000 A 
ATOM      3  C   UNL     1       1.848   9.710  17.673  0.00  0.00    +0.000 A 
ATOM      4  C   UNL     1       2.365   8.435  17.864  0.00  0.00    +0.000 A 
ATOM      5  C   UNL     1       2.241   7.795  19.097  0.00  0.00    +0.000 A 
ATOM      6  C   UNL     1       1.565   8.451  20.123  0.00  0.00    +0.000 A 
ENDROOT
BRANCH   1  10
ATOM      7  C   UNL     1      -0.870  11.907  22.596  0.00  0.00    +0.000 A 
ATOM      8  C   UNL     1      -0.868  10.613  23.070  0.00  0.00    +0.000 A 
ATOM      9  C   UNL     1      -0.164   9.731  22.209  0.00  0.00    +0.000 A 
ATOM     10  C   UNL     1       0.350  10.363  21.089  0.00  0.00    +0.000 A 
ATOM     11  S   UNL     1      -0.030  12.029  21.106  0.00  0.00    +0.000 S 
BRANCH   7  19
ATOM     12  C   UNL     1      -5.606  14.658  23.714  0.00  0.00    +0.000 C 
ATOM     13  C   UNL     1      -4.256  15.140  24.148  0.00  0.00    +0.000 A 
ATOM     14  C   UNL     1      -4.105  16.339  24.867  0.00  0.00    +0.000 A 
ATOM     15  C   UNL     1      -2.849  16.813  25.256  0.00  0.00    +0.000 A 
ATOM     16  C   UNL     1      -1.683  16.105  24.945  0.00  0.00    +0.000 A 
ATOM     17  C   UNL     1      -1.801  14.895  24.249  0.00  0.00    +0.000 A 
ATOM     18  N   UNL     1      -0.826  14.012  23.843  0.00  0.00    +0.000 NA
ATOM     19  C   UNL     1      -1.469  13.047  23.217  0.00  0.00    +0.000 A 
ATOM     20  N   UNL     1      -2.818  13.277  23.220  0.00  0.00    +0.000 N 
ATOM     21  C   UNL     1      -3.067  14.454  23.873  0.00  0.00    +0.000 A 
ATOM     22  H   UNL     1      -3.505  12.669  22.800  0.00  0.00    +0.000 HD
ENDBRANCH   7  19
ENDBRANCH   1  10
BRANCH   5  23
ATOM     23  N   UNL     1       2.757   6.503  19.328  0.00  0.00    +0.000 N 
ATOM     24  C   UNL     1       2.184   5.572  20.189  0.00  0.00    +0.000 C 
ATOM     25  O   UNL     1       1.137   5.706  20.802  0.00  0.00    +0.000 OA
ATOM     26  H   UNL     1       3.569   6.235  18.793  0.00  0.00    +0.000 HD
BRANCH  24  27
ATOM     27  C   UNL     1       2.943   4.256  20.306  0.00  0.00    +0.000 C 
ATOM     28  C   UNL     1       2.306   3.327  21.328  0.00  0.00    +0.000 C 
BRANCH  27  29
ATOM     29  C   UNL     1       3.073   3.564  18.942  0.00  0.00    +0.000 C 
BRANCH  29  30
ATOM     30  N   UNL     1       4.415   3.644  18.363  0.00  0.00    +0.000 NA
ATOM     31  C   UNL     1       5.270   4.571  19.127  0.00  0.00    +0.000 C 
ATOM     32  C   UNL     1       6.694   4.675  18.529  0.00  0.00    +0.000 C 
ATOM     33  N   UNL     1       6.744   4.988  17.084  0.00  0.00    +0.000 NA
ATOM     34  C   UNL     1       6.402   6.385  16.827  0.00  0.00    +0.000 C 
ATOM     35  C   UNL     1       5.825   4.084  16.366  0.00  0.00    +0.000 C 
ATOM     36  C   UNL     1       4.399   4.051  16.945  0.00  0.00    +0.000 C 
ENDBRANCH  29  30
ENDBRANCH  27  29
ENDBRANCH  24  27
ENDBRANCH   5  23
TORSDOF 6
ENDMDL
MODEL 9
REMARK VINA RESULT:      -7.9      3.318     10.986
REMARK  Name = 
REMARK  9 active torsions:
REMARK  status: ('A' for Active; 'I' for Inactive)
REMARK    1  A    between atoms: C_1  and  C_2
REMARK    2  A    between atoms: C_8  and  C_9
REMARK    3  A    between atoms: C_12  and  C_13
REMARK    4  A    between atoms: C_17  and  N_18
REMARK    5  A    between atoms: C_19  and  C_21
REMARK    6  A    between atoms: C_21  and  C_22
REMARK    7  A    between atoms: C_21  and  C_23
REMARK    8  A    between atoms: C_23  and  N_24
REMARK    9  A    between atoms: N_27  and  C_28
REMARK                            x       y       z     vdW  Elec       q    Type
REMARK                         _______ _______ _______ _____ _____    ______ ____
ROOT
ATOM      1  C   UNL     1       0.187  10.151  21.131  0.00  0.00    +0.000 A 
ATOM      2  C   UNL     1      -0.184   9.392  22.249  0.00  0.00    +0.000 A 
ATOM      3  C   UNL     1      -0.933   9.978  23.264  0.00  0.00    +0.000 A 
ATOM      4  C   UNL     1      -1.303  11.315  23.193  0.00  0.00    +0.000 A 
ATOM      5  C   UNL     1      -0.930  12.100  22.102  0.00  0.00    +0.000 A 
ATOM      6  C   UNL     1      -0.201  11.506  21.073  0.00  0.00    +0.000 A 
ENDROOT
BRANCH   1  10
ATOM      7  C   UNL     1       2.274   8.171  18.478  0.00  0.00    +0.000 A 
ATOM      8  C   UNL     1       1.801   9.299  17.845  0.00  0.00    +0.000 A 
ATOM      9  C   UNL     1       1.053  10.129  18.721  0.00  0.00    +0.000 A 
ATOM     10  C   UNL     1       0.961   9.616  20.004  0.00  0.00    +0.000 A 
ATOM     11  S   UNL     1       1.793   8.128  20.124  0.00  0.00    +0.000 S 
BRANCH   7  19
ATOM     12  C   UNL     1       2.967   2.672  17.755  0.00  0.00    +0.000 C 
ATOM     13  C   UNL     1       3.908   3.696  17.199  0.00  0.00    +0.000 A 
ATOM     14  C   UNL     1       5.042   3.321  16.458  0.00  0.00    +0.000 A 
ATOM     15  C   UNL     1       5.942   4.266  15.956  0.00  0.00    +0.000 A 
ATOM     16  C   UNL     1       5.744   5.634  16.170  0.00  0.00    +0.000 A 
ATOM     17  C   UNL     1       4.611   6.043  16.885  0.00  0.00    +0.000 A 
ATOM     18  N   UNL     1       4.183   7.309  17.212  0.00  0.00    +0.000 NA
ATOM     19  C   UNL     1       3.073   7.135  17.901  0.00  0.00    +0.000 A 
ATOM     20  N   UNL     1       2.773   5.805  18.014  0.00  0.00    +0.000 N 
ATOM     21  C   UNL     1       3.738   5.075  17.375  0.00  0.00    +0.000 A 
ATOM     22  H   UNL     1       1.968   5.437  18.499  0.00  0.00    +0.000 HD
ENDBRANCH   7  19
ENDBRANCH   1  10
BRANCH   5  23
ATOM     23  N   UNL     1      -1.285  13.460  21.998  0.00  0.00    +0.000 N 
ATOM     24  C   UNL     1      -2.357  13.937  21.249  0.00  0.00    +0.000 C 
ATOM     25  O   UNL     1      -3.172  13.258  20.645  0.00  0.00    +0.000 OA
ATOM     26  H   UNL     1      -0.743  14.115  22.543  0.00  0.00    +0.000 HD
BRANCH  24  27
ATOM     27  C   UNL     1      -2.520  15.452  21.258  0.00  0.00    +0.000 C 
ATOM     28  C   UNL     1      -2.293  16.035  22.644  0.00  0.00    +0.000 C 
BRANCH  27  29
ATOM     29  C   UNL     1      -1.602  16.119  20.224  0.00  0.00    +0.000 C 
BRANCH  29  30
ATOM     30  N   UNL     1      -0.270  15.519  20.141  0.00  0.00    +0.000 NA
ATOM     31  C   UNL     1       0.777  16.494  20.504  0.00  0.00    +0.000 C 
ATOM     32  C   UNL     1       2.196  15.883  20.419  0.00  0.00    +0.000 C 
ATOM     33  N   UNL     1       2.517  15.225  19.134  0.00  0.00    +0.000 NA
ATOM     34  C   UNL     1       2.743  16.204  18.074  0.00  0.00    +0.000 C 
ATOM     35  C   UNL     1       1.417  14.311  18.774  0.00  0.00    +0.000 C 
ATOM     36  C   UNL     1       0.023  14.965  18.806  0.00  0.00    +0.000 C 
ENDBRANCH  29  30
ENDBRANCH  27  29
ENDBRANCH  24  27
ENDBRANCH   5  23
TORSDOF 6
ENDMDL
