MODEL 1
REMARK VINA RESULT:      -8.6      0.000      0.000
REMARK  Name = 
REMARK  6 active torsions:
REMARK  status: ('A' for Active; 'I' for Inactive)
REMARK    1  A    between atoms: C_1  and  C_2
REMARK    2  A    between atoms: C_2  and  O_3
REMARK    3  A    between atoms: O_3  and  C_4
REMARK    4  A    between atoms: C_4  and  C_6
REMARK    5  A    between atoms: C_7  and  C_8
REMARK    6  A    between atoms: C_19  and  C_21
REMARK                            x       y       z     vdW  Elec       q    Type
REMARK                         _______ _______ _______ _____ _____    ______ ____
ROOT
ATOM      1  C   UNL     1       6.462   4.371  16.626  0.00  0.00    +0.000 C 
ATOM      2  C   UNL     1       6.249   5.384  15.467  0.00  0.00    +0.000 C 
ATOM      3  C   UNL     1       4.838   5.959  15.693  0.00  0.00    +0.000 C 
ATOM      4  N   UNL     1       4.681   5.762  17.127  0.00  0.00    +0.000 NA
ATOM      5  C   UNL     1       3.401   6.118  17.724  0.00  0.00    +0.000 C 
ATOM      6  C   UNL     1       3.194   5.586  19.170  0.00  0.00    +0.000 C 
ATOM      7  N   UNL     1       3.851   4.303  19.476  0.00  0.00    +0.000 N 
ATOM      8  C   UNL     1       3.461   3.386  20.441  0.00  0.00    +0.000 C 
ATOM      9  O   UNL     1       4.104   2.366  20.682  0.00  0.00    +0.000 OA
ATOM     10  C   UNL     1       5.204   4.180  18.918  0.00  0.00    +0.000 C 
ATOM     11  C   UNL     1       5.155   4.407  17.411  0.00  0.00    +0.000 C 
ENDROOT
BRANCH   2  12
ATOM     12  C   UNL     1       6.498   4.789  14.097  0.00  0.00    +0.000 A 
ATOM     13  C   UNL     1       7.530   5.246  13.266  0.00  0.00    +0.000 A 
ATOM     14  C   UNL     1       7.706   4.704  11.991  0.00  0.00    +0.000 A 
ATOM     15  C   UNL     1       6.856   3.699  11.533  0.00  0.00    +0.000 A 
ATOM     16  C   UNL     1       5.826   3.237  12.348  0.00  0.00    +0.000 A 
ATOM     17  C   UNL     1       5.647   3.779  13.621  0.00  0.00    +0.000 A 
ENDBRANCH   2  12
BRANCH   8  18
ATOM     18  C   UNL     1       2.237   3.674  21.251  0.00  0.00    +0.000 C 
ATOM     19  C   UNL     1       0.857   3.513  20.651  0.00  0.00    +0.000 C 
ATOM     20  C   UNL     1       1.346   2.518  21.661  0.00  0.00    +0.000 C 
ENDBRANCH   8  18
BRANCH   1  21
ATOM     21  C   UNL     1       7.667   4.778  17.444  0.00  0.00    +0.000 C 
ATOM     22  O   UNL     1       8.259   4.076  18.250  0.00  0.00    +0.000 OA
BRANCH  21  23
ATOM     23  O   UNL     1       7.957   6.086  17.194  0.00  0.00    +0.000 OA
BRANCH  23  25
ATOM     24  C   UNL     1       7.965   8.378  17.851  0.00  0.00    +0.000 C 
ATOM     25  C   UNL     1       7.887   6.943  18.342  0.00  0.00    +0.000 C 
ENDBRANCH  23  25
ENDBRANCH  21  23
ENDBRANCH   1  21
TORSDOF 5
ENDMDL
MODEL 2
REMARK VINA RESULT:      -6.5      2.047      4.991
REMARK  Name = 
REMARK  6 active torsions:
REMARK  status: ('A' for Active; 'I' for Inactive)
REMARK    1  A    between atoms: C_1  and  C_2
REMARK    2  A    between atoms: C_2  and  O_3
REMARK    3  A    between atoms: O_3  and  C_4
REMARK    4  A    between atoms: C_4  and  C_6
REMARK    5  A    between atoms: C_7  and  C_8
REMARK    6  A    between atoms: C_19  and  C_21
REMARK                            x       y       z     vdW  Elec       q    Type
REMARK                         _______ _______ _______ _____ _____    ______ ____
ROOT
ATOM      1  C   UNL     1       6.132   7.123  17.196  0.00  0.00    +0.000 C 
ATOM      2  C   UNL     1       7.591   7.124  17.730  0.00  0.00    +0.000 C 
ATOM      3  C   UNL     1       7.585   6.131  18.908  0.00  0.00    +0.000 C 
ATOM      4  N   UNL     1       6.464   5.275  18.549  0.00  0.00    +0.000 NA
ATOM      5  C   UNL     1       6.079   4.231  19.488  0.00  0.00    +0.000 C 
ATOM      6  C   UNL     1       4.697   3.580  19.199  0.00  0.00    +0.000 C 
ATOM      7  N   UNL     1       3.692   4.466  18.586  0.00  0.00    +0.000 N 
ATOM      8  C   UNL     1       2.314   4.335  18.673  0.00  0.00    +0.000 C 
ATOM      9  O   UNL     1       1.540   5.080  18.075  0.00  0.00    +0.000 OA
ATOM     10  C   UNL     1       4.234   5.349  17.544  0.00  0.00    +0.000 C 
ATOM     11  C   UNL     1       5.385   6.166  18.120  0.00  0.00    +0.000 C 
ENDROOT
BRANCH   2  12
ATOM     12  C   UNL     1       8.113   8.508  18.048  0.00  0.00    +0.000 A 
ATOM     13  C   UNL     1       9.005   8.740  19.105  0.00  0.00    +0.000 A 
ATOM     14  C   UNL     1       9.435  10.036  19.397  0.00  0.00    +0.000 A 
ATOM     15  C   UNL     1       8.984  11.113  18.637  0.00  0.00    +0.000 A 
ATOM     16  C   UNL     1       8.098  10.897  17.585  0.00  0.00    +0.000 A 
ATOM     17  C   UNL     1       7.664   9.603  17.293  0.00  0.00    +0.000 A 
ENDBRANCH   2  12
BRANCH   8  18
ATOM     18  C   UNL     1       1.750   3.216  19.490  0.00  0.00    +0.000 C 
ATOM     19  C   UNL     1       0.450   2.549  19.097  0.00  0.00    +0.000 C 
ATOM     20  C   UNL     1       1.745   1.818  18.904  0.00  0.00    +0.000 C 
ENDBRANCH   8  18
BRANCH   1  21
ATOM     21  C   UNL     1       6.119   6.693  15.746  0.00  0.00    +0.000 C 
ATOM     22  O   UNL     1       5.249   6.950  14.927  0.00  0.00    +0.000 OA
BRANCH  21  23
ATOM     23  O   UNL     1       7.206   5.909  15.502  0.00  0.00    +0.000 OA
BRANCH  23  25
ATOM     24  C   UNL     1       6.279   3.729  15.225  0.00  0.00    +0.000 C 
ATOM     25  C   UNL     1       6.992   4.876  14.531  0.00  0.00    +0.000 C 
ENDBRANCH  23  25
ENDBRANCH  21  23
ENDBRANCH   1  21
TORSDOF 5
ENDMDL
MODEL 3
REMARK VINA RESULT:      -6.5      1.917      4.790
REMARK  Name = 
REMARK  6 active torsions:
REMARK  status: ('A' for Active; 'I' for Inactive)
REMARK    1  A    between atoms: C_1  and  C_2
REMARK    2  A    between atoms: C_2  and  O_3
REMARK    3  A    between atoms: O_3  and  C_4
REMARK    4  A    between atoms: C_4  and  C_6
REMARK    5  A    between atoms: C_7  and  C_8
REMARK    6  A    between atoms: C_19  and  C_21
REMARK                            x       y       z     vdW  Elec       q    Type
REMARK                         _______ _______ _______ _____ _____    ______ ____
ROOT
ATOM      1  C   UNL     1       6.465   5.963  17.095  0.00  0.00    +0.000 C 
ATOM      2  C   UNL     1       7.579   6.294  18.126  0.00  0.00    +0.000 C 
ATOM      3  C   UNL     1       7.096   5.673  19.449  0.00  0.00    +0.000 C 
ATOM      4  N   UNL     1       6.222   4.616  18.962  0.00  0.00    +0.000 NA
ATOM      5  C   UNL     1       5.491   3.831  19.946  0.00  0.00    +0.000 C 
ATOM      6  C   UNL     1       4.350   2.957  19.356  0.00  0.00    +0.000 C 
ATOM      7  N   UNL     1       3.680   3.505  18.165  0.00  0.00    +0.000 N 
ATOM      8  C   UNL     1       2.386   3.230  17.745  0.00  0.00    +0.000 C 
ATOM      9  O   UNL     1       1.921   3.677  16.699  0.00  0.00    +0.000 OA
ATOM     10  C   UNL     1       4.596   4.128  17.200  0.00  0.00    +0.000 C 
ATOM     11  C   UNL     1       5.410   5.211  17.900  0.00  0.00    +0.000 C 
ENDROOT
BRANCH   2  12
ATOM     12  C   UNL     1       7.922   7.767  18.186  0.00  0.00    +0.000 A 
ATOM     13  C   UNL     1       7.378   8.693  17.285  0.00  0.00    +0.000 A 
ATOM     14  C   UNL     1       7.748  10.039  17.342  0.00  0.00    +0.000 A 
ATOM     15  C   UNL     1       8.661  10.475  18.299  0.00  0.00    +0.000 A 
ATOM     16  C   UNL     1       9.210   9.566  19.199  0.00  0.00    +0.000 A 
ATOM     17  C   UNL     1       8.845   8.220  19.142  0.00  0.00    +0.000 A 
ENDBRANCH   2  12
BRANCH   8  18
ATOM     18  C   UNL     1       1.542   2.317  18.577  0.00  0.00    +0.000 C 
ATOM     19  C   UNL     1       1.593   2.380  20.088  0.00  0.00    +0.000 C 
ATOM     20  C   UNL     1       0.389   2.908  19.366  0.00  0.00    +0.000 C 
ENDBRANCH   8  18
BRANCH   1  21
ATOM     21  C   UNL     1       7.047   5.151  15.958  0.00  0.00    +0.000 C 
ATOM     22  O   UNL     1       7.936   4.318  16.051  0.00  0.00    +0.000 OA
BRANCH  21  23
ATOM     23  O   UNL     1       6.468   5.542  14.788  0.00  0.00    +0.000 OA
BRANCH  23  25
ATOM     24  C   UNL     1       5.779   3.789  13.326  0.00  0.00    +0.000 C 
ATOM     25  C   UNL     1       6.878   4.789  13.639  0.00  0.00    +0.000 C 
ENDBRANCH  23  25
ENDBRANCH  21  23
ENDBRANCH   1  21
TORSDOF 5
ENDMDL
MODEL 4
REMARK VINA RESULT:      -6.4      8.496     10.236
REMARK  Name = 
REMARK  6 active torsions:
REMARK  status: ('A' for Active; 'I' for Inactive)
REMARK    1  A    between atoms: C_1  and  C_2
REMARK    2  A    between atoms: C_2  and  O_3
REMARK    3  A    between atoms: O_3  and  C_4
REMARK    4  A    between atoms: C_4  and  C_6
REMARK    5  A    between atoms: C_7  and  C_8
REMARK    6  A    between atoms: C_19  and  C_21
REMARK                            x       y       z     vdW  Elec       q    Type
REMARK                         _______ _______ _______ _____ _____    ______ ____
ROOT
ATOM      1  C   UNL     1       0.439  11.191  20.331  0.00  0.00    +0.000 C 
ATOM      2  C   UNL     1       0.616  10.592  18.909  0.00  0.00    +0.000 C 
ATOM      3  C   UNL     1      -0.809  10.501  18.333  0.00  0.00    +0.000 C 
ATOM      4  N   UNL     1      -1.488  11.538  19.096  0.00  0.00    +0.000 NA
ATOM      5  C   UNL     1      -2.919  11.708  18.889  0.00  0.00    +0.000 C 
ATOM      6  C   UNL     1      -3.625  12.592  19.954  0.00  0.00    +0.000 C 
ATOM      7  N   UNL     1      -3.051  12.538  21.309  0.00  0.00    +0.000 N 
ATOM      8  C   UNL     1      -3.716  12.795  22.499  0.00  0.00    +0.000 C 
ATOM      9  O   UNL     1      -3.147  12.794  23.588  0.00  0.00    +0.000 OA
ATOM     10  C   UNL     1      -1.582  12.528  21.332  0.00  0.00    +0.000 C 
ATOM     11  C   UNL     1      -1.068  11.367  20.488  0.00  0.00    +0.000 C 
ENDROOT
BRANCH   2  12
ATOM     12  C   UNL     1       1.407   9.302  18.895  0.00  0.00    +0.000 A 
ATOM     13  C   UNL     1       2.122   8.881  17.765  0.00  0.00    +0.000 A 
ATOM     14  C   UNL     1       2.808   7.665  17.773  0.00  0.00    +0.000 A 
ATOM     15  C   UNL     1       2.790   6.857  18.907  0.00  0.00    +0.000 A 
ATOM     16  C   UNL     1       2.084   7.261  20.036  0.00  0.00    +0.000 A 
ATOM     17  C   UNL     1       1.395   8.476  20.030  0.00  0.00    +0.000 A 
ENDBRANCH   2  12
BRANCH   8  18
ATOM     18  C   UNL     1      -5.173  13.130  22.447  0.00  0.00    +0.000 C 
ATOM     19  C   UNL     1      -5.893  13.642  23.676  0.00  0.00    +0.000 C 
ATOM     20  C   UNL     1      -5.590  14.584  22.549  0.00  0.00    +0.000 C 
ENDBRANCH   8  18
BRANCH   1  21
ATOM     21  C   UNL     1       1.211  12.487  20.440  0.00  0.00    +0.000 C 
ATOM     22  O   UNL     1       1.608  13.003  21.474  0.00  0.00    +0.000 OA
BRANCH  21  23
ATOM     23  O   UNL     1       1.341  13.035  19.199  0.00  0.00    +0.000 OA
BRANCH  23  25
ATOM     24  C   UNL     1      -0.143  14.870  18.856  0.00  0.00    +0.000 C 
ATOM     25  C   UNL     1       1.287  14.468  19.170  0.00  0.00    +0.000 C 
ENDBRANCH  23  25
ENDBRANCH  21  23
ENDBRANCH   1  21
TORSDOF 5
ENDMDL
MODEL 5
REMARK VINA RESULT:      -6.3      8.102     11.360
REMARK  Name = 
REMARK  6 active torsions:
REMARK  status: ('A' for Active; 'I' for Inactive)
REMARK    1  A    between atoms: C_1  and  C_2
REMARK    2  A    between atoms: C_2  and  O_3
REMARK    3  A    between atoms: O_3  and  C_4
REMARK    4  A    between atoms: C_4  and  C_6
REMARK    5  A    between atoms: C_7  and  C_8
REMARK    6  A    between atoms: C_19  and  C_21
REMARK                            x       y       z     vdW  Elec       q    Type
REMARK                         _______ _______ _______ _____ _____    ______ ____
ROOT
ATOM      1  C   UNL     1      -0.913  12.025  21.088  0.00  0.00    +0.000 C 
ATOM      2  C   UNL     1      -1.465  12.073  22.539  0.00  0.00    +0.000 C 
ATOM      3  C   UNL     1      -1.107  10.704  23.148  0.00  0.00    +0.000 C 
ATOM      4  N   UNL     1       0.044  10.328  22.339  0.00  0.00    +0.000 NA
ATOM      5  C   UNL     1       0.633   9.016  22.564  0.00  0.00    +0.000 C 
ATOM      6  C   UNL     1       1.631   8.559  21.464  0.00  0.00    +0.000 C 
ATOM      7  N   UNL     1       1.343   9.044  20.103  0.00  0.00    +0.000 N 
ATOM      8  C   UNL     1       1.723   8.438  18.913  0.00  0.00    +0.000 C 
ATOM      9  O   UNL     1       1.501   8.943  17.815  0.00  0.00    +0.000 OA
ATOM     10  C   UNL     1       0.904  10.445  20.051  0.00  0.00    +0.000 C 
ATOM     11  C   UNL     1      -0.312  10.629  20.951  0.00  0.00    +0.000 C 
ENDROOT
BRANCH   2  12
ATOM     12  C   UNL     1      -2.927  12.455  22.613  0.00  0.00    +0.000 A 
ATOM     13  C   UNL     1      -3.648  12.852  21.478  0.00  0.00    +0.000 A 
ATOM     14  C   UNL     1      -4.986  13.239  21.588  0.00  0.00    +0.000 A 
ATOM     15  C   UNL     1      -5.619  13.230  22.829  0.00  0.00    +0.000 A 
ATOM     16  C   UNL     1      -4.914  12.838  23.964  0.00  0.00    +0.000 A 
ATOM     17  C   UNL     1      -3.576  12.455  23.857  0.00  0.00    +0.000 A 
ENDBRANCH   2  12
BRANCH   8  18
ATOM     18  C   UNL     1       2.471   7.144  18.975  0.00  0.00    +0.000 C 
ATOM     19  C   UNL     1       2.247   6.071  17.931  0.00  0.00    +0.000 C 
ATOM     20  C   UNL     1       3.523   6.860  17.921  0.00  0.00    +0.000 C 
ENDBRANCH   8  18
BRANCH   1  21
ATOM     21  C   UNL     1       0.095  13.136  20.888  0.00  0.00    +0.000 C 
ATOM     22  O   UNL     1       0.925  13.508  21.704  0.00  0.00    +0.000 OA
BRANCH  21  23
ATOM     23  O   UNL     1      -0.107  13.710  19.670  0.00  0.00    +0.000 OA
BRANCH  23  25
ATOM     24  C   UNL     1       1.812  13.585  18.261  0.00  0.00    +0.000 C 
ATOM     25  C   UNL     1       0.999  14.479  19.180  0.00  0.00    +0.000 C 
ENDBRANCH  23  25
ENDBRANCH  21  23
ENDBRANCH   1  21
TORSDOF 5
ENDMDL
MODEL 6
REMARK VINA RESULT:      -6.3      8.306     10.030
REMARK  Name = 
REMARK  6 active torsions:
REMARK  status: ('A' for Active; 'I' for Inactive)
REMARK    1  A    between atoms: C_1  and  C_2
REMARK    2  A    between atoms: C_2  and  O_3
REMARK    3  A    between atoms: O_3  and  C_4
REMARK    4  A    between atoms: C_4  and  C_6
REMARK    5  A    between atoms: C_7  and  C_8
REMARK    6  A    between atoms: C_19  and  C_21
REMARK                            x       y       z     vdW  Elec       q    Type
REMARK                         _______ _______ _______ _____ _____    ______ ____
ROOT
ATOM      1  C   UNL     1       0.547  11.043  20.325  0.00  0.00    +0.000 C 
ATOM      2  C   UNL     1       0.717  10.439  18.904  0.00  0.00    +0.000 C 
ATOM      3  C   UNL     1      -0.706  10.396  18.316  0.00  0.00    +0.000 C 
ATOM      4  N   UNL     1      -1.356  11.456  19.073  0.00  0.00    +0.000 NA
ATOM      5  C   UNL     1      -2.779  11.673  18.853  0.00  0.00    +0.000 C 
ATOM      6  C   UNL     1      -3.464  12.581  19.912  0.00  0.00    +0.000 C 
ATOM      7  N   UNL     1      -2.904  12.507  21.272  0.00  0.00    +0.000 N 
ATOM      8  C   UNL     1      -3.571  12.786  22.457  0.00  0.00    +0.000 C 
ATOM      9  O   UNL     1      -3.012  12.766  23.551  0.00  0.00    +0.000 OA
ATOM     10  C   UNL     1      -1.436  12.448  21.308  0.00  0.00    +0.000 C 
ATOM     11  C   UNL     1      -0.955  11.270  20.469  0.00  0.00    +0.000 C 
ENDROOT
BRANCH   2  12
ATOM     12  C   UNL     1       1.464   9.123  18.897  0.00  0.00    +0.000 A 
ATOM     13  C   UNL     1       1.485   8.275  20.013  0.00  0.00    +0.000 A 
ATOM     14  C   UNL     1       2.219   7.087  19.987  0.00  0.00    +0.000 A 
ATOM     15  C   UNL     1       2.936   6.731  18.848  0.00  0.00    +0.000 A 
ATOM     16  C   UNL     1       2.925   7.564  17.732  0.00  0.00    +0.000 A 
ATOM     17  C   UNL     1       2.195   8.753  17.757  0.00  0.00    +0.000 A 
ENDBRANCH   2  12
BRANCH   8  18
ATOM     18  C   UNL     1      -5.015  13.170  22.392  0.00  0.00    +0.000 C 
ATOM     19  C   UNL     1      -5.752  13.620  23.634  0.00  0.00    +0.000 C 
ATOM     20  C   UNL     1      -5.391  14.626  22.583  0.00  0.00    +0.000 C 
ENDBRANCH   8  18
BRANCH   1  21
ATOM     21  C   UNL     1       1.361  12.313  20.441  0.00  0.00    +0.000 C 
ATOM     22  O   UNL     1       1.620  12.909  21.476  0.00  0.00    +0.000 OA
BRANCH  21  23
ATOM     23  O   UNL     1       1.712  12.735  19.194  0.00  0.00    +0.000 OA
BRANCH  23  25
ATOM     24  C   UNL     1       2.737  14.659  18.228  0.00  0.00    +0.000 C 
ATOM     25  C   UNL     1       1.513  14.135  18.959  0.00  0.00    +0.000 C 
ENDBRANCH  23  25
ENDBRANCH  21  23
ENDBRANCH   1  21
TORSDOF 5
ENDMDL
MODEL 7
REMARK VINA RESULT:      -6.2      8.272     11.496
REMARK  Name = 
REMARK  6 active torsions:
REMARK  status: ('A' for Active; 'I' for Inactive)
REMARK    1  A    between atoms: C_1  and  C_2
REMARK    2  A    between atoms: C_2  and  O_3
REMARK    3  A    between atoms: O_3  and  C_4
REMARK    4  A    between atoms: C_4  and  C_6
REMARK    5  A    between atoms: C_7  and  C_8
REMARK    6  A    between atoms: C_19  and  C_21
REMARK                            x       y       z     vdW  Elec       q    Type
REMARK                         _______ _______ _______ _____ _____    ______ ____
ROOT
ATOM      1  C   UNL     1      -0.895  12.063  21.036  0.00  0.00    +0.000 C 
ATOM      2  C   UNL     1      -1.442  12.128  22.489  0.00  0.00    +0.000 C 
ATOM      3  C   UNL     1      -1.088  10.764  23.110  0.00  0.00    +0.000 C 
ATOM      4  N   UNL     1       0.058  10.375  22.301  0.00  0.00    +0.000 NA
ATOM      5  C   UNL     1       0.642   9.062  22.539  0.00  0.00    +0.000 C 
ATOM      6  C   UNL     1       1.634   8.589  21.440  0.00  0.00    +0.000 C 
ATOM      7  N   UNL     1       1.345   9.062  20.075  0.00  0.00    +0.000 N 
ATOM      8  C   UNL     1       1.717   8.442  18.890  0.00  0.00    +0.000 C 
ATOM      9  O   UNL     1       1.495   8.937  17.788  0.00  0.00    +0.000 OA
ATOM     10  C   UNL     1       0.912  10.464  20.010  0.00  0.00    +0.000 C 
ATOM     11  C   UNL     1      -0.301  10.663  20.912  0.00  0.00    +0.000 C 
ENDROOT
BRANCH   2  12
ATOM     12  C   UNL     1      -2.902  12.518  22.563  0.00  0.00    +0.000 A 
ATOM     13  C   UNL     1      -3.599  12.558  23.778  0.00  0.00    +0.000 A 
ATOM     14  C   UNL     1      -4.957  12.882  23.807  0.00  0.00    +0.000 A 
ATOM     15  C   UNL     1      -5.634  13.172  22.624  0.00  0.00    +0.000 A 
ATOM     16  C   UNL     1      -4.954  13.136  21.410  0.00  0.00    +0.000 A 
ATOM     17  C   UNL     1      -3.597  12.809  21.379  0.00  0.00    +0.000 A 
ENDBRANCH   2  12
BRANCH   8  18
ATOM     18  C   UNL     1       2.459   7.146  18.963  0.00  0.00    +0.000 C 
ATOM     19  C   UNL     1       2.244   6.072  17.918  0.00  0.00    +0.000 C 
ATOM     20  C   UNL     1       3.523   6.856  17.922  0.00  0.00    +0.000 C 
ENDBRANCH   8  18
BRANCH   1  21
ATOM     21  C   UNL     1       0.118  13.167  20.822  0.00  0.00    +0.000 C 
ATOM     22  O   UNL     1       0.953  13.543  21.631  0.00  0.00    +0.000 OA
BRANCH  21  23
ATOM     23  O   UNL     1      -0.088  13.732  19.600  0.00  0.00    +0.000 OA
BRANCH  23  25
ATOM     24  C   UNL     1       0.280  16.030  19.082  0.00  0.00    +0.000 C 
ATOM     25  C   UNL     1      -0.712  15.022  19.635  0.00  0.00    +0.000 C 
ENDBRANCH  23  25
ENDBRANCH  21  23
ENDBRANCH   1  21
TORSDOF 5
ENDMDL
MODEL 8
REMARK VINA RESULT:      -6.1      8.387     11.626
REMARK  Name = 
REMARK  6 active torsions:
REMARK  status: ('A' for Active; 'I' for Inactive)
REMARK    1  A    between atoms: C_1  and  C_2
REMARK    2  A    between atoms: C_2  and  O_3
REMARK    3  A    between atoms: O_3  and  C_4
REMARK    4  A    between atoms: C_4  and  C_6
REMARK    5  A    between atoms: C_7  and  C_8
REMARK    6  A    between atoms: C_19  and  C_21
REMARK                            x       y       z     vdW  Elec       q    Type
REMARK                         _______ _______ _______ _____ _____    ______ ____
ROOT
ATOM      1  C   UNL     1      -1.060  12.058  21.055  0.00  0.00    +0.000 C 
ATOM      2  C   UNL     1      -1.559  12.138  22.524  0.00  0.00    +0.000 C 
ATOM      3  C   UNL     1      -1.116  10.812  23.169  0.00  0.00    +0.000 C 
ATOM      4  N   UNL     1       0.020  10.456  22.331  0.00  0.00    +0.000 NA
ATOM      5  C   UNL     1       0.677   9.182  22.582  0.00  0.00    +0.000 C 
ATOM      6  C   UNL     1       1.653   8.726  21.462  0.00  0.00    +0.000 C 
ATOM      7  N   UNL     1       1.293   9.144  20.096  0.00  0.00    +0.000 N 
ATOM      8  C   UNL     1       1.655   8.510  18.916  0.00  0.00    +0.000 C 
ATOM      9  O   UNL     1       1.370   8.960  17.809  0.00  0.00    +0.000 OA
ATOM     10  C   UNL     1       0.788  10.521  20.009  0.00  0.00    +0.000 C 
ATOM     11  C   UNL     1      -0.401  10.686  20.948  0.00  0.00    +0.000 C 
ENDROOT
BRANCH   2  12
ATOM     12  C   UNL     1      -3.034  12.457  22.640  0.00  0.00    +0.000 A 
ATOM     13  C   UNL     1      -3.818  12.764  21.518  0.00  0.00    +0.000 A 
ATOM     14  C   UNL     1      -5.166  13.095  21.665  0.00  0.00    +0.000 A 
ATOM     15  C   UNL     1      -5.748  13.120  22.930  0.00  0.00    +0.000 A 
ATOM     16  C   UNL     1      -4.982  12.818  24.053  0.00  0.00    +0.000 A 
ATOM     17  C   UNL     1      -3.633  12.490  23.909  0.00  0.00    +0.000 A 
ENDBRANCH   2  12
BRANCH   8  18
ATOM     18  C   UNL     1       2.464   7.254  18.997  0.00  0.00    +0.000 C 
ATOM     19  C   UNL     1       2.252   6.132  18.005  0.00  0.00    +0.000 C 
ATOM     20  C   UNL     1       3.488   6.976  17.915  0.00  0.00    +0.000 C 
ENDBRANCH   8  18
BRANCH   1  21
ATOM     21  C   UNL     1      -0.113  13.204  20.774  0.00  0.00    +0.000 C 
ATOM     22  O   UNL     1       0.104  13.706  19.682  0.00  0.00    +0.000 OA
BRANCH  21  23
ATOM     23  O   UNL     1       0.521  13.552  21.929  0.00  0.00    +0.000 OA
BRANCH  23  25
ATOM     24  C   UNL     1      -0.224  15.594  22.910  0.00  0.00    +0.000 C 
ATOM     25  C   UNL     1       0.838  14.947  22.039  0.00  0.00    +0.000 C 
ENDBRANCH  23  25
ENDBRANCH  21  23
ENDBRANCH   1  21
TORSDOF 5
ENDMDL
MODEL 9
REMARK VINA RESULT:      -6.1      9.151     11.029
REMARK  Name = 
REMARK  6 active torsions:
REMARK  status: ('A' for Active; 'I' for Inactive)
REMARK    1  A    between atoms: C_1  and  C_2
REMARK    2  A    between atoms: C_2  and  O_3
REMARK    3  A    between atoms: O_3  and  C_4
REMARK    4  A    between atoms: C_4  and  C_6
REMARK    5  A    between atoms: C_7  and  C_8
REMARK    6  A    between atoms: C_19  and  C_21
REMARK                            x       y       z     vdW  Elec       q    Type
REMARK                         _______ _______ _______ _____ _____    ______ ____
ROOT
ATOM      1  C   UNL     1      -0.807  11.517  19.877  0.00  0.00    +0.000 C 
ATOM      2  C   UNL     1      -0.298  10.881  18.554  0.00  0.00    +0.000 C 
ATOM      3  C   UNL     1      -1.572  10.507  17.775  0.00  0.00    +0.000 C 
ATOM      4  N   UNL     1      -2.531  11.449  18.333  0.00  0.00    +0.000 NA
ATOM      5  C   UNL     1      -3.915  11.351  17.893  0.00  0.00    +0.000 C 
ATOM      6  C   UNL     1      -4.926  12.155  18.757  0.00  0.00    +0.000 C 
ATOM      7  N   UNL     1      -4.585  12.279  20.184  0.00  0.00    +0.000 N 
ATOM      8  C   UNL     1      -5.473  12.480  21.232  0.00  0.00    +0.000 C 
ATOM      9  O   UNL     1      -5.102  12.641  22.392  0.00  0.00    +0.000 OA
ATOM     10  C   UNL     1      -3.159  12.530  20.436  0.00  0.00    +0.000 C 
ATOM     11  C   UNL     1      -2.327  11.433  19.783  0.00  0.00    +0.000 C 
ENDROOT
BRANCH   2  12
ATOM     12  C   UNL     1       0.687   9.752  18.772  0.00  0.00    +0.000 A 
ATOM     13  C   UNL     1       1.492   9.259  17.736  0.00  0.00    +0.000 A 
ATOM     14  C   UNL     1       2.361   8.189  17.961  0.00  0.00    +0.000 A 
ATOM     15  C   UNL     1       2.436   7.601  19.221  0.00  0.00    +0.000 A 
ATOM     16  C   UNL     1       1.642   8.079  20.260  0.00  0.00    +0.000 A 
ATOM     17  C   UNL     1       0.771   9.147  20.036  0.00  0.00    +0.000 A 
ENDBRANCH   2  12
BRANCH   8  18
ATOM     18  C   UNL     1      -6.936  12.549  20.926  0.00  0.00    +0.000 C 
ATOM     19  C   UNL     1      -7.916  13.081  21.950  0.00  0.00    +0.000 C 
ATOM     20  C   UNL     1      -7.579  13.910  20.746  0.00  0.00    +0.000 C 
ENDBRANCH   8  18
BRANCH   1  21
ATOM     21  C   UNL     1      -0.289  12.934  19.994  0.00  0.00    +0.000 C 
ATOM     22  O   UNL     1      -0.377  13.804  19.141  0.00  0.00    +0.000 OA
BRANCH  21  23
ATOM     23  O   UNL     1       0.358  13.076  21.185  0.00  0.00    +0.000 OA
BRANCH  23  25
ATOM     24  C   UNL     1      -0.936  14.056  22.932  0.00  0.00    +0.000 C 
ATOM     25  C   UNL     1       0.104  14.317  21.858  0.00  0.00    +0.000 C 
ENDBRANCH  23  25
ENDBRANCH  21  23
ENDBRANCH   1  21
TORSDOF 5
ENDMDL
