MODEL 1
REMARK VINA RESULT:      -7.1      0.000      0.000
REMARK  Name = 
REMARK  5 active torsions:
REMARK  status: ('A' for Active; 'I' for Inactive)
REMARK    1  A    between atoms: C_1  and  O_2
REMARK    2  A    between atoms: O_2  and  C_3
REMARK    3  A    between atoms: C_3  and  C_4
REMARK    4  A    between atoms: C_12  and  C_13
REMARK    5  A    between atoms: C_18  and  C_19
REMARK                            x       y       z     vdW  Elec       q    Type
REMARK                         _______ _______ _______ _____ _____    ______ ____
ROOT
ATOM      1  C   UNL     1       0.596  11.865  20.822  0.00  0.00    +0.000 C 
ATOM      2  O   UNL     1       0.374  12.277  21.963  0.00  0.00    +0.000 OA
ATOM      3  N   UNL     1       0.984  10.559  20.564  0.00  0.00    +0.000 N 
ATOM      4  C   UNL     1       1.015   9.600  21.670  0.00  0.00    +0.000 C 
ATOM      5  C   UNL     1       0.629   8.181  21.209  0.00  0.00    +0.000 C 
ATOM      6  N   UNL     1       1.479   7.820  20.069  0.00  0.00    +0.000 N 
ATOM      7  C   UNL     1       1.992   6.547  19.992  0.00  0.00    +0.000 A 
ATOM      8  C   UNL     1       3.167   6.312  19.282  0.00  0.00    +0.000 A 
ATOM      9  C   UNL     1       3.904   5.118  19.414  0.00  0.00    +0.000 A 
ATOM     10  C   UNL     1       3.300   4.109  20.177  0.00  0.00    +0.000 A 
ATOM     11 CL   UNL     1       3.999   2.562  20.500  0.00  0.00    +0.000 Cl
ATOM     12  C   UNL     1       2.070   4.373  20.768  0.00  0.00    +0.000 A 
ATOM     13  N   UNL     1       1.436   5.568  20.723  0.00  0.00    +0.000 NA
ATOM     14  C   UNL     1       1.373   8.715  18.915  0.00  0.00    +0.000 C 
ATOM     15  C   UNL     1       1.713  10.151  19.353  0.00  0.00    +0.000 C 
ENDROOT
BRANCH   9  16
ATOM     16  C   UNL     1       5.236   4.998  18.767  0.00  0.00    +0.000 A 
ATOM     17  N   UNL     1       6.267   5.384  19.563  0.00  0.00    +0.000 NA
ATOM     18  C   UNL     1       7.525   5.344  19.076  0.00  0.00    +0.000 A 
ATOM     19  C   UNL     1       7.843   4.875  17.821  0.00  0.00    +0.000 A 
ATOM     20  C   UNL     1       6.804   4.444  17.012  0.00  0.00    +0.000 A 
ATOM     21  C   UNL     1       5.472   4.521  17.459  0.00  0.00    +0.000 A 
ATOM     22  C   UNL     1       4.404   4.066  16.502  0.00  0.00    +0.000 C 
ENDBRANCH   9  16
BRANCH   1  23
ATOM     23  C   UNL     1       0.368  12.780  19.616  0.00  0.00    +0.000 C 
BRANCH  23  25
ATOM     24  C   UNL     1      -1.383  12.031  18.219  0.00  0.00    +0.000 C 
ATOM     25  O   UNL     1      -1.004  12.932  19.254  0.00  0.00    +0.000 OA
ENDBRANCH  23  25
ENDBRANCH   1  23
TORSDOF 3
ENDMDL
MODEL 2
REMARK VINA RESULT:      -7.0      1.003      1.552
REMARK  Name = 
REMARK  5 active torsions:
REMARK  status: ('A' for Active; 'I' for Inactive)
REMARK    1  A    between atoms: C_1  and  O_2
REMARK    2  A    between atoms: O_2  and  C_3
REMARK    3  A    between atoms: C_3  and  C_4
REMARK    4  A    between atoms: C_12  and  C_13
REMARK    5  A    between atoms: C_18  and  C_19
REMARK                            x       y       z     vdW  Elec       q    Type
REMARK                         _______ _______ _______ _____ _____    ______ ____
ROOT
ATOM      1  C   UNL     1       0.796  11.947  20.330  0.00  0.00    +0.000 C 
ATOM      2  O   UNL     1       0.850  12.459  21.451  0.00  0.00    +0.000 OA
ATOM      3  N   UNL     1       1.159  10.630  20.094  0.00  0.00    +0.000 N 
ATOM      4  C   UNL     1       1.504   9.778  21.234  0.00  0.00    +0.000 C 
ATOM      5  C   UNL     1       1.072   8.315  21.008  0.00  0.00    +0.000 C 
ATOM      6  N   UNL     1       1.624   7.866  19.725  0.00  0.00    +0.000 N 
ATOM      7  C   UNL     1       2.152   6.601  19.629  0.00  0.00    +0.000 A 
ATOM      8  C   UNL     1       3.122   6.321  18.668  0.00  0.00    +0.000 A 
ATOM      9  C   UNL     1       3.915   5.158  18.711  0.00  0.00    +0.000 A 
ATOM     10  C   UNL     1       3.562   4.213  19.684  0.00  0.00    +0.000 A 
ATOM     11 CL   UNL     1       4.381   2.715  19.951  0.00  0.00    +0.000 Cl
ATOM     12  C   UNL     1       2.508   4.509  20.542  0.00  0.00    +0.000 A 
ATOM     13  N   UNL     1       1.836   5.684  20.557  0.00  0.00    +0.000 NA
ATOM     14  C   UNL     1       1.198   8.648  18.563  0.00  0.00    +0.000 C 
ATOM     15  C   UNL     1       1.579  10.125  18.778  0.00  0.00    +0.000 C 
ENDROOT
BRANCH   9  16
ATOM     16  C   UNL     1       5.048   5.002  17.762  0.00  0.00    +0.000 A 
ATOM     17  N   UNL     1       4.665   4.653  16.506  0.00  0.00    +0.000 NA
ATOM     18  C   UNL     1       5.609   4.457  15.562  0.00  0.00    +0.000 A 
ATOM     19  C   UNL     1       6.956   4.645  15.777  0.00  0.00    +0.000 A 
ATOM     20  C   UNL     1       7.357   5.036  17.045  0.00  0.00    +0.000 A 
ATOM     21  C   UNL     1       6.412   5.197  18.075  0.00  0.00    +0.000 A 
ATOM     22  C   UNL     1       6.937   5.586  19.429  0.00  0.00    +0.000 C 
ENDBRANCH   9  16
BRANCH   1  23
ATOM     23  C   UNL     1       0.238  12.743  19.148  0.00  0.00    +0.000 C 
BRANCH  23  25
ATOM     24  C   UNL     1      -1.793  11.882  18.305  0.00  0.00    +0.000 C 
ATOM     25  O   UNL     1      -1.185  12.857  19.145  0.00  0.00    +0.000 OA
ENDBRANCH  23  25
ENDBRANCH   1  23
TORSDOF 3
ENDMDL
MODEL 3
REMARK VINA RESULT:      -7.0      0.776      1.053
REMARK  Name = 
REMARK  5 active torsions:
REMARK  status: ('A' for Active; 'I' for Inactive)
REMARK    1  A    between atoms: C_1  and  O_2
REMARK    2  A    between atoms: O_2  and  C_3
REMARK    3  A    between atoms: C_3  and  C_4
REMARK    4  A    between atoms: C_12  and  C_13
REMARK    5  A    between atoms: C_18  and  C_19
REMARK                            x       y       z     vdW  Elec       q    Type
REMARK                         _______ _______ _______ _____ _____    ______ ____
ROOT
ATOM      1  C   UNL     1       0.693  12.142  20.623  0.00  0.00    +0.000 C 
ATOM      2  O   UNL     1       0.495  12.599  21.751  0.00  0.00    +0.000 OA
ATOM      3  N   UNL     1       1.046  10.819  20.406  0.00  0.00    +0.000 N 
ATOM      4  C   UNL     1       1.067   9.899  21.545  0.00  0.00    +0.000 C 
ATOM      5  C   UNL     1       0.639   8.474  21.139  0.00  0.00    +0.000 C 
ATOM      6  N   UNL     1       1.467   8.053  20.003  0.00  0.00    +0.000 N 
ATOM      7  C   UNL     1       1.947   6.766  19.965  0.00  0.00    +0.000 A 
ATOM      8  C   UNL     1       3.108   6.476  19.251  0.00  0.00    +0.000 A 
ATOM      9  C   UNL     1       3.816   5.269  19.416  0.00  0.00    +0.000 A 
ATOM     10  C   UNL     1       3.197   4.303  20.221  0.00  0.00    +0.000 A 
ATOM     11 CL   UNL     1       3.861   2.751  20.591  0.00  0.00    +0.000 Cl
ATOM     12  C   UNL     1       1.980   4.619  20.816  0.00  0.00    +0.000 A 
ATOM     13  N   UNL     1       1.376   5.827  20.736  0.00  0.00    +0.000 NA
ATOM     14  C   UNL     1       1.370   8.909  18.819  0.00  0.00    +0.000 C 
ATOM     15  C   UNL     1       1.751  10.351  19.203  0.00  0.00    +0.000 C 
ENDROOT
BRANCH   9  16
ATOM     16  C   UNL     1       5.138   5.093  18.760  0.00  0.00    +0.000 A 
ATOM     17  N   UNL     1       6.184   5.526  19.511  0.00  0.00    +0.000 NA
ATOM     18  C   UNL     1       7.434   5.441  19.009  0.00  0.00    +0.000 A 
ATOM     19  C   UNL     1       7.729   4.883  17.786  0.00  0.00    +0.000 A 
ATOM     20  C   UNL     1       6.674   4.405  17.024  0.00  0.00    +0.000 A 
ATOM     21  C   UNL     1       5.350   4.524  17.484  0.00  0.00    +0.000 A 
ATOM     22  C   UNL     1       4.264   4.013  16.578  0.00  0.00    +0.000 C 
ENDBRANCH   9  16
BRANCH   1  23
ATOM     23  C   UNL     1       0.474  13.020  19.388  0.00  0.00    +0.000 C 
BRANCH  23  25
ATOM     24  C   UNL     1       2.536  13.997  18.780  0.00  0.00    +0.000 C 
ATOM     25  O   UNL     1       1.261  14.211  19.376  0.00  0.00    +0.000 OA
ENDBRANCH  23  25
ENDBRANCH   1  23
TORSDOF 3
ENDMDL
MODEL 4
REMARK VINA RESULT:      -6.8      2.643      4.060
REMARK  Name = 
REMARK  5 active torsions:
REMARK  status: ('A' for Active; 'I' for Inactive)
REMARK    1  A    between atoms: C_1  and  O_2
REMARK    2  A    between atoms: O_2  and  C_3
REMARK    3  A    between atoms: C_3  and  C_4
REMARK    4  A    between atoms: C_12  and  C_13
REMARK    5  A    between atoms: C_18  and  C_19
REMARK                            x       y       z     vdW  Elec       q    Type
REMARK                         _______ _______ _______ _____ _____    ______ ____
ROOT
ATOM      1  C   UNL     1      -2.044  12.227  20.910  0.00  0.00    +0.000 C 
ATOM      2  O   UNL     1      -2.725  12.805  20.060  0.00  0.00    +0.000 OA
ATOM      3  N   UNL     1      -1.081  11.286  20.579  0.00  0.00    +0.000 N 
ATOM      4  C   UNL     1      -0.776  11.055  19.166  0.00  0.00    +0.000 C 
ATOM      5  C   UNL     1       0.713  10.718  18.949  0.00  0.00    +0.000 C 
ATOM      6  N   UNL     1       1.066   9.603  19.836  0.00  0.00    +0.000 N 
ATOM      7  C   UNL     1       1.873   8.598  19.360  0.00  0.00    +0.000 A 
ATOM      8  C   UNL     1       1.805   7.325  19.923  0.00  0.00    +0.000 A 
ATOM      9  C   UNL     1       2.364   6.192  19.299  0.00  0.00    +0.000 A 
ATOM     10  C   UNL     1       3.137   6.442  18.157  0.00  0.00    +0.000 A 
ATOM     11 CL   UNL     1       3.917   5.229  17.206  0.00  0.00    +0.000 Cl
ATOM     12  C   UNL     1       3.254   7.755  17.712  0.00  0.00    +0.000 A 
ATOM     13  N   UNL     1       2.613   8.812  18.261  0.00  0.00    +0.000 NA
ATOM     14  C   UNL     1       0.864   9.864  21.263  0.00  0.00    +0.000 C 
ATOM     15  C   UNL     1      -0.608  10.246  21.506  0.00  0.00    +0.000 C 
ENDROOT
BRANCH   9  16
ATOM     16  C   UNL     1       2.107   4.840  19.859  0.00  0.00    +0.000 A 
ATOM     17  N   UNL     1       2.460   4.712  21.165  0.00  0.00    +0.000 NA
ATOM     18  C   UNL     1       2.299   3.520  21.776  0.00  0.00    +0.000 A 
ATOM     19  C   UNL     1       1.736   2.420  21.169  0.00  0.00    +0.000 A 
ATOM     20  C   UNL     1       1.339   2.547  19.847  0.00  0.00    +0.000 A 
ATOM     21  C   UNL     1       1.541   3.755  19.154  0.00  0.00    +0.000 A 
ATOM     22  C   UNL     1       1.114   3.794  17.712  0.00  0.00    +0.000 C 
ENDBRANCH   9  16
BRANCH   1  23
ATOM     23  C   UNL     1      -2.185  12.596  22.389  0.00  0.00    +0.000 C 
BRANCH  23  25
ATOM     24  C   UNL     1      -4.320  13.036  23.299  0.00  0.00    +0.000 C 
ATOM     25  O   UNL     1      -3.341  12.042  23.017  0.00  0.00    +0.000 OA
ENDBRANCH  23  25
ENDBRANCH   1  23
TORSDOF 3
ENDMDL
MODEL 5
REMARK VINA RESULT:      -6.6      1.358      1.896
REMARK  Name = 
REMARK  5 active torsions:
REMARK  status: ('A' for Active; 'I' for Inactive)
REMARK    1  A    between atoms: C_1  and  O_2
REMARK    2  A    between atoms: O_2  and  C_3
REMARK    3  A    between atoms: C_3  and  C_4
REMARK    4  A    between atoms: C_12  and  C_13
REMARK    5  A    between atoms: C_18  and  C_19
REMARK                            x       y       z     vdW  Elec       q    Type
REMARK                         _______ _______ _______ _____ _____    ______ ____
ROOT
ATOM      1  C   UNL     1       0.746  12.419  20.313  0.00  0.00    +0.000 C 
ATOM      2  O   UNL     1       0.778  12.904  21.446  0.00  0.00    +0.000 OA
ATOM      3  N   UNL     1       1.105  11.105  20.054  0.00  0.00    +0.000 N 
ATOM      4  C   UNL     1       1.419  10.225  21.182  0.00  0.00    +0.000 C 
ATOM      5  C   UNL     1       0.982   8.771  20.913  0.00  0.00    +0.000 C 
ATOM      6  N   UNL     1       1.560   8.347  19.632  0.00  0.00    +0.000 N 
ATOM      7  C   UNL     1       2.082   7.080  19.519  0.00  0.00    +0.000 A 
ATOM      8  C   UNL     1       3.070   6.816  18.574  0.00  0.00    +0.000 A 
ATOM      9  C   UNL     1       3.855   5.646  18.607  0.00  0.00    +0.000 A 
ATOM     10  C   UNL     1       3.474   4.682  19.550  0.00  0.00    +0.000 A 
ATOM     11 CL   UNL     1       4.277   3.172  19.800  0.00  0.00    +0.000 Cl
ATOM     12  C   UNL     1       2.404   4.966  20.392  0.00  0.00    +0.000 A 
ATOM     13  N   UNL     1       1.739   6.145  20.419  0.00  0.00    +0.000 NA
ATOM     14  C   UNL     1       1.165   9.159  18.479  0.00  0.00    +0.000 C 
ATOM     15  C   UNL     1       1.551  10.627  18.736  0.00  0.00    +0.000 C 
ENDROOT
BRANCH   9  16
ATOM     16  C   UNL     1       5.007   5.504  17.679  0.00  0.00    +0.000 A 
ATOM     17  N   UNL     1       4.650   5.426  16.371  0.00  0.00    +0.000 NA
ATOM     18  C   UNL     1       5.610   5.268  15.436  0.00  0.00    +0.000 A 
ATOM     19  C   UNL     1       6.956   5.237  15.721  0.00  0.00    +0.000 A 
ATOM     20  C   UNL     1       7.336   5.352  17.049  0.00  0.00    +0.000 A 
ATOM     21  C   UNL     1       6.366   5.461  18.062  0.00  0.00    +0.000 A 
ATOM     22  C   UNL     1       6.865   5.543  19.479  0.00  0.00    +0.000 C 
ENDBRANCH   9  16
BRANCH   1  23
ATOM     23  C   UNL     1       0.219  13.246  19.137  0.00  0.00    +0.000 C 
BRANCH  23  25
ATOM     24  C   UNL     1       1.222  15.380  19.000  0.00  0.00    +0.000 C 
ATOM     25  O   UNL     1       0.083  14.638  19.421  0.00  0.00    +0.000 OA
ENDBRANCH  23  25
ENDBRANCH   1  23
TORSDOF 3
ENDMDL
MODEL 6
REMARK VINA RESULT:      -6.3      4.014      8.021
REMARK  Name = 
REMARK  5 active torsions:
REMARK  status: ('A' for Active; 'I' for Inactive)
REMARK    1  A    between atoms: C_1  and  O_2
REMARK    2  A    between atoms: O_2  and  C_3
REMARK    3  A    between atoms: C_3  and  C_4
REMARK    4  A    between atoms: C_12  and  C_13
REMARK    5  A    between atoms: C_18  and  C_19
REMARK                            x       y       z     vdW  Elec       q    Type
REMARK                         _______ _______ _______ _____ _____    ______ ____
ROOT
ATOM      1  C   UNL     1       3.022   3.617  17.561  0.00  0.00    +0.000 C 
ATOM      2  O   UNL     1       2.397   2.558  17.641  0.00  0.00    +0.000 OA
ATOM      3  N   UNL     1       2.665   4.750  18.276  0.00  0.00    +0.000 N 
ATOM      4  C   UNL     1       1.580   4.653  19.254  0.00  0.00    +0.000 C 
ATOM      5  C   UNL     1       1.821   5.571  20.470  0.00  0.00    +0.000 C 
ATOM      6  N   UNL     1       2.075   6.929  19.977  0.00  0.00    +0.000 N 
ATOM      7  C   UNL     1       1.512   7.997  20.635  0.00  0.00    +0.000 A 
ATOM      8  C   UNL     1       1.274   9.188  19.953  0.00  0.00    +0.000 A 
ATOM      9  C   UNL     1       0.436  10.199  20.466  0.00  0.00    +0.000 A 
ATOM     10  C   UNL     1      -0.015  10.009  21.780  0.00  0.00    +0.000 A 
ATOM     11 CL   UNL     1      -1.059  11.091  22.632  0.00  0.00    +0.000 Cl
ATOM     12  C   UNL     1       0.354   8.845  22.444  0.00  0.00    +0.000 A 
ATOM     13  N   UNL     1       1.064   7.835  21.890  0.00  0.00    +0.000 NA
ATOM     14  C   UNL     1       3.226   7.054  19.081  0.00  0.00    +0.000 C 
ATOM     15  C   UNL     1       3.034   6.116  17.875  0.00  0.00    +0.000 C 
ENDROOT
BRANCH   9  16
ATOM     16  C   UNL     1       0.082  11.366  19.617  0.00  0.00    +0.000 A 
ATOM     17  N   UNL     1       0.840  12.467  19.857  0.00  0.00    +0.000 NA
ATOM     18  C   UNL     1       0.593  13.598  19.164  0.00  0.00    +0.000 A 
ATOM     19  C   UNL     1      -0.357  13.695  18.172  0.00  0.00    +0.000 A 
ATOM     20  C   UNL     1      -1.114  12.567  17.893  0.00  0.00    +0.000 A 
ATOM     21  C   UNL     1      -0.929  11.383  18.630  0.00  0.00    +0.000 A 
ATOM     22  C   UNL     1      -1.818  10.220  18.287  0.00  0.00    +0.000 C 
ENDBRANCH   9  16
BRANCH   1  23
ATOM     23  C   UNL     1       4.292   3.697  16.709  0.00  0.00    +0.000 C 
BRANCH  23  25
ATOM     24  C   UNL     1       6.486   4.573  16.691  0.00  0.00    +0.000 C 
ATOM     25  O   UNL     1       5.483   3.921  17.463  0.00  0.00    +0.000 OA
ENDBRANCH  23  25
ENDBRANCH   1  23
TORSDOF 3
ENDMDL
MODEL 7
REMARK VINA RESULT:      -6.2      2.426      3.910
REMARK  Name = 
REMARK  5 active torsions:
REMARK  status: ('A' for Active; 'I' for Inactive)
REMARK    1  A    between atoms: C_1  and  O_2
REMARK    2  A    between atoms: O_2  and  C_3
REMARK    3  A    between atoms: C_3  and  C_4
REMARK    4  A    between atoms: C_12  and  C_13
REMARK    5  A    between atoms: C_18  and  C_19
REMARK                            x       y       z     vdW  Elec       q    Type
REMARK                         _______ _______ _______ _____ _____    ______ ____
ROOT
ATOM      1  C   UNL     1      -1.471  11.593  20.002  0.00  0.00    +0.000 C 
ATOM      2  O   UNL     1      -2.001  12.296  19.139  0.00  0.00    +0.000 OA
ATOM      3  N   UNL     1      -0.506  10.644  19.701  0.00  0.00    +0.000 N 
ATOM      4  C   UNL     1      -0.010  10.554  18.326  0.00  0.00    +0.000 C 
ATOM      5  C   UNL     1       1.481  10.164  18.280  0.00  0.00    +0.000 C 
ATOM      6  N   UNL     1       1.662   8.942  19.071  0.00  0.00    +0.000 N 
ATOM      7  C   UNL     1       2.491   7.953  18.598  0.00  0.00    +0.000 A 
ATOM      8  C   UNL     1       2.297   6.632  18.995  0.00  0.00    +0.000 A 
ATOM      9  C   UNL     1       2.897   5.546  18.327  0.00  0.00    +0.000 A 
ATOM     10  C   UNL     1       3.834   5.879  17.339  0.00  0.00    +0.000 A 
ATOM     11 CL   UNL     1       4.697   4.737  16.371  0.00  0.00    +0.000 Cl
ATOM     12  C   UNL     1       4.062   7.224  17.070  0.00  0.00    +0.000 A 
ATOM     13  N   UNL     1       3.389   8.248  17.644  0.00  0.00    +0.000 NA
ATOM     14  C   UNL     1       1.268   9.055  20.477  0.00  0.00    +0.000 C 
ATOM     15  C   UNL     1      -0.209   9.485  20.557  0.00  0.00    +0.000 C 
ENDROOT
BRANCH   9  16
ATOM     16  C   UNL     1       2.513   4.156  18.685  0.00  0.00    +0.000 A 
ATOM     17  N   UNL     1       1.213   3.863  18.425  0.00  0.00    +0.000 NA
ATOM     18  C   UNL     1       0.740   2.637  18.733  0.00  0.00    +0.000 A 
ATOM     19  C   UNL     1       1.519   1.626  19.250  0.00  0.00    +0.000 A 
ATOM     20  C   UNL     1       2.857   1.901  19.487  0.00  0.00    +0.000 A 
ATOM     21  C   UNL     1       3.378   3.183  19.234  0.00  0.00    +0.000 A 
ATOM     22  C   UNL     1       4.830   3.405  19.555  0.00  0.00    +0.000 C 
ENDBRANCH   9  16
BRANCH   1  23
ATOM     23  C   UNL     1      -1.809  11.804  21.480  0.00  0.00    +0.000 C 
BRANCH  23  25
ATOM     24  C   UNL     1      -3.525  12.554  22.919  0.00  0.00    +0.000 C 
ATOM     25  O   UNL     1      -2.814  12.792  21.710  0.00  0.00    +0.000 OA
ENDBRANCH  23  25
ENDBRANCH   1  23
TORSDOF 3
ENDMDL
MODEL 8
REMARK VINA RESULT:      -6.2      2.381      4.096
REMARK  Name = 
REMARK  5 active torsions:
REMARK  status: ('A' for Active; 'I' for Inactive)
REMARK    1  A    between atoms: C_1  and  O_2
REMARK    2  A    between atoms: O_2  and  C_3
REMARK    3  A    between atoms: C_3  and  C_4
REMARK    4  A    between atoms: C_12  and  C_13
REMARK    5  A    between atoms: C_18  and  C_19
REMARK                            x       y       z     vdW  Elec       q    Type
REMARK                         _______ _______ _______ _____ _____    ______ ____
ROOT
ATOM      1  C   UNL     1      -2.058  12.053  21.153  0.00  0.00    +0.000 C 
ATOM      2  O   UNL     1      -2.867  12.558  20.371  0.00  0.00    +0.000 OA
ATOM      3  N   UNL     1      -1.081  11.161  20.741  0.00  0.00    +0.000 N 
ATOM      4  C   UNL     1      -0.923  10.899  19.309  0.00  0.00    +0.000 C 
ATOM      5  C   UNL     1       0.551  10.645  18.932  0.00  0.00    +0.000 C 
ATOM      6  N   UNL     1       1.072   9.586  19.804  0.00  0.00    +0.000 N 
ATOM      7  C   UNL     1       1.883   8.615  19.267  0.00  0.00    +0.000 A 
ATOM      8  C   UNL     1       1.961   7.361  19.870  0.00  0.00    +0.000 A 
ATOM      9  C   UNL     1       2.517   6.242  19.219  0.00  0.00    +0.000 A 
ATOM     10  C   UNL     1       3.139   6.498  17.988  0.00  0.00    +0.000 A 
ATOM     11 CL   UNL     1       3.883   5.301  16.989  0.00  0.00    +0.000 Cl
ATOM     12  C   UNL     1       3.120   7.799  17.496  0.00  0.00    +0.000 A 
ATOM     13  N   UNL     1       2.479   8.835  18.084  0.00  0.00    +0.000 NA
ATOM     14  C   UNL     1       1.017   9.885  21.236  0.00  0.00    +0.000 C 
ATOM     15  C   UNL     1      -0.440  10.185  21.636  0.00  0.00    +0.000 C 
ENDROOT
BRANCH   9  16
ATOM     16  C   UNL     1       2.414   4.898  19.843  0.00  0.00    +0.000 A 
ATOM     17  N   UNL     1       1.145   4.547  20.178  0.00  0.00    +0.000 NA
ATOM     18  C   UNL     1       0.928   3.357  20.776  0.00  0.00    +0.000 A 
ATOM     19  C   UNL     1       1.919   2.434  21.023  0.00  0.00    +0.000 A 
ATOM     20  C   UNL     1       3.214   2.765  20.653  0.00  0.00    +0.000 A 
ATOM     21  C   UNL     1       3.494   4.018  20.078  0.00  0.00    +0.000 A 
ATOM     22  C   UNL     1       4.930   4.309  19.742  0.00  0.00    +0.000 C 
ENDBRANCH   9  16
BRANCH   1  23
ATOM     23  C   UNL     1      -2.055  12.465  22.627  0.00  0.00    +0.000 C 
BRANCH  23  25
ATOM     24  C   UNL     1      -3.836  12.659  24.167  0.00  0.00    +0.000 C 
ATOM     25  O   UNL     1      -3.009  11.767  23.427  0.00  0.00    +0.000 OA
ENDBRANCH  23  25
ENDBRANCH   1  23
TORSDOF 3
ENDMDL
MODEL 9
REMARK VINA RESULT:      -6.1      4.302      8.417
REMARK  Name = 
REMARK  5 active torsions:
REMARK  status: ('A' for Active; 'I' for Inactive)
REMARK    1  A    between atoms: C_1  and  O_2
REMARK    2  A    between atoms: O_2  and  C_3
REMARK    3  A    between atoms: C_3  and  C_4
REMARK    4  A    between atoms: C_12  and  C_13
REMARK    5  A    between atoms: C_18  and  C_19
REMARK                            x       y       z     vdW  Elec       q    Type
REMARK                         _______ _______ _______ _____ _____    ______ ____
ROOT
ATOM      1  C   UNL     1       4.382   3.565  19.465  0.00  0.00    +0.000 C 
ATOM      2  O   UNL     1       5.611   3.469  19.438  0.00  0.00    +0.000 OA
ATOM      3  N   UNL     1       3.724   4.771  19.282  0.00  0.00    +0.000 N 
ATOM      4  C   UNL     1       4.508   5.955  18.924  0.00  0.00    +0.000 C 
ATOM      5  C   UNL     1       3.727   6.898  17.987  0.00  0.00    +0.000 C 
ATOM      6  N   UNL     1       2.430   7.193  18.607  0.00  0.00    +0.000 N 
ATOM      7  C   UNL     1       1.938   8.475  18.553  0.00  0.00    +0.000 A 
ATOM      8  C   UNL     1       1.043   8.919  19.524  0.00  0.00    +0.000 A 
ATOM      9  C   UNL     1       0.742  10.283  19.707  0.00  0.00    +0.000 A 
ATOM     10  C   UNL     1       1.268  11.159  18.748  0.00  0.00    +0.000 A 
ATOM     11 CL   UNL     1       1.057  12.874  18.753  0.00  0.00    +0.000 Cl
ATOM     12  C   UNL     1       2.065  10.632  17.737  0.00  0.00    +0.000 A 
ATOM     13  N   UNL     1       2.436   9.334  17.649  0.00  0.00    +0.000 NA
ATOM     14  C   UNL     1       1.593   6.021  18.870  0.00  0.00    +0.000 C 
ATOM     15  C   UNL     1       2.363   5.039  19.772  0.00  0.00    +0.000 C 
ENDROOT
BRANCH   9  16
ATOM     16  C   UNL     1      -0.081  10.708  20.869  0.00  0.00    +0.000 A 
ATOM     17  N   UNL     1      -1.014  11.647  20.565  0.00  0.00    +0.000 NA
ATOM     18  C   UNL     1      -1.806  12.130  21.546  0.00  0.00    +0.000 A 
ATOM     19  C   UNL     1      -1.767  11.684  22.847  0.00  0.00    +0.000 A 
ATOM     20  C   UNL     1      -0.842  10.701  23.164  0.00  0.00    +0.000 A 
ATOM     21  C   UNL     1       0.041  10.209  22.186  0.00  0.00    +0.000 A 
ATOM     22  C   UNL     1       1.036   9.170  22.624  0.00  0.00    +0.000 C 
ENDBRANCH   9  16
BRANCH   1  23
ATOM     23  C   UNL     1       3.517   2.312  19.625  0.00  0.00    +0.000 C 
BRANCH  23  25
ATOM     24  C   UNL     1       2.657   2.217  17.427  0.00  0.00    +0.000 C 
ATOM     25  O   UNL     1       3.396   1.534  18.434  0.00  0.00    +0.000 OA
ENDBRANCH  23  25
ENDBRANCH   1  23
TORSDOF 3
ENDMDL
