MODEL 1
REMARK VINA RESULT:      -6.5      0.000      0.000
REMARK  Name = 
REMARK  4 active torsions:
REMARK  status: ('A' for Active; 'I' for Inactive)
REMARK    1  A    between atoms: O_1  and  C_2
REMARK    2  A    between atoms: C_2  and  C_3
REMARK    3  A    between atoms: C_2  and  C_10
REMARK    4  A    between atoms: C_3  and  N_4
REMARK                            x       y       z     vdW  Elec       q    Type
REMARK                         _______ _______ _______ _____ _____    ______ ____
ROOT
ATOM      1  C   UNL     1       5.688   4.653  19.086  0.00  0.00    +0.000 C 
ENDROOT
BRANCH   1   2
ATOM      2  C   UNL     1       5.928   4.563  17.595  0.00  0.00    +0.000 A 
ATOM      3  C   UNL     1       4.892   4.172  16.734  0.00  0.00    +0.000 A 
ATOM      4  C   UNL     1       5.116   4.046  15.361  0.00  0.00    +0.000 A 
ATOM      5  C   UNL     1       6.379   4.314  14.841  0.00  0.00    +0.000 A 
ATOM      6 BR   UNL     1       6.689   4.117  12.986  0.00  0.00    +0.000 Br
ATOM      7  C   UNL     1       7.419   4.712  15.677  0.00  0.00    +0.000 A 
ATOM      8  C   UNL     1       7.194   4.837  17.050  0.00  0.00    +0.000 A 
ENDBRANCH   1   2
BRANCH   1   9
ATOM      9  O   UNL     1       6.803   5.353  19.653  0.00  0.00    +0.000 OA
ATOM     10  H   UNL     1       6.954   6.138  19.107  0.00  0.00    +0.000 HD
ENDBRANCH   1   9
BRANCH   1  11
ATOM     11  C   UNL     1       4.371   5.378  19.485  0.00  0.00    +0.000 C 
BRANCH  11  12
ATOM     12  N   UNL     1       3.158   4.539  19.579  0.00  0.00    +0.000 NA
ATOM     13  C   UNL     1       3.459   3.160  19.984  0.00  0.00    +0.000 C 
ATOM     14  C   UNL     1       2.194   2.302  20.030  0.00  0.00    +0.000 C 
ATOM     15  C   UNL     1       1.145   2.914  20.947  0.00  0.00    +0.000 C 
ATOM     16  C   UNL     1       0.875   4.355  20.535  0.00  0.00    +0.000 C 
ATOM     17  C   UNL     1       2.170   5.166  20.472  0.00  0.00    +0.000 C 
ENDBRANCH  11  12
ENDBRANCH   1  11
TORSDOF 4
ENDMDL
MODEL 2
REMARK VINA RESULT:      -6.5      0.465      1.233
REMARK  Name = 
REMARK  4 active torsions:
REMARK  status: ('A' for Active; 'I' for Inactive)
REMARK    1  A    between atoms: O_1  and  C_2
REMARK    2  A    between atoms: C_2  and  C_3
REMARK    3  A    between atoms: C_2  and  C_10
REMARK    4  A    between atoms: C_3  and  N_4
REMARK                            x       y       z     vdW  Elec       q    Type
REMARK                         _______ _______ _______ _____ _____    ______ ____
ROOT
ATOM      1  C   UNL     1       5.616   4.600  18.973  0.00  0.00    +0.000 C 
ENDROOT
BRANCH   1   2
ATOM      2  C   UNL     1       5.827   4.480  17.480  0.00  0.00    +0.000 A 
ATOM      3  C   UNL     1       4.790   4.024  16.652  0.00  0.00    +0.000 A 
ATOM      4  C   UNL     1       4.989   3.872  15.278  0.00  0.00    +0.000 A 
ATOM      5  C   UNL     1       6.229   4.177  14.723  0.00  0.00    +0.000 A 
ATOM      6 BR   UNL     1       6.506   3.943  12.867  0.00  0.00    +0.000 Br
ATOM      7  C   UNL     1       7.269   4.638  15.525  0.00  0.00    +0.000 A 
ATOM      8  C   UNL     1       7.069   4.790  16.899  0.00  0.00    +0.000 A 
ENDBRANCH   1   2
BRANCH   1   9
ATOM      9  O   UNL     1       6.806   5.178  19.524  0.00  0.00    +0.000 OA
ATOM     10  H   UNL     1       7.452   5.240  18.804  0.00  0.00    +0.000 HD
ENDBRANCH   1   9
BRANCH   1  11
ATOM     11  C   UNL     1       4.389   5.463  19.384  0.00  0.00    +0.000 C 
BRANCH  11  12
ATOM     12  N   UNL     1       3.325   4.776  20.145  0.00  0.00    +0.000 NA
ATOM     13  C   UNL     1       1.991   4.998  19.572  0.00  0.00    +0.000 C 
ATOM     14  C   UNL     1       0.904   4.315  20.404  0.00  0.00    +0.000 C 
ATOM     15  C   UNL     1       1.182   2.826  20.557  0.00  0.00    +0.000 C 
ATOM     16  C   UNL     1       2.583   2.615  21.116  0.00  0.00    +0.000 C 
ATOM     17  C   UNL     1       3.631   3.342  20.272  0.00  0.00    +0.000 C 
ENDBRANCH  11  12
ENDBRANCH   1  11
TORSDOF 4
ENDMDL
MODEL 3
REMARK VINA RESULT:      -6.5      0.064      1.210
REMARK  Name = 
REMARK  4 active torsions:
REMARK  status: ('A' for Active; 'I' for Inactive)
REMARK    1  A    between atoms: O_1  and  C_2
REMARK    2  A    between atoms: C_2  and  C_3
REMARK    3  A    between atoms: C_2  and  C_10
REMARK    4  A    between atoms: C_3  and  N_4
REMARK                            x       y       z     vdW  Elec       q    Type
REMARK                         _______ _______ _______ _____ _____    ______ ____
ROOT
ATOM      1  C   UNL     1       5.679   4.646  19.102  0.00  0.00    +0.000 C 
ENDROOT
BRANCH   1   2
ATOM      2  C   UNL     1       5.950   4.515  17.619  0.00  0.00    +0.000 A 
ATOM      3  C   UNL     1       7.226   4.791  17.105  0.00  0.00    +0.000 A 
ATOM      4  C   UNL     1       7.474   4.712  15.733  0.00  0.00    +0.000 A 
ATOM      5  C   UNL     1       6.446   4.354  14.865  0.00  0.00    +0.000 A 
ATOM      6 BR   UNL     1       6.776   4.275  13.005  0.00  0.00    +0.000 Br
ATOM      7  C   UNL     1       5.174   4.069  15.355  0.00  0.00    +0.000 A 
ATOM      8  C   UNL     1       4.927   4.148  16.727  0.00  0.00    +0.000 A 
ENDBRANCH   1   2
BRANCH   1   9
ATOM      9  O   UNL     1       6.782   5.362  19.672  0.00  0.00    +0.000 OA
ATOM     10  H   UNL     1       7.577   5.092  19.189  0.00  0.00    +0.000 HD
ENDBRANCH   1   9
BRANCH   1  11
ATOM     11  C   UNL     1       4.354   5.379  19.454  0.00  0.00    +0.000 C 
BRANCH  11  12
ATOM     12  N   UNL     1       3.144   4.538  19.562  0.00  0.00    +0.000 NA
ATOM     13  C   UNL     1       3.450   3.164  19.979  0.00  0.00    +0.000 C 
ATOM     14  C   UNL     1       2.187   2.303  20.040  0.00  0.00    +0.000 C 
ATOM     15  C   UNL     1       1.141   2.922  20.956  0.00  0.00    +0.000 C 
ATOM     16  C   UNL     1       0.865   4.359  20.531  0.00  0.00    +0.000 C 
ATOM     17  C   UNL     1       2.159   5.172  20.454  0.00  0.00    +0.000 C 
ENDBRANCH  11  12
ENDBRANCH   1  11
TORSDOF 4
ENDMDL
MODEL 4
REMARK VINA RESULT:      -6.3      2.650      3.417
REMARK  Name = 
REMARK  4 active torsions:
REMARK  status: ('A' for Active; 'I' for Inactive)
REMARK    1  A    between atoms: O_1  and  C_2
REMARK    2  A    between atoms: C_2  and  C_3
REMARK    3  A    between atoms: C_2  and  C_10
REMARK    4  A    between atoms: C_3  and  N_4
REMARK                            x       y       z     vdW  Elec       q    Type
REMARK                         _______ _______ _______ _____ _____    ______ ____
ROOT
ATOM      1  C   UNL     1       5.602   4.131  17.765  0.00  0.00    +0.000 C 
ENDROOT
BRANCH   1   2
ATOM      2  C   UNL     1       6.353   5.443  17.823  0.00  0.00    +0.000 A 
ATOM      3  C   UNL     1       7.494   5.571  18.629  0.00  0.00    +0.000 A 
ATOM      4  C   UNL     1       8.169   6.790  18.720  0.00  0.00    +0.000 A 
ATOM      5  C   UNL     1       7.708   7.889  18.002  0.00  0.00    +0.000 A 
ATOM      6 BR   UNL     1       8.608   9.547  18.147  0.00  0.00    +0.000 Br
ATOM      7  C   UNL     1       6.583   7.782  17.189  0.00  0.00    +0.000 A 
ATOM      8  C   UNL     1       5.908   6.563  17.099  0.00  0.00    +0.000 A 
ENDBRANCH   1   2
BRANCH   1   9
ATOM      9  O   UNL     1       5.813   3.466  19.017  0.00  0.00    +0.000 OA
ATOM     10  H   UNL     1       5.202   3.863  19.656  0.00  0.00    +0.000 HD
ENDBRANCH   1   9
BRANCH   1  11
ATOM     11  C   UNL     1       4.074   4.272  17.510  0.00  0.00    +0.000 C 
BRANCH  11  12
ATOM     12  N   UNL     1       3.180   3.800  18.587  0.00  0.00    +0.000 NA
ATOM     13  C   UNL     1       2.350   4.878  19.140  0.00  0.00    +0.000 C 
ATOM     14  C   UNL     1       1.467   4.374  20.283  0.00  0.00    +0.000 C 
ATOM     15  C   UNL     1       0.600   3.206  19.835  0.00  0.00    +0.000 C 
ATOM     16  C   UNL     1       1.473   2.115  19.229  0.00  0.00    +0.000 C 
ATOM     17  C   UNL     1       2.361   2.672  18.114  0.00  0.00    +0.000 C 
ENDBRANCH  11  12
ENDBRANCH   1  11
TORSDOF 4
ENDMDL
MODEL 5
REMARK VINA RESULT:      -6.3      2.575      3.020
REMARK  Name = 
REMARK  4 active torsions:
REMARK  status: ('A' for Active; 'I' for Inactive)
REMARK    1  A    between atoms: O_1  and  C_2
REMARK    2  A    between atoms: C_2  and  C_3
REMARK    3  A    between atoms: C_2  and  C_10
REMARK    4  A    between atoms: C_3  and  N_4
REMARK                            x       y       z     vdW  Elec       q    Type
REMARK                         _______ _______ _______ _____ _____    ______ ____
ROOT
ATOM      1  C   UNL     1       4.881   3.834  16.763  0.00  0.00    +0.000 C 
ENDROOT
BRANCH   1   2
ATOM      2  C   UNL     1       5.689   5.065  17.112  0.00  0.00    +0.000 A 
ATOM      3  C   UNL     1       5.265   6.333  16.688  0.00  0.00    +0.000 A 
ATOM      4  C   UNL     1       6.026   7.470  16.972  0.00  0.00    +0.000 A 
ATOM      5  C   UNL     1       7.215   7.344  17.684  0.00  0.00    +0.000 A 
ATOM      6 BR   UNL     1       8.258   8.880  18.043  0.00  0.00    +0.000 Br
ATOM      7  C   UNL     1       7.649   6.096  18.122  0.00  0.00    +0.000 A 
ATOM      8  C   UNL     1       6.888   4.960  17.838  0.00  0.00    +0.000 A 
ENDBRANCH   1   2
BRANCH   1   9
ATOM      9  O   UNL     1       5.726   2.982  15.979  0.00  0.00    +0.000 OA
ATOM     10  H   UNL     1       5.946   3.466  15.169  0.00  0.00    +0.000 HD
ENDBRANCH   1   9
BRANCH   1  11
ATOM     11  C   UNL     1       4.348   3.041  17.990  0.00  0.00    +0.000 C 
BRANCH  11  12
ATOM     12  N   UNL     1       3.063   3.494  18.560  0.00  0.00    +0.000 NA
ATOM     13  C   UNL     1       2.137   2.382  18.812  0.00  0.00    +0.000 C 
ATOM     14  C   UNL     1       0.799   2.880  19.359  0.00  0.00    +0.000 C 
ATOM     15  C   UNL     1       0.993   3.712  20.618  0.00  0.00    +0.000 C 
ATOM     16  C   UNL     1       1.985   4.836  20.349  0.00  0.00    +0.000 C 
ATOM     17  C   UNL     1       3.295   4.294  19.773  0.00  0.00    +0.000 C 
ENDBRANCH  11  12
ENDBRANCH   1  11
TORSDOF 4
ENDMDL
MODEL 6
REMARK VINA RESULT:      -6.2      2.715      3.361
REMARK  Name = 
REMARK  4 active torsions:
REMARK  status: ('A' for Active; 'I' for Inactive)
REMARK    1  A    between atoms: O_1  and  C_2
REMARK    2  A    between atoms: C_2  and  C_3
REMARK    3  A    between atoms: C_2  and  C_10
REMARK    4  A    between atoms: C_3  and  N_4
REMARK                            x       y       z     vdW  Elec       q    Type
REMARK                         _______ _______ _______ _____ _____    ______ ____
ROOT
ATOM      1  C   UNL     1       5.599   4.387  17.539  0.00  0.00    +0.000 C 
ENDROOT
BRANCH   1   2
ATOM      2  C   UNL     1       6.359   5.678  17.744  0.00  0.00    +0.000 A 
ATOM      3  C   UNL     1       5.963   6.847  17.077  0.00  0.00    +0.000 A 
ATOM      4  C   UNL     1       6.683   8.034  17.230  0.00  0.00    +0.000 A 
ATOM      5  C   UNL     1       7.805   8.059  18.053  0.00  0.00    +0.000 A 
ATOM      6 BR   UNL     1       8.795   9.660  18.237  0.00  0.00    +0.000 Br
ATOM      7  C   UNL     1       8.211   6.913  18.731  0.00  0.00    +0.000 A 
ATOM      8  C   UNL     1       7.490   5.727  18.578  0.00  0.00    +0.000 A 
ENDBRANCH   1   2
BRANCH   1   9
ATOM      9  O   UNL     1       5.900   3.537  18.653  0.00  0.00    +0.000 OA
ATOM     10  H   UNL     1       5.621   2.641  18.411  0.00  0.00    +0.000 HD
ENDBRANCH   1   9
BRANCH   1  11
ATOM     11  C   UNL     1       4.058   4.556  17.423  0.00  0.00    +0.000 C 
BRANCH  11  12
ATOM     12  N   UNL     1       3.263   4.188  18.613  0.00  0.00    +0.000 NA
ATOM     13  C   UNL     1       2.610   5.348  19.233  0.00  0.00    +0.000 C 
ATOM     14  C   UNL     1       1.831   4.948  20.487  0.00  0.00    +0.000 C 
ATOM     15  C   UNL     1       0.812   3.860  20.180  0.00  0.00    +0.000 C 
ATOM     16  C   UNL     1       1.501   2.682  19.502  0.00  0.00    +0.000 C 
ATOM     17  C   UNL     1       2.293   3.134  18.274  0.00  0.00    +0.000 C 
ENDBRANCH  11  12
ENDBRANCH   1  11
TORSDOF 4
ENDMDL
MODEL 7
REMARK VINA RESULT:      -6.2      2.615      3.162
REMARK  Name = 
REMARK  4 active torsions:
REMARK  status: ('A' for Active; 'I' for Inactive)
REMARK    1  A    between atoms: O_1  and  C_2
REMARK    2  A    between atoms: C_2  and  C_3
REMARK    3  A    between atoms: C_2  and  C_10
REMARK    4  A    between atoms: C_3  and  N_4
REMARK                            x       y       z     vdW  Elec       q    Type
REMARK                         _______ _______ _______ _____ _____    ______ ____
ROOT
ATOM      1  C   UNL     1       4.954   3.980  16.864  0.00  0.00    +0.000 C 
ENDROOT
BRANCH   1   2
ATOM      2  C   UNL     1       5.802   5.200  17.147  0.00  0.00    +0.000 A 
ATOM      3  C   UNL     1       6.949   5.096  17.948  0.00  0.00    +0.000 A 
ATOM      4  C   UNL     1       7.715   6.225  18.247  0.00  0.00    +0.000 A 
ATOM      5  C   UNL     1       7.339   7.467  17.743  0.00  0.00    +0.000 A 
ATOM      6 BR   UNL     1       8.362   8.999  18.171  0.00  0.00    +0.000 Br
ATOM      7  C   UNL     1       6.210   7.591  16.938  0.00  0.00    +0.000 A 
ATOM      8  C   UNL     1       5.444   6.462  16.640  0.00  0.00    +0.000 A 
ENDBRANCH   1   2
BRANCH   1   9
ATOM      9  O   UNL     1       5.747   3.088  16.071  0.00  0.00    +0.000 OA
ATOM     10  H   UNL     1       6.489   2.799  16.623  0.00  0.00    +0.000 HD
ENDBRANCH   1   9
BRANCH   1  11
ATOM     11  C   UNL     1       4.456   3.232  18.133  0.00  0.00    +0.000 C 
BRANCH  11  12
ATOM     12  N   UNL     1       3.119   3.609  18.638  0.00  0.00    +0.000 NA
ATOM     13  C   UNL     1       2.280   2.441  18.934  0.00  0.00    +0.000 C 
ATOM     14  C   UNL     1       0.888   2.858  19.411  0.00  0.00    +0.000 C 
ATOM     15  C   UNL     1       0.973   3.777  20.621  0.00  0.00    +0.000 C 
ATOM     16  C   UNL     1       1.878   4.962  20.310  0.00  0.00    +0.000 C 
ATOM     17  C   UNL     1       3.246   4.498  19.805  0.00  0.00    +0.000 C 
ENDBRANCH  11  12
ENDBRANCH   1  11
TORSDOF 4
ENDMDL
MODEL 8
REMARK VINA RESULT:      -6.2      4.285      5.827
REMARK  Name = 
REMARK  4 active torsions:
REMARK  status: ('A' for Active; 'I' for Inactive)
REMARK    1  A    between atoms: O_1  and  C_2
REMARK    2  A    between atoms: C_2  and  C_3
REMARK    3  A    between atoms: C_2  and  C_10
REMARK    4  A    between atoms: C_3  and  N_4
REMARK                            x       y       z     vdW  Elec       q    Type
REMARK                         _______ _______ _______ _____ _____    ______ ____
ROOT
ATOM      1  C   UNL     1       3.078   6.603  18.256  0.00  0.00    +0.000 C 
ENDROOT
BRANCH   1   2
ATOM      2  C   UNL     1       2.252   7.775  18.739  0.00  0.00    +0.000 A 
ATOM      3  C   UNL     1       1.855   7.855  20.082  0.00  0.00    +0.000 A 
ATOM      4  C   UNL     1       1.058   8.912  20.528  0.00  0.00    +0.000 A 
ATOM      5  C   UNL     1       0.655   9.898  19.631  0.00  0.00    +0.000 A 
ATOM      6 BR   UNL     1      -0.446  11.314  20.230  0.00  0.00    +0.000 Br
ATOM      7  C   UNL     1       1.045   9.842  18.296  0.00  0.00    +0.000 A 
ATOM      8  C   UNL     1       1.841   8.784  17.851  0.00  0.00    +0.000 A 
ENDBRANCH   1   2
BRANCH   1   9
ATOM      9  O   UNL     1       4.220   7.141  17.577  0.00  0.00    +0.000 OA
ATOM     10  H   UNL     1       4.108   8.103  17.551  0.00  0.00    +0.000 HD
ENDBRANCH   1   9
BRANCH   1  11
ATOM     11  C   UNL     1       3.555   5.642  19.382  0.00  0.00    +0.000 C 
BRANCH  11  12
ATOM     12  N   UNL     1       2.923   4.308  19.423  0.00  0.00    +0.000 NA
ATOM     13  C   UNL     1       1.689   4.296  20.219  0.00  0.00    +0.000 C 
ATOM     14  C   UNL     1       1.078   2.895  20.283  0.00  0.00    +0.000 C 
ATOM     15  C   UNL     1       0.823   2.340  18.889  0.00  0.00    +0.000 C 
ATOM     16  C   UNL     1       2.104   2.397  18.066  0.00  0.00    +0.000 C 
ATOM     17  C   UNL     1       2.695   3.808  18.057  0.00  0.00    +0.000 C 
ENDBRANCH  11  12
ENDBRANCH   1  11
TORSDOF 4
ENDMDL
MODEL 9
REMARK VINA RESULT:      -6.1      2.632      3.217
REMARK  Name = 
REMARK  4 active torsions:
REMARK  status: ('A' for Active; 'I' for Inactive)
REMARK    1  A    between atoms: O_1  and  C_2
REMARK    2  A    between atoms: C_2  and  C_3
REMARK    3  A    between atoms: C_2  and  C_10
REMARK    4  A    between atoms: C_3  and  N_4
REMARK                            x       y       z     vdW  Elec       q    Type
REMARK                         _______ _______ _______ _____ _____    ______ ____
ROOT
ATOM      1  C   UNL     1       4.777   3.839  17.616  0.00  0.00    +0.000 C 
ENDROOT
BRANCH   1   2
ATOM      2  C   UNL     1       5.652   5.072  17.661  0.00  0.00    +0.000 A 
ATOM      3  C   UNL     1       6.828   5.078  18.425  0.00  0.00    +0.000 A 
ATOM      4  C   UNL     1       7.620   6.226  18.505  0.00  0.00    +0.000 A 
ATOM      5  C   UNL     1       7.241   7.375  17.817  0.00  0.00    +0.000 A 
ATOM      6 BR   UNL     1       8.300   8.937  17.948  0.00  0.00    +0.000 Br
ATOM      7  C   UNL     1       6.082   7.388  17.046  0.00  0.00    +0.000 A 
ATOM      8  C   UNL     1       5.290   6.240  16.967  0.00  0.00    +0.000 A 
ENDBRANCH   1   2
BRANCH   1   9
ATOM      9  O   UNL     1       5.312   2.977  16.603  0.00  0.00    +0.000 OA
ATOM     10  H   UNL     1       4.833   2.136  16.663  0.00  0.00    +0.000 HD
ENDBRANCH   1   9
BRANCH   1  11
ATOM     11  C   UNL     1       4.689   3.060  18.959  0.00  0.00    +0.000 C 
BRANCH  11  12
ATOM     12  N   UNL     1       3.333   2.744  19.451  0.00  0.00    +0.000 NA
ATOM     13  C   UNL     1       2.940   3.579  20.593  0.00  0.00    +0.000 C 
ATOM     14  C   UNL     1       1.551   3.202  21.112  0.00  0.00    +0.000 C 
ATOM     15  C   UNL     1       0.510   3.283  20.005  0.00  0.00    +0.000 C 
ATOM     16  C   UNL     1       0.952   2.442  18.814  0.00  0.00    +0.000 C 
ATOM     17  C   UNL     1       2.357   2.832  18.352  0.00  0.00    +0.000 C 
ENDBRANCH  11  12
ENDBRANCH   1  11
TORSDOF 4
ENDMDL
