MODEL 1
REMARK VINA RESULT:      -7.2      0.000      0.000
REMARK  Name = 
REMARK  11 active torsions:
REMARK  status: ('A' for Active; 'I' for Inactive)
REMARK    1  A    between atoms: C_2  and  C_3
REMARK    2  A    between atoms: C_7  and  C_8
REMARK    3  A    between atoms: C_8  and  N_9
REMARK    4  A    between atoms: C_13  and  C_14
REMARK    5  A    between atoms: C_14  and  C_15
REMARK    6  A    between atoms: C_15  and  C_16
REMARK    7  A    between atoms: C_19  and  O_20
REMARK    8  A    between atoms: C_22  and  O_23
REMARK    9  A    between atoms: C_24  and  C_25
REMARK   10  A    between atoms: C_25  and  O_27
REMARK   11  A    between atoms: O_27  and  C_28
REMARK                            x       y       z     vdW  Elec       q    Type
REMARK                         _______ _______ _______ _____ _____    ______ ____
ROOT
ATOM      1  C   UNL     1       3.979   4.040  17.109  0.00  0.00    +0.000 C 
ENDROOT
BRANCH   1   2
ATOM      2  C   UNL     1       5.249   4.729  17.636  0.00  0.00    +0.000 A 
ATOM      3  C   UNL     1       5.780   4.581  18.940  0.00  0.00    +0.000 A 
ATOM      4 CL   UNL     1       5.100   3.582  20.183  0.00  0.00    +0.000 Cl
ATOM      5  C   UNL     1       6.946   5.271  19.326  0.00  0.00    +0.000 A 
ATOM      6  C   UNL     1       7.614   6.123  18.466  0.00  0.00    +0.000 A 
ATOM      7  C   UNL     1       7.118   6.304  17.183  0.00  0.00    +0.000 A 
ATOM      8  C   UNL     1       5.964   5.609  16.745  0.00  0.00    +0.000 A 
BRANCH   5   9
ATOM      9  O   UNL     1       7.482   5.151  20.585  0.00  0.00    +0.000 OA
ATOM     10  H   UNL     1       7.957   4.299  20.615  0.00  0.00    +0.000 HD
ENDBRANCH   5   9
BRANCH   7  11
ATOM     11  O   UNL     1       7.751   7.211  16.378  0.00  0.00    +0.000 OA
ATOM     12  H   UNL     1       7.521   7.043  15.445  0.00  0.00    +0.000 HD
ENDBRANCH   7  11
BRANCH   8  13
ATOM     13  C   UNL     1       5.482   5.867  15.349  0.00  0.00    +0.000 C 
ATOM     14  O   UNL     1       5.019   6.931  14.973  0.00  0.00    +0.000 OA
BRANCH  13  15
ATOM     15  O   UNL     1       5.619   4.755  14.580  0.00  0.00    +0.000 OA
ATOM     16  C   UNL     1       6.907   4.616  13.973  0.00  0.00    +0.000 C 
ENDBRANCH  13  15
ENDBRANCH   8  13
ENDBRANCH   1   2
BRANCH   1  17
ATOM     17  C   UNL     1       2.576   4.669  17.248  0.00  0.00    +0.000 C 
BRANCH  17  22
ATOM     18  N   UNL     1       2.030   5.281  19.679  0.00  0.00    +0.000 N 
ATOM     19  C   UNL     1       1.343   4.692  20.712  0.00  0.00    +0.000 A 
ATOM     20  C   UNL     1       0.897   3.492  20.219  0.00  0.00    +0.000 A 
ATOM     21  N   UNL     1       1.287   3.334  18.919  0.00  0.00    +0.000 NA
ATOM     22  C   UNL     1       1.949   4.426  18.592  0.00  0.00    +0.000 A 
BRANCH  18  23
ATOM     23  C   UNL     1       2.844   6.486  19.829  0.00  0.00    +0.000 C 
BRANCH  23  28
ATOM     24  C   UNL     1       1.302   8.588  20.221  0.00  0.00    +0.000 A 
ATOM     25  C   UNL     1       0.785   9.673  19.440  0.00  0.00    +0.000 A 
ATOM     26  C   UNL     1       1.224   9.646  18.138  0.00  0.00    +0.000 A 
ATOM     27  S   UNL     1       2.284   8.350  17.855  0.00  0.00    +0.000 S 
ATOM     28  C   UNL     1       2.106   7.744  19.461  0.00  0.00    +0.000 A 
BRANCH  24  30
ATOM     29  C   UNL     1       0.367   9.287  22.390  0.00  0.00    +0.000 C 
ATOM     30  C   UNL     1       1.036   8.414  21.619  0.00  0.00    +0.000 C 
ENDBRANCH  24  30
ENDBRANCH  23  28
ENDBRANCH  18  23
ENDBRANCH  17  22
ENDBRANCH   1  17
TORSDOF 10
ENDMDL
MODEL 2
REMARK VINA RESULT:      -6.7      3.112      4.897
REMARK  Name = 
REMARK  11 active torsions:
REMARK  status: ('A' for Active; 'I' for Inactive)
REMARK    1  A    between atoms: C_2  and  C_3
REMARK    2  A    between atoms: C_7  and  C_8
REMARK    3  A    between atoms: C_8  and  N_9
REMARK    4  A    between atoms: C_13  and  C_14
REMARK    5  A    between atoms: C_14  and  C_15
REMARK    6  A    between atoms: C_15  and  C_16
REMARK    7  A    between atoms: C_19  and  O_20
REMARK    8  A    between atoms: C_22  and  O_23
REMARK    9  A    between atoms: C_24  and  C_25
REMARK   10  A    between atoms: C_25  and  O_27
REMARK   11  A    between atoms: O_27  and  C_28
REMARK                            x       y       z     vdW  Elec       q    Type
REMARK                         _______ _______ _______ _____ _____    ______ ____
ROOT
ATOM      1  C   UNL     1       2.338   6.469  17.715  0.00  0.00    +0.000 C 
ENDROOT
BRANCH   1   2
ATOM      2  C   UNL     1       3.673   5.714  17.825  0.00  0.00    +0.000 A 
ATOM      3  C   UNL     1       4.850   6.021  17.101  0.00  0.00    +0.000 A 
ATOM      4 CL   UNL     1       5.007   7.319  15.962  0.00  0.00    +0.000 Cl
ATOM      5  C   UNL     1       6.020   5.254  17.267  0.00  0.00    +0.000 A 
ATOM      6  C   UNL     1       6.072   4.171  18.124  0.00  0.00    +0.000 A 
ATOM      7  C   UNL     1       4.936   3.830  18.843  0.00  0.00    +0.000 A 
ATOM      8  C   UNL     1       3.747   4.591  18.727  0.00  0.00    +0.000 A 
BRANCH   5   9
ATOM      9  O   UNL     1       7.175   5.525  16.575  0.00  0.00    +0.000 OA
ATOM     10  H   UNL     1       7.546   4.671  16.286  0.00  0.00    +0.000 HD
ENDBRANCH   5   9
BRANCH   7  11
ATOM     11  O   UNL     1       4.990   2.708  19.625  0.00  0.00    +0.000 OA
ATOM     12  H   UNL     1       5.840   2.249  19.489  0.00  0.00    +0.000 HD
ENDBRANCH   7  11
BRANCH   8  13
ATOM     13  C   UNL     1       2.557   4.152  19.527  0.00  0.00    +0.000 C 
ATOM     14  O   UNL     1       1.555   3.653  19.041  0.00  0.00    +0.000 OA
BRANCH  13  15
ATOM     15  O   UNL     1       2.746   4.402  20.848  0.00  0.00    +0.000 OA
ATOM     16  C   UNL     1       2.148   3.439  21.720  0.00  0.00    +0.000 C 
ENDBRANCH  13  15
ENDBRANCH   8  13
ENDBRANCH   1   2
BRANCH   1  17
ATOM     17  C   UNL     1       2.224   7.990  17.950  0.00  0.00    +0.000 C 
BRANCH  17  22
ATOM     18  N   UNL     1       1.000   9.497  19.627  0.00  0.00    +0.000 N 
ATOM     19  C   UNL     1       0.710   9.444  20.969  0.00  0.00    +0.000 A 
ATOM     20  C   UNL     1       1.265   8.273  21.418  0.00  0.00    +0.000 A 
ATOM     21  N   UNL     1       1.879   7.610  20.395  0.00  0.00    +0.000 NA
ATOM     22  C   UNL     1       1.695   8.340  19.312  0.00  0.00    +0.000 A 
BRANCH  18  23
ATOM     23  C   UNL     1       0.770  10.675  18.794  0.00  0.00    +0.000 C 
BRANCH  23  28
ATOM     24  C   UNL     1      -1.782  10.862  18.162  0.00  0.00    +0.000 A 
ATOM     25  C   UNL     1      -2.916  11.632  18.583  0.00  0.00    +0.000 A 
ATOM     26  C   UNL     1      -2.621  12.492  19.614  0.00  0.00    +0.000 A 
ATOM     27  S   UNL     1      -1.002  12.352  20.109  0.00  0.00    +0.000 S 
ATOM     28  C   UNL     1      -0.639  11.192  18.883  0.00  0.00    +0.000 A 
BRANCH  24  30
ATOM     29  C   UNL     1      -2.660   9.885  16.078  0.00  0.00    +0.000 C 
ATOM     30  C   UNL     1      -1.835   9.861  17.138  0.00  0.00    +0.000 C 
ENDBRANCH  24  30
ENDBRANCH  23  28
ENDBRANCH  18  23
ENDBRANCH  17  22
ENDBRANCH   1  17
TORSDOF 10
ENDMDL
MODEL 3
REMARK VINA RESULT:      -6.6      2.824      4.243
REMARK  Name = 
REMARK  11 active torsions:
REMARK  status: ('A' for Active; 'I' for Inactive)
REMARK    1  A    between atoms: C_2  and  C_3
REMARK    2  A    between atoms: C_7  and  C_8
REMARK    3  A    between atoms: C_8  and  N_9
REMARK    4  A    between atoms: C_13  and  C_14
REMARK    5  A    between atoms: C_14  and  C_15
REMARK    6  A    between atoms: C_15  and  C_16
REMARK    7  A    between atoms: C_19  and  O_20
REMARK    8  A    between atoms: C_22  and  O_23
REMARK    9  A    between atoms: C_24  and  C_25
REMARK   10  A    between atoms: C_25  and  O_27
REMARK   11  A    between atoms: O_27  and  C_28
REMARK                            x       y       z     vdW  Elec       q    Type
REMARK                         _______ _______ _______ _____ _____    ______ ____
ROOT
ATOM      1  C   UNL     1       3.350   7.079  18.447  0.00  0.00    +0.000 C 
ENDROOT
BRANCH   1   2
ATOM      2  C   UNL     1       3.483   5.582  18.123  0.00  0.00    +0.000 A 
ATOM      3  C   UNL     1       2.682   4.551  18.671  0.00  0.00    +0.000 A 
ATOM      4 CL   UNL     1       1.390   4.791  19.803  0.00  0.00    +0.000 Cl
ATOM      5  C   UNL     1       2.897   3.204  18.317  0.00  0.00    +0.000 A 
ATOM      6  C   UNL     1       3.895   2.828  17.437  0.00  0.00    +0.000 A 
ATOM      7  C   UNL     1       4.709   3.807  16.887  0.00  0.00    +0.000 A 
ATOM      8  C   UNL     1       4.509   5.175  17.195  0.00  0.00    +0.000 A 
BRANCH   5   9
ATOM      9  O   UNL     1       2.139   2.184  18.835  0.00  0.00    +0.000 OA
ATOM     10  H   UNL     1       1.446   1.978  18.180  0.00  0.00    +0.000 HD
ENDBRANCH   5   9
BRANCH   7  11
ATOM     11  O   UNL     1       5.737   3.402  16.081  0.00  0.00    +0.000 OA
ATOM     12  H   UNL     1       6.430   2.973  16.618  0.00  0.00    +0.000 HD
ENDBRANCH   7  11
BRANCH   8  13
ATOM     13  C   UNL     1       5.438   6.173  16.572  0.00  0.00    +0.000 C 
ATOM     14  O   UNL     1       5.139   6.889  15.630  0.00  0.00    +0.000 OA
BRANCH  13  15
ATOM     15  O   UNL     1       6.649   6.153  17.187  0.00  0.00    +0.000 OA
ATOM     16  C   UNL     1       7.196   7.449  17.451  0.00  0.00    +0.000 C 
ENDBRANCH  13  15
ENDBRANCH   8  13
ENDBRANCH   1   2
BRANCH   1  17
ATOM     17  C   UNL     1       2.040   7.863  18.223  0.00  0.00    +0.000 C 
BRANCH  17  22
ATOM     18  N   UNL     1       0.720   9.620  19.547  0.00  0.00    +0.000 N 
ATOM     19  C   UNL     1       0.436   9.846  20.871  0.00  0.00    +0.000 A 
ATOM     20  C   UNL     1       1.067   8.841  21.558  0.00  0.00    +0.000 A 
ATOM     21  N   UNL     1       1.722   8.009  20.696  0.00  0.00    +0.000 NA
ATOM     22  C   UNL     1       1.490   8.470  19.483  0.00  0.00    +0.000 A 
BRANCH  18  23
ATOM     23  C   UNL     1       0.412  10.568  18.478  0.00  0.00    +0.000 C 
BRANCH  23  28
ATOM     24  C   UNL     1      -1.947  11.668  18.897  0.00  0.00    +0.000 A 
ATOM     25  C   UNL     1      -3.285  11.503  18.411  0.00  0.00    +0.000 A 
ATOM     26  C   UNL     1      -3.382  10.535  17.440  0.00  0.00    +0.000 A 
ATOM     27  S   UNL     1      -1.870   9.849  17.080  0.00  0.00    +0.000 S 
ATOM     28  C   UNL     1      -1.065  10.781  18.288  0.00  0.00    +0.000 A 
BRANCH  24  30
ATOM     29  C   UNL     1      -2.100  12.747  21.106  0.00  0.00    +0.000 C 
ATOM     30  C   UNL     1      -1.569  12.644  19.876  0.00  0.00    +0.000 C 
ENDBRANCH  24  30
ENDBRANCH  23  28
ENDBRANCH  18  23
ENDBRANCH  17  22
ENDBRANCH   1  17
TORSDOF 10
ENDMDL
MODEL 4
REMARK VINA RESULT:      -6.6      2.881      4.512
REMARK  Name = 
REMARK  11 active torsions:
REMARK  status: ('A' for Active; 'I' for Inactive)
REMARK    1  A    between atoms: C_2  and  C_3
REMARK    2  A    between atoms: C_7  and  C_8
REMARK    3  A    between atoms: C_8  and  N_9
REMARK    4  A    between atoms: C_13  and  C_14
REMARK    5  A    between atoms: C_14  and  C_15
REMARK    6  A    between atoms: C_15  and  C_16
REMARK    7  A    between atoms: C_19  and  O_20
REMARK    8  A    between atoms: C_22  and  O_23
REMARK    9  A    between atoms: C_24  and  C_25
REMARK   10  A    between atoms: C_25  and  O_27
REMARK   11  A    between atoms: O_27  and  C_28
REMARK                            x       y       z     vdW  Elec       q    Type
REMARK                         _______ _______ _______ _____ _____    ______ ____
ROOT
ATOM      1  C   UNL     1       3.267   7.067  18.677  0.00  0.00    +0.000 C 
ENDROOT
BRANCH   1   2
ATOM      2  C   UNL     1       3.388   5.588  18.275  0.00  0.00    +0.000 A 
ATOM      3  C   UNL     1       2.552   4.543  18.736  0.00  0.00    +0.000 A 
ATOM      4 CL   UNL     1       1.224   4.742  19.832  0.00  0.00    +0.000 Cl
ATOM      5  C   UNL     1       2.760   3.214  18.315  0.00  0.00    +0.000 A 
ATOM      6  C   UNL     1       3.783   2.869  17.451  0.00  0.00    +0.000 A 
ATOM      7  C   UNL     1       4.631   3.863  16.987  0.00  0.00    +0.000 A 
ATOM      8  C   UNL     1       4.442   5.216  17.363  0.00  0.00    +0.000 A 
BRANCH   5   9
ATOM      9  O   UNL     1       1.968   2.179  18.748  0.00  0.00    +0.000 OA
ATOM     10  H   UNL     1       1.273   2.566  19.314  0.00  0.00    +0.000 HD
ENDBRANCH   5   9
BRANCH   7  11
ATOM     11  O   UNL     1       5.683   3.485  16.196  0.00  0.00    +0.000 OA
ATOM     12  H   UNL     1       6.440   3.224  16.754  0.00  0.00    +0.000 HD
ENDBRANCH   7  11
BRANCH   8  13
ATOM     13  C   UNL     1       5.408   6.230  16.830  0.00  0.00    +0.000 C 
ATOM     14  O   UNL     1       5.376   6.672  15.693  0.00  0.00    +0.000 OA
BRANCH  13  15
ATOM     15  O   UNL     1       6.321   6.569  17.777  0.00  0.00    +0.000 OA
ATOM     16  C   UNL     1       7.466   7.261  17.269  0.00  0.00    +0.000 C 
ENDBRANCH  13  15
ENDBRANCH   8  13
ENDBRANCH   1   2
BRANCH   1  17
ATOM     17  C   UNL     1       1.955   7.864  18.519  0.00  0.00    +0.000 C 
BRANCH  17  22
ATOM     18  N   UNL     1       0.780   9.666  19.918  0.00  0.00    +0.000 N 
ATOM     19  C   UNL     1       0.538   9.872  21.254  0.00  0.00    +0.000 A 
ATOM     20  C   UNL     1       1.115   8.809  21.900  0.00  0.00    +0.000 A 
ATOM     21  N   UNL     1       1.698   7.961  21.002  0.00  0.00    +0.000 NA
ATOM     22  C   UNL     1       1.471   8.470  19.806  0.00  0.00    +0.000 A 
BRANCH  18  23
ATOM     23  C   UNL     1       0.514  10.661  18.882  0.00  0.00    +0.000 C 
BRANCH  23  28
ATOM     24  C   UNL     1      -1.985  10.804  18.055  0.00  0.00    +0.000 A 
ATOM     25  C   UNL     1      -3.171  11.527  18.410  0.00  0.00    +0.000 A 
ATOM     26  C   UNL     1      -2.985  12.353  19.493  0.00  0.00    +0.000 A 
ATOM     27  S   UNL     1      -1.407  12.238  20.111  0.00  0.00    +0.000 S 
ATOM     28  C   UNL     1      -0.914  11.137  18.877  0.00  0.00    +0.000 A 
BRANCH  24  30
ATOM     29  C   UNL     1      -2.686   9.871  15.886  0.00  0.00    +0.000 C 
ATOM     30  C   UNL     1      -1.926   9.843  16.994  0.00  0.00    +0.000 C 
ENDBRANCH  24  30
ENDBRANCH  23  28
ENDBRANCH  18  23
ENDBRANCH  17  22
ENDBRANCH   1  17
TORSDOF 10
ENDMDL
MODEL 5
REMARK VINA RESULT:      -6.6      2.935      4.550
REMARK  Name = 
REMARK  11 active torsions:
REMARK  status: ('A' for Active; 'I' for Inactive)
REMARK    1  A    between atoms: C_2  and  C_3
REMARK    2  A    between atoms: C_7  and  C_8
REMARK    3  A    between atoms: C_8  and  N_9
REMARK    4  A    between atoms: C_13  and  C_14
REMARK    5  A    between atoms: C_14  and  C_15
REMARK    6  A    between atoms: C_15  and  C_16
REMARK    7  A    between atoms: C_19  and  O_20
REMARK    8  A    between atoms: C_22  and  O_23
REMARK    9  A    between atoms: C_24  and  C_25
REMARK   10  A    between atoms: C_25  and  O_27
REMARK   11  A    between atoms: O_27  and  C_28
REMARK                            x       y       z     vdW  Elec       q    Type
REMARK                         _______ _______ _______ _____ _____    ______ ____
ROOT
ATOM      1  C   UNL     1       3.007   6.478  19.419  0.00  0.00    +0.000 C 
ENDROOT
BRANCH   1   2
ATOM      2  C   UNL     1       3.102   5.069  18.811  0.00  0.00    +0.000 A 
ATOM      3  C   UNL     1       2.241   3.987  19.114  0.00  0.00    +0.000 A 
ATOM      4 CL   UNL     1       0.909   4.055  20.222  0.00  0.00    +0.000 Cl
ATOM      5  C   UNL     1       2.425   2.727  18.508  0.00  0.00    +0.000 A 
ATOM      6  C   UNL     1       3.447   2.488  17.609  0.00  0.00    +0.000 A 
ATOM      7  C   UNL     1       4.318   3.520  17.294  0.00  0.00    +0.000 A 
ATOM      8  C   UNL     1       4.154   4.808  17.859  0.00  0.00    +0.000 A 
BRANCH   5   9
ATOM      9  O   UNL     1       1.609   1.659  18.786  0.00  0.00    +0.000 OA
ATOM     10  H   UNL     1       1.039   1.521  18.006  0.00  0.00    +0.000 HD
ENDBRANCH   5   9
BRANCH   7  11
ATOM     11  O   UNL     1       5.367   3.236  16.462  0.00  0.00    +0.000 OA
ATOM     12  H   UNL     1       5.807   2.415  16.751  0.00  0.00    +0.000 HD
ENDBRANCH   7  11
BRANCH   8  13
ATOM     13  C   UNL     1       5.144   5.868  17.480  0.00  0.00    +0.000 C 
ATOM     14  O   UNL     1       4.948   6.709  16.619  0.00  0.00    +0.000 OA
BRANCH  13  15
ATOM     15  O   UNL     1       6.282   5.746  18.213  0.00  0.00    +0.000 OA
ATOM     16  C   UNL     1       7.318   6.662  17.844  0.00  0.00    +0.000 C 
ENDBRANCH  13  15
ENDBRANCH   8  13
ENDBRANCH   1   2
BRANCH   1  17
ATOM     17  C   UNL     1       2.094   7.575  18.833  0.00  0.00    +0.000 C 
BRANCH  17  22
ATOM     18  N   UNL     1       1.170   9.810  19.690  0.00  0.00    +0.000 N 
ATOM     19  C   UNL     1       0.685  10.281  20.886  0.00  0.00    +0.000 A 
ATOM     20  C   UNL     1       0.773   9.227  21.759  0.00  0.00    +0.000 A 
ATOM     21  N   UNL     1       1.292   8.129  21.133  0.00  0.00    +0.000 NA
ATOM     22  C   UNL     1       1.507   8.479  19.880  0.00  0.00    +0.000 A 
BRANCH  18  23
ATOM     23  C   UNL     1       1.446  10.661  18.535  0.00  0.00    +0.000 C 
BRANCH  23  28
ATOM     24  C   UNL     1      -0.251  12.678  18.563  0.00  0.00    +0.000 A 
ATOM     25  C   UNL     1      -0.212  14.082  18.854  0.00  0.00    +0.000 A 
ATOM     26  C   UNL     1       1.032  14.506  19.258  0.00  0.00    +0.000 A 
ATOM     27  S   UNL     1       2.143  13.224  19.329  0.00  0.00    +0.000 S 
ATOM     28  C   UNL     1       0.995  12.083  18.732  0.00  0.00    +0.000 A 
BRANCH  24  30
ATOM     29  C   UNL     1      -2.524  11.809  18.941  0.00  0.00    +0.000 C 
ATOM     30  C   UNL     1      -1.439  11.979  18.169  0.00  0.00    +0.000 C 
ENDBRANCH  24  30
ENDBRANCH  23  28
ENDBRANCH  18  23
ENDBRANCH  17  22
ENDBRANCH   1  17
TORSDOF 10
ENDMDL
MODEL 6
REMARK VINA RESULT:      -6.6      2.754      4.045
REMARK  Name = 
REMARK  11 active torsions:
REMARK  status: ('A' for Active; 'I' for Inactive)
REMARK    1  A    between atoms: C_2  and  C_3
REMARK    2  A    between atoms: C_7  and  C_8
REMARK    3  A    between atoms: C_8  and  N_9
REMARK    4  A    between atoms: C_13  and  C_14
REMARK    5  A    between atoms: C_14  and  C_15
REMARK    6  A    between atoms: C_15  and  C_16
REMARK    7  A    between atoms: C_19  and  O_20
REMARK    8  A    between atoms: C_22  and  O_23
REMARK    9  A    between atoms: C_24  and  C_25
REMARK   10  A    between atoms: C_25  and  O_27
REMARK   11  A    between atoms: O_27  and  C_28
REMARK                            x       y       z     vdW  Elec       q    Type
REMARK                         _______ _______ _______ _____ _____    ______ ____
ROOT
ATOM      1  C   UNL     1       2.291   6.406  17.789  0.00  0.00    +0.000 C 
ENDROOT
BRANCH   1   2
ATOM      2  C   UNL     1       3.116   5.271  18.420  0.00  0.00    +0.000 A 
ATOM      3  C   UNL     1       2.631   4.333  19.363  0.00  0.00    +0.000 A 
ATOM      4 CL   UNL     1       1.009   4.283  19.973  0.00  0.00    +0.000 Cl
ATOM      5  C   UNL     1       3.478   3.338  19.892  0.00  0.00    +0.000 A 
ATOM      6  C   UNL     1       4.808   3.237  19.528  0.00  0.00    +0.000 A 
ATOM      7  C   UNL     1       5.324   4.145  18.615  0.00  0.00    +0.000 A 
ATOM      8  C   UNL     1       4.501   5.144  18.039  0.00  0.00    +0.000 A 
BRANCH   5   9
ATOM      9  O   UNL     1       3.037   2.418  20.811  0.00  0.00    +0.000 OA
ATOM     10  H   UNL     1       3.181   1.534  20.425  0.00  0.00    +0.000 HD
ENDBRANCH   5   9
BRANCH   7  11
ATOM     11  O   UNL     1       6.660   4.073  18.331  0.00  0.00    +0.000 OA
ATOM     12  H   UNL     1       6.797   3.572  17.505  0.00  0.00    +0.000 HD
ENDBRANCH   7  11
BRANCH   8  13
ATOM     13  C   UNL     1       5.135   6.096  17.070  0.00  0.00    +0.000 C 
ATOM     14  O   UNL     1       5.827   7.045  17.399  0.00  0.00    +0.000 OA
BRANCH  13  15
ATOM     15  O   UNL     1       4.817   5.764  15.791  0.00  0.00    +0.000 OA
ATOM     16  C   UNL     1       5.862   5.090  15.083  0.00  0.00    +0.000 C 
ENDBRANCH  13  15
ENDBRANCH   8  13
ENDBRANCH   1   2
BRANCH   1  17
ATOM     17  C   UNL     1       2.483   7.886  18.180  0.00  0.00    +0.000 C 
BRANCH  17  22
ATOM     18  N   UNL     1       1.029   9.407  19.647  0.00  0.00    +0.000 N 
ATOM     19  C   UNL     1       0.570   9.381  20.942  0.00  0.00    +0.000 A 
ATOM     20  C   UNL     1       1.083   8.233  21.489  0.00  0.00    +0.000 A 
ATOM     21  N   UNL     1       1.834   7.557  20.570  0.00  0.00    +0.000 NA
ATOM     22  C   UNL     1       1.778   8.258  19.454  0.00  0.00    +0.000 A 
BRANCH  18  23
ATOM     23  C   UNL     1       0.887  10.560  18.761  0.00  0.00    +0.000 C 
BRANCH  23  28
ATOM     24  C   UNL     1      -1.686  11.123  18.650  0.00  0.00    +0.000 A 
ATOM     25  C   UNL     1      -2.554  12.166  19.110  0.00  0.00    +0.000 A 
ATOM     26  C   UNL     1      -1.891  13.130  19.832  0.00  0.00    +0.000 A 
ATOM     27  S   UNL     1      -0.240  12.771  19.996  0.00  0.00    +0.000 S 
ATOM     28  C   UNL     1      -0.365  11.352  19.021  0.00  0.00    +0.000 A 
BRANCH  24  30
ATOM     29  C   UNL     1      -2.387   9.955  16.598  0.00  0.00    +0.000 C 
ATOM     30  C   UNL     1      -2.136   9.976  17.918  0.00  0.00    +0.000 C 
ENDBRANCH  24  30
ENDBRANCH  23  28
ENDBRANCH  18  23
ENDBRANCH  17  22
ENDBRANCH   1  17
TORSDOF 10
ENDMDL
MODEL 7
REMARK VINA RESULT:      -6.5      3.196      5.045
REMARK  Name = 
REMARK  11 active torsions:
REMARK  status: ('A' for Active; 'I' for Inactive)
REMARK    1  A    between atoms: C_2  and  C_3
REMARK    2  A    between atoms: C_7  and  C_8
REMARK    3  A    between atoms: C_8  and  N_9
REMARK    4  A    between atoms: C_13  and  C_14
REMARK    5  A    between atoms: C_14  and  C_15
REMARK    6  A    between atoms: C_15  and  C_16
REMARK    7  A    between atoms: C_19  and  O_20
REMARK    8  A    between atoms: C_22  and  O_23
REMARK    9  A    between atoms: C_24  and  C_25
REMARK   10  A    between atoms: C_25  and  O_27
REMARK   11  A    between atoms: O_27  and  C_28
REMARK                            x       y       z     vdW  Elec       q    Type
REMARK                         _______ _______ _______ _____ _____    ______ ____
ROOT
ATOM      1  C   UNL     1       2.035   6.044  17.929  0.00  0.00    +0.000 C 
ENDROOT
BRANCH   1   2
ATOM      2  C   UNL     1       3.000   4.864  17.724  0.00  0.00    +0.000 A 
ATOM      3  C   UNL     1       4.246   4.932  17.055  0.00  0.00    +0.000 A 
ATOM      4 CL   UNL     1       4.922   6.366  16.354  0.00  0.00    +0.000 Cl
ATOM      5  C   UNL     1       5.049   3.783  16.910  0.00  0.00    +0.000 A 
ATOM      6  C   UNL     1       4.660   2.549  17.396  0.00  0.00    +0.000 A 
ATOM      7  C   UNL     1       3.440   2.439  18.047  0.00  0.00    +0.000 A 
ATOM      8  C   UNL     1       2.614   3.574  18.239  0.00  0.00    +0.000 A 
BRANCH   5   9
ATOM      9  O   UNL     1       6.260   3.817  16.263  0.00  0.00    +0.000 OA
ATOM     10  H   UNL     1       6.076   3.787  15.306  0.00  0.00    +0.000 HD
ENDBRANCH   5   9
BRANCH   7  11
ATOM     11  O   UNL     1       3.043   1.193  18.450  0.00  0.00    +0.000 OA
ATOM     12  H   UNL     1       3.824   0.626  18.592  0.00  0.00    +0.000 HD
ENDBRANCH   7  11
BRANCH   8  13
ATOM     13  C   UNL     1       1.304   3.372  18.941  0.00  0.00    +0.000 C 
ATOM     14  O   UNL     1       0.345   2.806  18.444  0.00  0.00    +0.000 OA
BRANCH  13  15
ATOM     15  O   UNL     1       1.336   3.919  20.184  0.00  0.00    +0.000 OA
ATOM     16  C   UNL     1       1.373   2.960  21.246  0.00  0.00    +0.000 C 
ENDBRANCH  13  15
ENDBRANCH   8  13
ENDBRANCH   1   2
BRANCH   1  17
ATOM     17  C   UNL     1       2.522   7.453  18.331  0.00  0.00    +0.000 C 
BRANCH  17  22
ATOM     18  N   UNL     1       1.229   9.249  19.630  0.00  0.00    +0.000 N 
ATOM     19  C   UNL     1       0.716   9.368  20.898  0.00  0.00    +0.000 A 
ATOM     20  C   UNL     1       1.039   8.198  21.537  0.00  0.00    +0.000 A 
ATOM     21  N   UNL     1       1.729   7.370  20.698  0.00  0.00    +0.000 NA
ATOM     22  C   UNL     1       1.820   7.998  19.543  0.00  0.00    +0.000 A 
BRANCH  18  23
ATOM     23  C   UNL     1       1.289  10.350  18.672  0.00  0.00    +0.000 C 
BRANCH  23  28
ATOM     24  C   UNL     1      -1.186  11.205  18.358  0.00  0.00    +0.000 A 
ATOM     25  C   UNL     1      -1.945  12.374  18.691  0.00  0.00    +0.000 A 
ATOM     26  C   UNL     1      -1.210  13.302  19.390  0.00  0.00    +0.000 A 
ATOM     27  S   UNL     1       0.373  12.763  19.685  0.00  0.00    +0.000 S 
ATOM     28  C   UNL     1       0.130  11.302  18.798  0.00  0.00    +0.000 A 
BRANCH  24  30
ATOM     29  C   UNL     1      -3.040   9.786  17.572  0.00  0.00    +0.000 C 
ATOM     30  C   UNL     1      -1.731  10.069  17.673  0.00  0.00    +0.000 C 
ENDBRANCH  24  30
ENDBRANCH  23  28
ENDBRANCH  18  23
ENDBRANCH  17  22
ENDBRANCH   1  17
TORSDOF 10
ENDMDL
MODEL 8
REMARK VINA RESULT:      -6.5      2.876      4.068
REMARK  Name = 
REMARK  11 active torsions:
REMARK  status: ('A' for Active; 'I' for Inactive)
REMARK    1  A    between atoms: C_2  and  C_3
REMARK    2  A    between atoms: C_7  and  C_8
REMARK    3  A    between atoms: C_8  and  N_9
REMARK    4  A    between atoms: C_13  and  C_14
REMARK    5  A    between atoms: C_14  and  C_15
REMARK    6  A    between atoms: C_15  and  C_16
REMARK    7  A    between atoms: C_19  and  O_20
REMARK    8  A    between atoms: C_22  and  O_23
REMARK    9  A    between atoms: C_24  and  C_25
REMARK   10  A    between atoms: C_25  and  O_27
REMARK   11  A    between atoms: O_27  and  C_28
REMARK                            x       y       z     vdW  Elec       q    Type
REMARK                         _______ _______ _______ _____ _____    ______ ____
ROOT
ATOM      1  C   UNL     1       2.236   6.614  18.050  0.00  0.00    +0.000 C 
ENDROOT
BRANCH   1   2
ATOM      2  C   UNL     1       3.004   5.414  18.631  0.00  0.00    +0.000 A 
ATOM      3  C   UNL     1       2.531   4.556  19.653  0.00  0.00    +0.000 A 
ATOM      4 CL   UNL     1       0.988   4.692  20.432  0.00  0.00    +0.000 Cl
ATOM      5  C   UNL     1       3.324   3.491  20.124  0.00  0.00    +0.000 A 
ATOM      6  C   UNL     1       4.589   3.241  19.626  0.00  0.00    +0.000 A 
ATOM      7  C   UNL     1       5.093   4.067  18.632  0.00  0.00    +0.000 A 
ATOM      8  C   UNL     1       4.319   5.133  18.110  0.00  0.00    +0.000 A 
BRANCH   5   9
ATOM      9  O   UNL     1       2.894   2.645  21.117  0.00  0.00    +0.000 OA
ATOM     10  H   UNL     1       3.689   2.258  21.530  0.00  0.00    +0.000 HD
ENDBRANCH   5   9
BRANCH   7  11
ATOM     11  O   UNL     1       6.376   3.848  18.211  0.00  0.00    +0.000 OA
ATOM     12  H   UNL     1       6.369   3.415  17.337  0.00  0.00    +0.000 HD
ENDBRANCH   7  11
BRANCH   8  13
ATOM     13  C   UNL     1       4.937   5.989  17.046  0.00  0.00    +0.000 C 
ATOM     14  O   UNL     1       5.471   7.065  17.261  0.00  0.00    +0.000 OA
BRANCH  13  15
ATOM     15  O   UNL     1       4.804   5.409  15.825  0.00  0.00    +0.000 OA
ATOM     16  C   UNL     1       6.021   5.333  15.075  0.00  0.00    +0.000 C 
ENDBRANCH  13  15
ENDBRANCH   8  13
ENDBRANCH   1   2
BRANCH   1  17
ATOM     17  C   UNL     1       2.482   8.062  18.521  0.00  0.00    +0.000 C 
BRANCH  17  22
ATOM     18  N   UNL     1       0.630   9.488  19.579  0.00  0.00    +0.000 N 
ATOM     19  C   UNL     1       0.033   9.568  20.813  0.00  0.00    +0.000 A 
ATOM     20  C   UNL     1       0.663   8.627  21.587  0.00  0.00    +0.000 A 
ATOM     21  N   UNL     1       1.620   7.974  20.864  0.00  0.00    +0.000 NA
ATOM     22  C   UNL     1       1.579   8.481  19.647  0.00  0.00    +0.000 A 
BRANCH  18  23
ATOM     23  C   UNL     1       0.404  10.452  18.505  0.00  0.00    +0.000 C 
BRANCH  23  28
ATOM     24  C   UNL     1      -1.851  11.765  18.882  0.00  0.00    +0.000 A 
ATOM     25  C   UNL     1      -3.201  11.696  18.405  0.00  0.00    +0.000 A 
ATOM     26  C   UNL     1      -3.384  10.702  17.474  0.00  0.00    +0.000 A 
ATOM     27  S   UNL     1      -1.939   9.876  17.139  0.00  0.00    +0.000 S 
ATOM     28  C   UNL     1      -1.051  10.782  18.308  0.00  0.00    +0.000 A 
BRANCH  24  30
ATOM     29  C   UNL     1      -1.837  12.879  21.079  0.00  0.00    +0.000 C 
ATOM     30  C   UNL     1      -1.387  12.744  19.821  0.00  0.00    +0.000 C 
ENDBRANCH  24  30
ENDBRANCH  23  28
ENDBRANCH  18  23
ENDBRANCH  17  22
ENDBRANCH   1  17
TORSDOF 10
ENDMDL
MODEL 9
REMARK VINA RESULT:      -6.5      2.886      4.665
REMARK  Name = 
REMARK  11 active torsions:
REMARK  status: ('A' for Active; 'I' for Inactive)
REMARK    1  A    between atoms: C_2  and  C_3
REMARK    2  A    between atoms: C_7  and  C_8
REMARK    3  A    between atoms: C_8  and  N_9
REMARK    4  A    between atoms: C_13  and  C_14
REMARK    5  A    between atoms: C_14  and  C_15
REMARK    6  A    between atoms: C_15  and  C_16
REMARK    7  A    between atoms: C_19  and  O_20
REMARK    8  A    between atoms: C_22  and  O_23
REMARK    9  A    between atoms: C_24  and  C_25
REMARK   10  A    between atoms: C_25  and  O_27
REMARK   11  A    between atoms: O_27  and  C_28
REMARK                            x       y       z     vdW  Elec       q    Type
REMARK                         _______ _______ _______ _____ _____    ______ ____
ROOT
ATOM      1  C   UNL     1       3.043   6.025  20.084  0.00  0.00    +0.000 C 
ENDROOT
BRANCH   1   2
ATOM      2  C   UNL     1       3.091   4.743  19.235  0.00  0.00    +0.000 A 
ATOM      3  C   UNL     1       2.168   3.672  19.316  0.00  0.00    +0.000 A 
ATOM      4 CL   UNL     1       0.803   3.614  20.383  0.00  0.00    +0.000 Cl
ATOM      5  C   UNL     1       2.312   2.533  18.498  0.00  0.00    +0.000 A 
ATOM      6  C   UNL     1       3.353   2.403  17.598  0.00  0.00    +0.000 A 
ATOM      7  C   UNL     1       4.284   3.426  17.497  0.00  0.00    +0.000 A 
ATOM      8  C   UNL     1       4.162   4.600  18.280  0.00  0.00    +0.000 A 
BRANCH   5   9
ATOM      9  O   UNL     1       1.436   1.478  18.558  0.00  0.00    +0.000 OA
ATOM     10  H   UNL     1       0.911   1.585  19.373  0.00  0.00    +0.000 HD
ENDBRANCH   5   9
BRANCH   7  11
ATOM     11  O   UNL     1       5.347   3.239  16.655  0.00  0.00    +0.000 OA
ATOM     12  H   UNL     1       5.988   3.966  16.765  0.00  0.00    +0.000 HD
ENDBRANCH   7  11
BRANCH   8  13
ATOM     13  C   UNL     1       5.215   5.656  18.124  0.00  0.00    +0.000 C 
ATOM     14  O   UNL     1       5.229   6.479  17.223  0.00  0.00    +0.000 OA
BRANCH  13  15
ATOM     15  O   UNL     1       6.148   5.553  19.106  0.00  0.00    +0.000 OA
ATOM     16  C   UNL     1       7.494   5.460  18.630  0.00  0.00    +0.000 C 
ENDBRANCH  13  15
ENDBRANCH   8  13
ENDBRANCH   1   2
BRANCH   1  17
ATOM     17  C   UNL     1       1.791   6.923  20.160  0.00  0.00    +0.000 C 
BRANCH  17  22
ATOM     18  N   UNL     1       1.173   9.310  19.451  0.00  0.00    +0.000 N 
ATOM     19  C   UNL     1       1.507  10.147  18.415  0.00  0.00    +0.000 A 
ATOM     20  C   UNL     1       2.371   9.429  17.628  0.00  0.00    +0.000 A 
ATOM     21  N   UNL     1       2.576   8.185  18.152  0.00  0.00    +0.000 NA
ATOM     22  C   UNL     1       1.870   8.127  19.265  0.00  0.00    +0.000 A 
BRANCH  18  23
ATOM     23  C   UNL     1       0.116   9.599  20.418  0.00  0.00    +0.000 C 
BRANCH  23  28
ATOM     24  C   UNL     1      -1.686  10.945  19.045  0.00  0.00    +0.000 A 
ATOM     25  C   UNL     1      -2.222  12.275  19.032  0.00  0.00    +0.000 A 
ATOM     26  C   UNL     1      -1.684  13.073  20.014  0.00  0.00    +0.000 A 
ATOM     27  S   UNL     1      -0.571  12.226  20.976  0.00  0.00    +0.000 S 
ATOM     28  C   UNL     1      -0.722  10.788  20.035  0.00  0.00    +0.000 A 
BRANCH  24  30
ATOM     29  C   UNL     1      -2.956  10.073  17.122  0.00  0.00    +0.000 C 
ATOM     30  C   UNL     1      -2.115   9.906  18.156  0.00  0.00    +0.000 C 
ENDBRANCH  24  30
ENDBRANCH  23  28
ENDBRANCH  18  23
ENDBRANCH  17  22
ENDBRANCH   1  17
TORSDOF 10
ENDMDL
