MODEL 1
REMARK VINA RESULT:      -5.9      0.000      0.000
REMARK  Name = 
REMARK  11 active torsions:
REMARK  status: ('A' for Active; 'I' for Inactive)
REMARK    1  A    between atoms: C_1  and  O_2
REMARK    2  A    between atoms: O_2  and  C_3
REMARK    3  A    between atoms: C_3  and  C_4
REMARK    4  A    between atoms: C_4  and  N_5
REMARK    5  A    between atoms: C_6  and  C_8
REMARK    6  A    between atoms: C_8  and  S_9
REMARK    7  A    between atoms: S_9  and  C_10
REMARK    8  A    between atoms: C_13  and  O_14
REMARK    9  A    between atoms: O_14  and  C_15
REMARK   10  A    between atoms: C_15  and  C_16
REMARK   11  A    between atoms: C_15  and  C_17
REMARK                            x       y       z     vdW  Elec       q    Type
REMARK                         _______ _______ _______ _____ _____    ______ ____
ROOT
ATOM      1  S   UNL     1       6.047   5.845  17.191  0.00  0.00    +0.000 S 
ENDROOT
BRANCH   1   2
ATOM      2  C   UNL     1       6.518   5.299  15.595  0.00  0.00    +0.000 A 
ATOM      3  N   UNL     1       7.656   5.631  15.025  0.00  0.00    +0.000 NA
ATOM      4  N   UNL     1       7.768   5.111  13.746  0.00  0.00    +0.000 NA
ATOM      5  C   UNL     1       6.706   4.414  13.400  0.00  0.00    +0.000 A 
ATOM      6  S   UNL     1       5.509   4.307  14.623  0.00  0.00    +0.000 S 
BRANCH   5   7
ATOM      7  O   UNL     1       6.515   3.856  12.202  0.00  0.00    +0.000 OA
BRANCH   7   8
ATOM      8  C   UNL     1       5.531   2.819  12.124  0.00  0.00    +0.000 C 
ATOM      9  C   UNL     1       4.356   3.336  11.300  0.00  0.00    +0.000 C 
ATOM     10  C   UNL     1       6.167   1.617  11.427  0.00  0.00    +0.000 C 
ENDBRANCH   7   8
ENDBRANCH   5   7
ENDBRANCH   1   2
BRANCH   1  11
ATOM     11  C   UNL     1       6.280   4.320  18.149  0.00  0.00    +0.000 C 
BRANCH  11  13
ATOM     12  N   UNL     1       3.841   4.523  18.312  0.00  0.00    +0.000 N 
ATOM     13  C   UNL     1       4.968   3.863  18.770  0.00  0.00    +0.000 C 
ATOM     14  O   UNL     1       4.927   3.023  19.662  0.00  0.00    +0.000 OA
ATOM     15  H   UNL     1       3.890   4.941  17.387  0.00  0.00    +0.000 HD
BRANCH  12  16
ATOM     16  C   UNL     1       2.522   4.111  18.770  0.00  0.00    +0.000 C 
BRANCH  16  17
ATOM     17  C   UNL     1       2.042   4.923  19.972  0.00  0.00    +0.000 C 
BRANCH  17  19
ATOM     18  C   UNL     1       1.515   3.001  21.239  0.00  0.00    +0.000 C 
ATOM     19  O   UNL     1       1.012   4.194  20.650  0.00  0.00    +0.000 OA
ENDBRANCH  17  19
ENDBRANCH  16  17
ENDBRANCH  12  16
ENDBRANCH  11  13
ENDBRANCH   1  11
TORSDOF 8
ENDMDL
MODEL 2
REMARK VINA RESULT:      -5.8      1.080      1.167
REMARK  Name = 
REMARK  11 active torsions:
REMARK  status: ('A' for Active; 'I' for Inactive)
REMARK    1  A    between atoms: C_1  and  O_2
REMARK    2  A    between atoms: O_2  and  C_3
REMARK    3  A    between atoms: C_3  and  C_4
REMARK    4  A    between atoms: C_4  and  N_5
REMARK    5  A    between atoms: C_6  and  C_8
REMARK    6  A    between atoms: C_8  and  S_9
REMARK    7  A    between atoms: S_9  and  C_10
REMARK    8  A    between atoms: C_13  and  O_14
REMARK    9  A    between atoms: O_14  and  C_15
REMARK   10  A    between atoms: C_15  and  C_16
REMARK   11  A    between atoms: C_15  and  C_17
REMARK                            x       y       z     vdW  Elec       q    Type
REMARK                         _______ _______ _______ _____ _____    ______ ____
ROOT
ATOM      1  S   UNL     1       7.109   5.204  17.022  0.00  0.00    +0.000 S 
ENDROOT
BRANCH   1   2
ATOM      2  C   UNL     1       7.118   4.927  15.293  0.00  0.00    +0.000 A 
ATOM      3  N   UNL     1       7.893   5.589  14.460  0.00  0.00    +0.000 NA
ATOM      4  N   UNL     1       7.675   5.219  13.144  0.00  0.00    +0.000 NA
ATOM      5  C   UNL     1       6.739   4.298  13.035  0.00  0.00    +0.000 A 
ATOM      6  S   UNL     1       6.084   3.787  14.535  0.00  0.00    +0.000 S 
BRANCH   5   7
ATOM      7  O   UNL     1       6.281   3.805  11.882  0.00  0.00    +0.000 OA
BRANCH   7   8
ATOM      8  C   UNL     1       5.321   2.746  11.970  0.00  0.00    +0.000 C 
ATOM      9  C   UNL     1       4.065   3.178  11.221  0.00  0.00    +0.000 C 
ATOM     10  C   UNL     1       5.924   1.509  11.308  0.00  0.00    +0.000 C 
ENDBRANCH   7   8
ENDBRANCH   5   7
ENDBRANCH   1   2
BRANCH   1  11
ATOM     11  C   UNL     1       5.334   5.064  17.375  0.00  0.00    +0.000 C 
BRANCH  11  13
ATOM     12  N   UNL     1       3.934   3.277  18.307  0.00  0.00    +0.000 N 
ATOM     13  C   UNL     1       5.078   4.039  18.471  0.00  0.00    +0.000 C 
ATOM     14  O   UNL     1       5.797   3.950  19.460  0.00  0.00    +0.000 OA
ATOM     15  H   UNL     1       3.584   3.162  17.359  0.00  0.00    +0.000 HD
BRANCH  12  16
ATOM     16  C   UNL     1       3.633   2.207  19.245  0.00  0.00    +0.000 C 
BRANCH  16  17
ATOM     17  C   UNL     1       2.882   2.706  20.479  0.00  0.00    +0.000 C 
BRANCH  17  19
ATOM     18  C   UNL     1       0.802   3.776  20.156  0.00  0.00    +0.000 C 
ATOM     19  O   UNL     1       2.215   3.933  20.158  0.00  0.00    +0.000 OA
ENDBRANCH  17  19
ENDBRANCH  16  17
ENDBRANCH  12  16
ENDBRANCH  11  13
ENDBRANCH   1  11
TORSDOF 8
ENDMDL
MODEL 3
REMARK VINA RESULT:      -5.8      1.124      1.207
REMARK  Name = 
REMARK  11 active torsions:
REMARK  status: ('A' for Active; 'I' for Inactive)
REMARK    1  A    between atoms: C_1  and  O_2
REMARK    2  A    between atoms: O_2  and  C_3
REMARK    3  A    between atoms: C_3  and  C_4
REMARK    4  A    between atoms: C_4  and  N_5
REMARK    5  A    between atoms: C_6  and  C_8
REMARK    6  A    between atoms: C_8  and  S_9
REMARK    7  A    between atoms: S_9  and  C_10
REMARK    8  A    between atoms: C_13  and  O_14
REMARK    9  A    between atoms: O_14  and  C_15
REMARK   10  A    between atoms: C_15  and  C_16
REMARK   11  A    between atoms: C_15  and  C_17
REMARK                            x       y       z     vdW  Elec       q    Type
REMARK                         _______ _______ _______ _____ _____    ______ ____
ROOT
ATOM      1  S   UNL     1       6.501   5.234  17.589  0.00  0.00    +0.000 S 
ENDROOT
BRANCH   1   2
ATOM      2  C   UNL     1       6.811   5.010  15.879  0.00  0.00    +0.000 A 
ATOM      3  N   UNL     1       7.665   5.743  15.198  0.00  0.00    +0.000 NA
ATOM      4  N   UNL     1       7.690   5.399  13.857  0.00  0.00    +0.000 NA
ATOM      5  C   UNL     1       6.849   4.425  13.579  0.00  0.00    +0.000 A 
ATOM      6  S   UNL     1       5.993   3.829  14.940  0.00  0.00    +0.000 S 
BRANCH   5   7
ATOM      7  O   UNL     1       6.619   3.939  12.357  0.00  0.00    +0.000 OA
BRANCH   7   8
ATOM      8  C   UNL     1       5.659   2.881  12.254  0.00  0.00    +0.000 C 
ATOM      9  C   UNL     1       4.402   3.439  11.596  0.00  0.00    +0.000 C 
ATOM     10  C   UNL     1       6.261   1.782  11.380  0.00  0.00    +0.000 C 
ENDBRANCH   7   8
ENDBRANCH   5   7
ENDBRANCH   1   2
BRANCH   1  11
ATOM     11  C   UNL     1       5.213   3.984  17.863  0.00  0.00    +0.000 C 
BRANCH  11  13
ATOM     12  N   UNL     1       3.723   5.031  19.506  0.00  0.00    +0.000 N 
ATOM     13  C   UNL     1       3.880   4.640  18.188  0.00  0.00    +0.000 C 
ATOM     14  O   UNL     1       2.987   4.747  17.355  0.00  0.00    +0.000 OA
ATOM     15  H   UNL     1       4.568   5.219  20.039  0.00  0.00    +0.000 HD
BRANCH  12  16
ATOM     16  C   UNL     1       2.525   5.748  19.914  0.00  0.00    +0.000 C 
BRANCH  16  17
ATOM     17  C   UNL     1       1.579   4.879  20.744  0.00  0.00    +0.000 C 
BRANCH  17  19
ATOM     18  C   UNL     1       1.342   2.720  21.671  0.00  0.00    +0.000 C 
ATOM     19  O   UNL     1       2.233   3.645  21.062  0.00  0.00    +0.000 OA
ENDBRANCH  17  19
ENDBRANCH  16  17
ENDBRANCH  12  16
ENDBRANCH  11  13
ENDBRANCH   1  11
TORSDOF 8
ENDMDL
MODEL 4
REMARK VINA RESULT:      -5.7      1.720      7.273
REMARK  Name = 
REMARK  11 active torsions:
REMARK  status: ('A' for Active; 'I' for Inactive)
REMARK    1  A    between atoms: C_1  and  O_2
REMARK    2  A    between atoms: O_2  and  C_3
REMARK    3  A    between atoms: C_3  and  C_4
REMARK    4  A    between atoms: C_4  and  N_5
REMARK    5  A    between atoms: C_6  and  C_8
REMARK    6  A    between atoms: C_8  and  S_9
REMARK    7  A    between atoms: S_9  and  C_10
REMARK    8  A    between atoms: C_13  and  O_14
REMARK    9  A    between atoms: O_14  and  C_15
REMARK   10  A    between atoms: C_15  and  C_16
REMARK   11  A    between atoms: C_15  and  C_17
REMARK                            x       y       z     vdW  Elec       q    Type
REMARK                         _______ _______ _______ _____ _____    ______ ____
ROOT
ATOM      1  S   UNL     1       6.252   5.982  16.890  0.00  0.00    +0.000 S 
ENDROOT
BRANCH   1   2
ATOM      2  C   UNL     1       4.802   5.333  17.627  0.00  0.00    +0.000 A 
ATOM      3  N   UNL     1       3.744   4.965  16.937  0.00  0.00    +0.000 NA
ATOM      4  N   UNL     1       2.715   4.533  17.756  0.00  0.00    +0.000 NA
ATOM      5  C   UNL     1       3.034   4.600  19.032  0.00  0.00    +0.000 A 
ATOM      6  S   UNL     1       4.630   5.156  19.325  0.00  0.00    +0.000 S 
BRANCH   5   7
ATOM      7  O   UNL     1       2.212   4.309  20.043  0.00  0.00    +0.000 OA
BRANCH   7   8
ATOM      8  C   UNL     1       1.882   2.928  20.228  0.00  0.00    +0.000 C 
ATOM      9  C   UNL     1       1.576   2.705  21.705  0.00  0.00    +0.000 C 
ATOM     10  C   UNL     1       0.645   2.622  19.387  0.00  0.00    +0.000 C 
ENDBRANCH   7   8
ENDBRANCH   5   7
ENDBRANCH   1   2
BRANCH   1  11
ATOM     11  C   UNL     1       6.948   4.481  16.141  0.00  0.00    +0.000 C 
BRANCH  11  13
ATOM     12  N   UNL     1       6.524   3.615  13.885  0.00  0.00    +0.000 N 
ATOM     13  C   UNL     1       7.080   4.638  14.633  0.00  0.00    +0.000 C 
ATOM     14  O   UNL     1       7.698   5.569  14.127  0.00  0.00    +0.000 OA
ATOM     15  H   UNL     1       5.774   3.080  14.315  0.00  0.00    +0.000 HD
BRANCH  12  16
ATOM     16  C   UNL     1       6.513   3.700  12.433  0.00  0.00    +0.000 C 
BRANCH  16  17
ATOM     17  C   UNL     1       5.464   2.785  11.803  0.00  0.00    +0.000 C 
BRANCH  17  19
ATOM     18  C   UNL     1       3.454   3.140  10.615  0.00  0.00    +0.000 C 
ATOM     19  O   UNL     1       4.202   3.464  11.780  0.00  0.00    +0.000 OA
ENDBRANCH  17  19
ENDBRANCH  16  17
ENDBRANCH  12  16
ENDBRANCH  11  13
ENDBRANCH   1  11
TORSDOF 8
ENDMDL
MODEL 5
REMARK VINA RESULT:      -5.6      1.715      7.104
REMARK  Name = 
REMARK  11 active torsions:
REMARK  status: ('A' for Active; 'I' for Inactive)
REMARK    1  A    between atoms: C_1  and  O_2
REMARK    2  A    between atoms: O_2  and  C_3
REMARK    3  A    between atoms: C_3  and  C_4
REMARK    4  A    between atoms: C_4  and  N_5
REMARK    5  A    between atoms: C_6  and  C_8
REMARK    6  A    between atoms: C_8  and  S_9
REMARK    7  A    between atoms: S_9  and  C_10
REMARK    8  A    between atoms: C_13  and  O_14
REMARK    9  A    between atoms: O_14  and  C_15
REMARK   10  A    between atoms: C_15  and  C_16
REMARK   11  A    between atoms: C_15  and  C_17
REMARK                            x       y       z     vdW  Elec       q    Type
REMARK                         _______ _______ _______ _____ _____    ______ ____
ROOT
ATOM      1  S   UNL     1       7.131   4.566  17.235  0.00  0.00    +0.000 S 
ENDROOT
BRANCH   1   2
ATOM      2  C   UNL     1       5.617   4.687  18.108  0.00  0.00    +0.000 A 
ATOM      3  N   UNL     1       5.507   5.266  19.284  0.00  0.00    +0.000 NA
ATOM      4  N   UNL     1       4.217   5.187  19.782  0.00  0.00    +0.000 NA
ATOM      5  C   UNL     1       3.409   4.544  18.966  0.00  0.00    +0.000 A 
ATOM      6  S   UNL     1       4.152   4.024  17.510  0.00  0.00    +0.000 S 
BRANCH   5   7
ATOM      7  O   UNL     1       2.128   4.263  19.221  0.00  0.00    +0.000 OA
BRANCH   7   8
ATOM      8  C   UNL     1       1.837   2.938  19.678  0.00  0.00    +0.000 C 
ATOM      9  C   UNL     1       1.267   3.035  21.089  0.00  0.00    +0.000 C 
ATOM     10  C   UNL     1       0.799   2.332  18.736  0.00  0.00    +0.000 C 
ENDBRANCH   7   8
ENDBRANCH   5   7
ENDBRANCH   1   2
BRANCH   1  11
ATOM     11  C   UNL     1       6.847   5.767  15.903  0.00  0.00    +0.000 C 
BRANCH  11  13
ATOM     12  N   UNL     1       6.207   4.040  14.283  0.00  0.00    +0.000 N 
ATOM     13  C   UNL     1       7.034   5.120  14.539  0.00  0.00    +0.000 C 
ATOM     14  O   UNL     1       7.905   5.487  13.758  0.00  0.00    +0.000 OA
ATOM     15  H   UNL     1       5.328   3.998  14.792  0.00  0.00    +0.000 HD
BRANCH  12  16
ATOM     16  C   UNL     1       6.235   3.397  12.978  0.00  0.00    +0.000 C 
BRANCH  16  17
ATOM     17  C   UNL     1       4.893   3.489  12.253  0.00  0.00    +0.000 C 
BRANCH  17  19
ATOM     18  C   UNL     1       5.955   1.597  11.319  0.00  0.00    +0.000 C 
ATOM     19  O   UNL     1       4.827   2.461  11.258  0.00  0.00    +0.000 OA
ENDBRANCH  17  19
ENDBRANCH  16  17
ENDBRANCH  12  16
ENDBRANCH  11  13
ENDBRANCH   1  11
TORSDOF 8
ENDMDL
MODEL 6
REMARK VINA RESULT:      -5.6      1.171      1.200
REMARK  Name = 
REMARK  11 active torsions:
REMARK  status: ('A' for Active; 'I' for Inactive)
REMARK    1  A    between atoms: C_1  and  O_2
REMARK    2  A    between atoms: O_2  and  C_3
REMARK    3  A    between atoms: C_3  and  C_4
REMARK    4  A    between atoms: C_4  and  N_5
REMARK    5  A    between atoms: C_6  and  C_8
REMARK    6  A    between atoms: C_8  and  S_9
REMARK    7  A    between atoms: S_9  and  C_10
REMARK    8  A    between atoms: C_13  and  O_14
REMARK    9  A    between atoms: O_14  and  C_15
REMARK   10  A    between atoms: C_15  and  C_16
REMARK   11  A    between atoms: C_15  and  C_17
REMARK                            x       y       z     vdW  Elec       q    Type
REMARK                         _______ _______ _______ _____ _____    ______ ____
ROOT
ATOM      1  S   UNL     1       6.272   5.869  16.735  0.00  0.00    +0.000 S 
ENDROOT
BRANCH   1   2
ATOM      2  C   UNL     1       6.664   5.265  15.138  0.00  0.00    +0.000 A 
ATOM      3  N   UNL     1       7.696   5.688  14.440  0.00  0.00    +0.000 NA
ATOM      4  N   UNL     1       7.759   5.091  13.192  0.00  0.00    +0.000 NA
ATOM      5  C   UNL     1       6.767   4.247  12.996  0.00  0.00    +0.000 A 
ATOM      6  S   UNL     1       5.707   4.089  14.335  0.00  0.00    +0.000 S 
BRANCH   5   7
ATOM      7  O   UNL     1       6.542   3.581  11.861  0.00  0.00    +0.000 OA
BRANCH   7   8
ATOM      8  C   UNL     1       5.505   2.594  11.887  0.00  0.00    +0.000 C 
ATOM      9  C   UNL     1       4.303   3.144  11.128  0.00  0.00    +0.000 C 
ATOM     10  C   UNL     1       6.031   1.340  11.191  0.00  0.00    +0.000 C 
ENDBRANCH   7   8
ENDBRANCH   5   7
ENDBRANCH   1   2
BRANCH   1  11
ATOM     11  C   UNL     1       6.783   4.461  17.761  0.00  0.00    +0.000 C 
BRANCH  11  13
ATOM     12  N   UNL     1       4.800   3.383  18.722  0.00  0.00    +0.000 N 
ATOM     13  C   UNL     1       5.836   4.275  18.937  0.00  0.00    +0.000 C 
ATOM     14  O   UNL     1       5.947   4.924  19.972  0.00  0.00    +0.000 OA
ATOM     15  H   UNL     1       4.945   2.663  18.019  0.00  0.00    +0.000 HD
BRANCH  12  16
ATOM     16  C   UNL     1       3.883   3.059  19.804  0.00  0.00    +0.000 C 
BRANCH  16  17
ATOM     17  C   UNL     1       2.540   2.536  19.295  0.00  0.00    +0.000 C 
BRANCH  17  19
ATOM     18  C   UNL     1       2.134   2.885  21.595  0.00  0.00    +0.000 C 
ATOM     19  O   UNL     1       1.706   2.218  20.415  0.00  0.00    +0.000 OA
ENDBRANCH  17  19
ENDBRANCH  16  17
ENDBRANCH  12  16
ENDBRANCH  11  13
ENDBRANCH   1  11
TORSDOF 8
ENDMDL
MODEL 7
REMARK VINA RESULT:      -5.6      1.449      1.806
REMARK  Name = 
REMARK  11 active torsions:
REMARK  status: ('A' for Active; 'I' for Inactive)
REMARK    1  A    between atoms: C_1  and  O_2
REMARK    2  A    between atoms: O_2  and  C_3
REMARK    3  A    between atoms: C_3  and  C_4
REMARK    4  A    between atoms: C_4  and  N_5
REMARK    5  A    between atoms: C_6  and  C_8
REMARK    6  A    between atoms: C_8  and  S_9
REMARK    7  A    between atoms: S_9  and  C_10
REMARK    8  A    between atoms: C_13  and  O_14
REMARK    9  A    between atoms: O_14  and  C_15
REMARK   10  A    between atoms: C_15  and  C_16
REMARK   11  A    between atoms: C_15  and  C_17
REMARK                            x       y       z     vdW  Elec       q    Type
REMARK                         _______ _______ _______ _____ _____    ______ ____
ROOT
ATOM      1  S   UNL     1       5.623   6.640  17.667  0.00  0.00    +0.000 S 
ENDROOT
BRANCH   1   2
ATOM      2  C   UNL     1       6.171   5.655  16.327  0.00  0.00    +0.000 A 
ATOM      3  N   UNL     1       7.256   5.921  15.632  0.00  0.00    +0.000 NA
ATOM      4  N   UNL     1       7.444   5.021  14.597  0.00  0.00    +0.000 NA
ATOM      5  C   UNL     1       6.488   4.117  14.547  0.00  0.00    +0.000 A 
ATOM      6  S   UNL     1       5.311   4.273  15.784  0.00  0.00    +0.000 S 
BRANCH   5   7
ATOM      7  O   UNL     1       6.380   3.168  13.613  0.00  0.00    +0.000 OA
BRANCH   7   8
ATOM      8  C   UNL     1       6.256   3.610  12.257  0.00  0.00    +0.000 C 
ATOM      9  C   UNL     1       7.199   2.777  11.395  0.00  0.00    +0.000 C 
ATOM     10  C   UNL     1       4.810   3.382  11.818  0.00  0.00    +0.000 C 
ENDBRANCH   7   8
ENDBRANCH   5   7
ENDBRANCH   1   2
BRANCH   1  11
ATOM     11  C   UNL     1       4.952   5.363  18.769  0.00  0.00    +0.000 C 
BRANCH  11  13
ATOM     12  N   UNL     1       2.835   4.150  18.512  0.00  0.00    +0.000 N 
ATOM     13  C   UNL     1       3.431   5.376  18.753  0.00  0.00    +0.000 C 
ATOM     14  O   UNL     1       2.787   6.413  18.875  0.00  0.00    +0.000 OA
ATOM     15  H   UNL     1       3.371   3.319  18.746  0.00  0.00    +0.000 HD
BRANCH  12  16
ATOM     16  C   UNL     1       1.386   4.024  18.559  0.00  0.00    +0.000 C 
BRANCH  16  17
ATOM     17  C   UNL     1       0.902   3.333  19.833  0.00  0.00    +0.000 C 
BRANCH  17  19
ATOM     18  C   UNL     1       2.241   2.893  21.729  0.00  0.00    +0.000 C 
ATOM     19  O   UNL     1       1.971   2.548  20.376  0.00  0.00    +0.000 OA
ENDBRANCH  17  19
ENDBRANCH  16  17
ENDBRANCH  12  16
ENDBRANCH  11  13
ENDBRANCH   1  11
TORSDOF 8
ENDMDL
MODEL 8
REMARK VINA RESULT:      -5.6      1.805      6.999
REMARK  Name = 
REMARK  11 active torsions:
REMARK  status: ('A' for Active; 'I' for Inactive)
REMARK    1  A    between atoms: C_1  and  O_2
REMARK    2  A    between atoms: O_2  and  C_3
REMARK    3  A    between atoms: C_3  and  C_4
REMARK    4  A    between atoms: C_4  and  N_5
REMARK    5  A    between atoms: C_6  and  C_8
REMARK    6  A    between atoms: C_8  and  S_9
REMARK    7  A    between atoms: S_9  and  C_10
REMARK    8  A    between atoms: C_13  and  O_14
REMARK    9  A    between atoms: O_14  and  C_15
REMARK   10  A    between atoms: C_15  and  C_16
REMARK   11  A    between atoms: C_15  and  C_17
REMARK                            x       y       z     vdW  Elec       q    Type
REMARK                         _______ _______ _______ _____ _____    ______ ____
ROOT
ATOM      1  S   UNL     1       6.571   6.606  17.653  0.00  0.00    +0.000 S 
ENDROOT
BRANCH   1   2
ATOM      2  C   UNL     1       5.659   5.359  18.478  0.00  0.00    +0.000 A 
ATOM      3  N   UNL     1       6.193   4.230  18.893  0.00  0.00    +0.000 NA
ATOM      4  N   UNL     1       5.253   3.393  19.471  0.00  0.00    +0.000 NA
ATOM      5  C   UNL     1       4.046   3.921  19.461  0.00  0.00    +0.000 A 
ATOM      6  S   UNL     1       3.976   5.495  18.783  0.00  0.00    +0.000 S 
BRANCH   5   7
ATOM      7  O   UNL     1       2.940   3.309  19.892  0.00  0.00    +0.000 OA
BRANCH   7   8
ATOM      8  C   UNL     1       1.705   3.711  19.290  0.00  0.00    +0.000 C 
ATOM      9  C   UNL     1       1.010   2.466  18.750  0.00  0.00    +0.000 C 
ATOM     10  C   UNL     1       0.844   4.361  20.371  0.00  0.00    +0.000 C 
ENDBRANCH   7   8
ENDBRANCH   5   7
ENDBRANCH   1   2
BRANCH   1  11
ATOM     11  C   UNL     1       7.324   5.640  16.313  0.00  0.00    +0.000 C 
BRANCH  11  13
ATOM     12  N   UNL     1       6.512   4.131  14.558  0.00  0.00    +0.000 N 
ATOM     13  C   UNL     1       6.302   5.321  15.232  0.00  0.00    +0.000 C 
ATOM     14  O   UNL     1       5.403   6.100  14.936  0.00  0.00    +0.000 OA
ATOM     15  H   UNL     1       7.036   3.408  15.044  0.00  0.00    +0.000 HD
BRANCH  12  16
ATOM     16  C   UNL     1       5.550   3.680  13.564  0.00  0.00    +0.000 C 
BRANCH  16  17
ATOM     17  C   UNL     1       6.204   3.372  12.217  0.00  0.00    +0.000 C 
BRANCH  17  19
ATOM     18  C   UNL     1       6.182   1.220  11.244  0.00  0.00    +0.000 C 
ATOM     19  O   UNL     1       5.422   2.388  11.530  0.00  0.00    +0.000 OA
ENDBRANCH  17  19
ENDBRANCH  16  17
ENDBRANCH  12  16
ENDBRANCH  11  13
ENDBRANCH   1  11
TORSDOF 8
ENDMDL
MODEL 9
REMARK VINA RESULT:      -5.5      1.093      1.342
REMARK  Name = 
REMARK  11 active torsions:
REMARK  status: ('A' for Active; 'I' for Inactive)
REMARK    1  A    between atoms: C_1  and  O_2
REMARK    2  A    between atoms: O_2  and  C_3
REMARK    3  A    between atoms: C_3  and  C_4
REMARK    4  A    between atoms: C_4  and  N_5
REMARK    5  A    between atoms: C_6  and  C_8
REMARK    6  A    between atoms: C_8  and  S_9
REMARK    7  A    between atoms: S_9  and  C_10
REMARK    8  A    between atoms: C_13  and  O_14
REMARK    9  A    between atoms: O_14  and  C_15
REMARK   10  A    between atoms: C_15  and  C_16
REMARK   11  A    between atoms: C_15  and  C_17
REMARK                            x       y       z     vdW  Elec       q    Type
REMARK                         _______ _______ _______ _____ _____    ______ ____
ROOT
ATOM      1  S   UNL     1       5.231   6.564  17.658  0.00  0.00    +0.000 S 
ENDROOT
BRANCH   1   2
ATOM      2  C   UNL     1       5.932   5.610  16.367  0.00  0.00    +0.000 A 
ATOM      3  N   UNL     1       7.094   5.885  15.816  0.00  0.00    +0.000 NA
ATOM      4  N   UNL     1       7.401   5.010  14.786  0.00  0.00    +0.000 NA
ATOM      5  C   UNL     1       6.453   4.116  14.598  0.00  0.00    +0.000 A 
ATOM      6  S   UNL     1       5.137   4.249  15.689  0.00  0.00    +0.000 S 
BRANCH   5   7
ATOM      7  O   UNL     1       6.454   3.192  13.633  0.00  0.00    +0.000 OA
BRANCH   7   8
ATOM      8  C   UNL     1       6.248   3.658  12.294  0.00  0.00    +0.000 C 
ATOM      9  C   UNL     1       7.181   2.884  11.370  0.00  0.00    +0.000 C 
ATOM     10  C   UNL     1       4.793   3.382  11.918  0.00  0.00    +0.000 C 
ENDBRANCH   7   8
ENDBRANCH   5   7
ENDBRANCH   1   2
BRANCH   1  11
ATOM     11  C   UNL     1       5.596   5.510  19.090  0.00  0.00    +0.000 C 
BRANCH  11  13
ATOM     12  N   UNL     1       3.378   4.548  18.677  0.00  0.00    +0.000 N 
ATOM     13  C   UNL     1       4.663   4.309  19.133  0.00  0.00    +0.000 C 
ATOM     14  O   UNL     1       5.009   3.232  19.605  0.00  0.00    +0.000 OA
ATOM     15  H   UNL     1       3.253   5.314  18.020  0.00  0.00    +0.000 HD
BRANCH  12  16
ATOM     16  C   UNL     1       2.423   3.453  18.589  0.00  0.00    +0.000 C 
BRANCH  16  17
ATOM     17  C   UNL     1       1.273   3.601  19.584  0.00  0.00    +0.000 C 
BRANCH  17  19
ATOM     18  C   UNL     1       1.993   3.193  21.796  0.00  0.00    +0.000 C 
ATOM     19  O   UNL     1       1.772   4.180  20.796  0.00  0.00    +0.000 OA
ENDBRANCH  17  19
ENDBRANCH  16  17
ENDBRANCH  12  16
ENDBRANCH  11  13
ENDBRANCH   1  11
TORSDOF 8
ENDMDL
