MODEL 1
REMARK VINA RESULT:      -6.9      0.000      0.000
REMARK  Name = 
REMARK  10 active torsions:
REMARK  status: ('A' for Active; 'I' for Inactive)
REMARK    1  A    between atoms: C_1  and  O_2
REMARK    2  A    between atoms: O_2  and  C_3
REMARK    3  A    between atoms: C_3  and  C_4
REMARK    4  A    between atoms: C_4  and  C_5
REMARK    5  A    between atoms: C_5  and  N_6
REMARK    6  A    between atoms: C_7  and  C_8
REMARK    7  A    between atoms: C_8  and  N_9
REMARK    8  A    between atoms: C_13  and  O_14
REMARK    9  A    between atoms: C_18  and  S_19
REMARK   10  A    between atoms: S_19  and  C_22
REMARK                            x       y       z     vdW  Elec       q    Type
REMARK                         _______ _______ _______ _____ _____    ______ ____
ROOT
ATOM      1  N   UNL     1       2.378   6.256  19.795  0.00  0.00    +0.000 N 
ATOM      2  C   UNL     1       2.096   7.621  19.850  0.00  0.00    +0.000 A 
ATOM      3  C   UNL     1       2.400   8.080  18.587  0.00  0.00    +0.000 A 
ATOM      4  N   UNL     1       2.874   7.080  17.796  0.00  0.00    +0.000 NA
ATOM      5  C   UNL     1       2.937   5.991  18.554  0.00  0.00    +0.000 A 
ENDROOT
BRANCH   5   6
ATOM      6  S   UNL     1       3.733   4.495  17.962  0.00  0.00    +0.000 S 
ATOM      7  O   UNL     1       4.244   3.836  19.151  0.00  0.00    +0.000 OA
ATOM      8  O   UNL     1       2.796   3.807  17.097  0.00  0.00    +0.000 OA
BRANCH   6   9
ATOM      9  C   UNL     1       5.103   5.051  16.963  0.00  0.00    +0.000 C 
ATOM     10  C   UNL     1       6.481   4.670  17.486  0.00  0.00    +0.000 C 
ATOM     11  C   UNL     1       7.377   4.726  16.257  0.00  0.00    +0.000 C 
ATOM     12  C   UNL     1       6.502   4.280  15.096  0.00  0.00    +0.000 C 
ATOM     13  C   UNL     1       5.054   4.452  15.553  0.00  0.00    +0.000 C 
ENDBRANCH   6   9
ENDBRANCH   5   6
BRANCH   1  14
ATOM     14  C   UNL     1       2.077   5.322  20.870  0.00  0.00    +0.000 C 
BRANCH  14  15
ATOM     15  C   UNL     1       1.042   4.245  20.513  0.00  0.00    +0.000 C 
BRANCH  15  16
ATOM     16  C   UNL     1       1.373   2.858  21.053  0.00  0.00    +0.000 C 
BRANCH  16  18
ATOM     17  C   UNL     1       0.672   2.274  18.879  0.00  0.00    +0.000 C 
ATOM     18  O   UNL     1       1.538   1.965  19.960  0.00  0.00    +0.000 OA
ENDBRANCH  16  18
ENDBRANCH  15  16
ENDBRANCH  14  15
ENDBRANCH   1  14
BRANCH   2  19
ATOM     19  C   UNL     1       1.517   8.394  21.001  0.00  0.00    +0.000 C 
BRANCH  19  20
ATOM     20  N   UNL     1       0.093   8.708  20.837  0.00  0.00    +0.000 NA
ATOM     21  C   UNL     1      -0.681   8.608  22.086  0.00  0.00    +0.000 C 
ATOM     22  C   UNL     1      -0.425   9.735  23.094  0.00  0.00    +0.000 C 
ATOM     23  C   UNL     1      -0.593  11.116  22.473  0.00  0.00    +0.000 C 
ATOM     24  C   UNL     1       0.155  11.241  21.148  0.00  0.00    +0.000 C 
ATOM     25  C   UNL     1      -0.113  10.034  20.227  0.00  0.00    +0.000 C 
BRANCH  24  26
ATOM     26  O   UNL     1      -0.242  12.450  20.500  0.00  0.00    +0.000 OA
ATOM     27  H   UNL     1      -0.008  13.196  21.083  0.00  0.00    +0.000 HD
ENDBRANCH  24  26
ENDBRANCH  19  20
ENDBRANCH   2  19
TORSDOF 9
ENDMDL
MODEL 2
REMARK VINA RESULT:      -6.8      1.480      2.031
REMARK  Name = 
REMARK  10 active torsions:
REMARK  status: ('A' for Active; 'I' for Inactive)
REMARK    1  A    between atoms: C_1  and  O_2
REMARK    2  A    between atoms: O_2  and  C_3
REMARK    3  A    between atoms: C_3  and  C_4
REMARK    4  A    between atoms: C_4  and  C_5
REMARK    5  A    between atoms: C_5  and  N_6
REMARK    6  A    between atoms: C_7  and  C_8
REMARK    7  A    between atoms: C_8  and  N_9
REMARK    8  A    between atoms: C_13  and  O_14
REMARK    9  A    between atoms: C_18  and  S_19
REMARK   10  A    between atoms: S_19  and  C_22
REMARK                            x       y       z     vdW  Elec       q    Type
REMARK                         _______ _______ _______ _____ _____    ______ ____
ROOT
ATOM      1  N   UNL     1       3.020   5.898  19.735  0.00  0.00    +0.000 N 
ATOM      2  C   UNL     1       2.435   7.100  19.337  0.00  0.00    +0.000 A 
ATOM      3  C   UNL     1       3.121   7.448  18.195  0.00  0.00    +0.000 A 
ATOM      4  N   UNL     1       4.097   6.544  17.906  0.00  0.00    +0.000 NA
ATOM      5  C   UNL     1       4.088   5.648  18.886  0.00  0.00    +0.000 A 
ENDROOT
BRANCH   5   6
ATOM      6  S   UNL     1       5.378   4.406  19.018  0.00  0.00    +0.000 S 
ATOM      7  O   UNL     1       6.495   5.080  19.656  0.00  0.00    +0.000 OA
ATOM      8  O   UNL     1       4.798   3.227  19.628  0.00  0.00    +0.000 OA
BRANCH   6   9
ATOM      9  C   UNL     1       5.819   4.001  17.337  0.00  0.00    +0.000 C 
ATOM     10  C   UNL     1       4.740   4.280  16.300  0.00  0.00    +0.000 C 
ATOM     11  C   UNL     1       5.504   4.410  14.991  0.00  0.00    +0.000 C 
ATOM     12  C   UNL     1       6.837   5.044  15.359  0.00  0.00    +0.000 C 
ATOM     13  C   UNL     1       7.026   4.816  16.858  0.00  0.00    +0.000 C 
ENDBRANCH   6   9
ENDBRANCH   5   6
BRANCH   1  14
ATOM     14  C   UNL     1       2.524   5.079  20.831  0.00  0.00    +0.000 C 
BRANCH  14  15
ATOM     15  C   UNL     1       1.197   4.360  20.545  0.00  0.00    +0.000 C 
BRANCH  15  16
ATOM     16  C   UNL     1       1.352   2.892  20.164  0.00  0.00    +0.000 C 
BRANCH  16  18
ATOM     17  C   UNL     1       2.056   2.293  17.995  0.00  0.00    +0.000 C 
ATOM     18  O   UNL     1       0.974   2.726  18.804  0.00  0.00    +0.000 OA
ENDBRANCH  16  18
ENDBRANCH  15  16
ENDBRANCH  14  15
ENDBRANCH   1  14
BRANCH   2  19
ATOM     19  C   UNL     1       1.271   7.809  19.969  0.00  0.00    +0.000 C 
BRANCH  19  20
ATOM     20  N   UNL     1       1.618   9.119  20.532  0.00  0.00    +0.000 NA
ATOM     21  C   UNL     1       0.911  10.242  19.894  0.00  0.00    +0.000 C 
ATOM     22  C   UNL     1      -0.576  10.350  20.249  0.00  0.00    +0.000 C 
ATOM     23  C   UNL     1      -0.814  10.358  21.754  0.00  0.00    +0.000 C 
ATOM     24  C   UNL     1      -0.054   9.236  22.456  0.00  0.00    +0.000 C 
ATOM     25  C   UNL     1       1.414   9.163  21.992  0.00  0.00    +0.000 C 
BRANCH  24  26
ATOM     26  O   UNL     1      -0.112   9.446  23.868  0.00  0.00    +0.000 OA
ATOM     27  H   UNL     1      -0.612  10.266  24.031  0.00  0.00    +0.000 HD
ENDBRANCH  24  26
ENDBRANCH  19  20
ENDBRANCH   2  19
TORSDOF 9
ENDMDL
MODEL 3
REMARK VINA RESULT:      -6.7      2.981      7.663
REMARK  Name = 
REMARK  10 active torsions:
REMARK  status: ('A' for Active; 'I' for Inactive)
REMARK    1  A    between atoms: C_1  and  O_2
REMARK    2  A    between atoms: O_2  and  C_3
REMARK    3  A    between atoms: C_3  and  C_4
REMARK    4  A    between atoms: C_4  and  C_5
REMARK    5  A    between atoms: C_5  and  N_6
REMARK    6  A    between atoms: C_7  and  C_8
REMARK    7  A    between atoms: C_8  and  N_9
REMARK    8  A    between atoms: C_13  and  O_14
REMARK    9  A    between atoms: C_18  and  S_19
REMARK   10  A    between atoms: S_19  and  C_22
REMARK                            x       y       z     vdW  Elec       q    Type
REMARK                         _______ _______ _______ _____ _____    ______ ____
ROOT
ATOM      1  N   UNL     1       1.626   8.800  19.805  0.00  0.00    +0.000 N 
ATOM      2  C   UNL     1       2.203   7.734  19.114  0.00  0.00    +0.000 A 
ATOM      3  C   UNL     1       2.383   8.218  17.837  0.00  0.00    +0.000 A 
ATOM      4  N   UNL     1       1.922   9.493  17.718  0.00  0.00    +0.000 NA
ATOM      5  C   UNL     1       1.389   9.816  18.891  0.00  0.00    +0.000 A 
ENDROOT
BRANCH   5   6
ATOM      6  S   UNL     1       0.453  11.334  19.097  0.00  0.00    +0.000 S 
ATOM      7  O   UNL     1       0.746  11.786  20.445  0.00  0.00    +0.000 OA
ATOM      8  O   UNL     1       0.743  12.190  17.965  0.00  0.00    +0.000 OA
BRANCH   6   9
ATOM      9  C   UNL     1      -1.262  10.849  18.999  0.00  0.00    +0.000 C 
ATOM     10  C   UNL     1      -2.262  11.995  19.061  0.00  0.00    +0.000 C 
ATOM     11  C   UNL     1      -3.516  11.432  18.407  0.00  0.00    +0.000 C 
ATOM     12  C   UNL     1      -3.020  10.490  17.320  0.00  0.00    +0.000 C 
ATOM     13  C   UNL     1      -1.575  10.143  17.675  0.00  0.00    +0.000 C 
ENDBRANCH   6   9
ENDBRANCH   5   6
BRANCH   1  14
ATOM     14  C   UNL     1       1.380   8.798  21.239  0.00  0.00    +0.000 C 
BRANCH  14  15
ATOM     15  C   UNL     1      -0.103   8.748  21.636  0.00  0.00    +0.000 C 
BRANCH  15  16
ATOM     16  C   UNL     1      -0.372   9.108  23.093  0.00  0.00    +0.000 C 
BRANCH  16  18
ATOM     17  C   UNL     1      -1.404  11.225  22.986  0.00  0.00    +0.000 C 
ATOM     18  O   UNL     1      -0.209  10.509  23.260  0.00  0.00    +0.000 OA
ENDBRANCH  16  18
ENDBRANCH  15  16
ENDBRANCH  14  15
ENDBRANCH   1  14
BRANCH   2  19
ATOM     19  C   UNL     1       2.606   6.395  19.662  0.00  0.00    +0.000 C 
BRANCH  19  20
ATOM     20  N   UNL     1       1.665   5.319  19.329  0.00  0.00    +0.000 NA
ATOM     21  C   UNL     1       2.164   4.395  18.296  0.00  0.00    +0.000 C 
ATOM     22  C   UNL     1       3.272   3.445  18.766  0.00  0.00    +0.000 C 
ATOM     23  C   UNL     1       2.882   2.677  20.023  0.00  0.00    +0.000 C 
ATOM     24  C   UNL     1       2.311   3.597  21.098  0.00  0.00    +0.000 C 
ATOM     25  C   UNL     1       1.253   4.558  20.523  0.00  0.00    +0.000 C 
BRANCH  24  26
ATOM     26  O   UNL     1       1.738   2.801  22.137  0.00  0.00    +0.000 OA
ATOM     27  H   UNL     1       1.713   1.877  21.830  0.00  0.00    +0.000 HD
ENDBRANCH  24  26
ENDBRANCH  19  20
ENDBRANCH   2  19
TORSDOF 9
ENDMDL
MODEL 4
REMARK VINA RESULT:      -6.7      2.701      5.955
REMARK  Name = 
REMARK  10 active torsions:
REMARK  status: ('A' for Active; 'I' for Inactive)
REMARK    1  A    between atoms: C_1  and  O_2
REMARK    2  A    between atoms: O_2  and  C_3
REMARK    3  A    between atoms: C_3  and  C_4
REMARK    4  A    between atoms: C_4  and  C_5
REMARK    5  A    between atoms: C_5  and  N_6
REMARK    6  A    between atoms: C_7  and  C_8
REMARK    7  A    between atoms: C_8  and  N_9
REMARK    8  A    between atoms: C_13  and  O_14
REMARK    9  A    between atoms: C_18  and  S_19
REMARK   10  A    between atoms: S_19  and  C_22
REMARK                            x       y       z     vdW  Elec       q    Type
REMARK                         _______ _______ _______ _____ _____    ______ ____
ROOT
ATOM      1  N   UNL     1       4.542   5.676  18.144  0.00  0.00    +0.000 N 
ATOM      2  C   UNL     1       4.529   4.966  19.345  0.00  0.00    +0.000 A 
ATOM      3  C   UNL     1       5.854   4.662  19.571  0.00  0.00    +0.000 A 
ATOM      4  N   UNL     1       6.648   5.120  18.566  0.00  0.00    +0.000 NA
ATOM      5  C   UNL     1       5.841   5.664  17.661  0.00  0.00    +0.000 A 
ENDROOT
BRANCH   5   6
ATOM      6  S   UNL     1       6.463   6.182  16.058  0.00  0.00    +0.000 S 
ATOM      7  O   UNL     1       5.465   7.097  15.537  0.00  0.00    +0.000 OA
ATOM      8  O   UNL     1       7.831   6.624  16.236  0.00  0.00    +0.000 OA
BRANCH   6   9
ATOM      9  C   UNL     1       6.483   4.703  15.058  0.00  0.00    +0.000 C 
ATOM     10  C   UNL     1       5.147   4.326  14.435  0.00  0.00    +0.000 C 
ATOM     11  C   UNL     1       5.523   3.454  13.246  0.00  0.00    +0.000 C 
ATOM     12  C   UNL     1       6.835   4.019  12.725  0.00  0.00    +0.000 C 
ATOM     13  C   UNL     1       7.434   4.843  13.864  0.00  0.00    +0.000 C 
ENDBRANCH   6   9
ENDBRANCH   5   6
BRANCH   1  14
ATOM     14  C   UNL     1       3.371   6.326  17.575  0.00  0.00    +0.000 C 
BRANCH  14  15
ATOM     15  C   UNL     1       3.294   7.840  17.820  0.00  0.00    +0.000 C 
BRANCH  15  16
ATOM     16  C   UNL     1       1.967   8.311  18.404  0.00  0.00    +0.000 C 
BRANCH  16  18
ATOM     17  C   UNL     1       0.706  10.265  18.794  0.00  0.00    +0.000 C 
ATOM     18  O   UNL     1       1.771   9.676  18.064  0.00  0.00    +0.000 OA
ENDBRANCH  16  18
ENDBRANCH  15  16
ENDBRANCH  14  15
ENDBRANCH   1  14
BRANCH   2  19
ATOM     19  C   UNL     1       3.349   4.672  20.226  0.00  0.00    +0.000 C 
BRANCH  19  20
ATOM     20  N   UNL     1       3.119   3.238  20.437  0.00  0.00    +0.000 NA
ATOM     21  C   UNL     1       1.849   2.937  21.120  0.00  0.00    +0.000 C 
ATOM     22  C   UNL     1       0.595   3.134  20.261  0.00  0.00    +0.000 C 
ATOM     23  C   UNL     1       0.677   2.386  18.935  0.00  0.00    +0.000 C 
ATOM     24  C   UNL     1       2.004   2.633  18.223  0.00  0.00    +0.000 C 
ATOM     25  C   UNL     1       3.203   2.475  19.178  0.00  0.00    +0.000 C 
BRANCH  24  26
ATOM     26  O   UNL     1       2.123   1.721  17.130  0.00  0.00    +0.000 OA
ATOM     27  H   UNL     1       1.264   1.278  17.011  0.00  0.00    +0.000 HD
ENDBRANCH  24  26
ENDBRANCH  19  20
ENDBRANCH   2  19
TORSDOF 9
ENDMDL
MODEL 5
REMARK VINA RESULT:      -6.7      2.331      7.155
REMARK  Name = 
REMARK  10 active torsions:
REMARK  status: ('A' for Active; 'I' for Inactive)
REMARK    1  A    between atoms: C_1  and  O_2
REMARK    2  A    between atoms: O_2  and  C_3
REMARK    3  A    between atoms: C_3  and  C_4
REMARK    4  A    between atoms: C_4  and  C_5
REMARK    5  A    between atoms: C_5  and  N_6
REMARK    6  A    between atoms: C_7  and  C_8
REMARK    7  A    between atoms: C_8  and  N_9
REMARK    8  A    between atoms: C_13  and  O_14
REMARK    9  A    between atoms: C_18  and  S_19
REMARK   10  A    between atoms: S_19  and  C_22
REMARK                            x       y       z     vdW  Elec       q    Type
REMARK                         _______ _______ _______ _____ _____    ______ ____
ROOT
ATOM      1  N   UNL     1       2.131   6.745  19.718  0.00  0.00    +0.000 N 
ATOM      2  C   UNL     1       2.615   6.622  18.416  0.00  0.00    +0.000 A 
ATOM      3  C   UNL     1       2.568   7.904  17.916  0.00  0.00    +0.000 A 
ATOM      4  N   UNL     1       2.058   8.776  18.829  0.00  0.00    +0.000 NA
ATOM      5  C   UNL     1       1.718   8.057  19.893  0.00  0.00    +0.000 A 
ENDROOT
BRANCH   5   6
ATOM      6  S   UNL     1       0.787   8.786  21.244  0.00  0.00    +0.000 S 
ATOM      7  O   UNL     1      -0.381   7.940  21.404  0.00  0.00    +0.000 OA
ATOM      8  O   UNL     1       1.698   8.984  22.353  0.00  0.00    +0.000 OA
BRANCH   6   9
ATOM      9  C   UNL     1       0.275  10.391  20.654  0.00  0.00    +0.000 C 
ATOM     10  C   UNL     1      -0.868  10.375  19.648  0.00  0.00    +0.000 C 
ATOM     11  C   UNL     1      -1.472  11.768  19.748  0.00  0.00    +0.000 C 
ATOM     12  C   UNL     1      -1.324  12.172  21.207  0.00  0.00    +0.000 C 
ATOM     13  C   UNL     1      -0.237  11.275  21.796  0.00  0.00    +0.000 C 
ENDBRANCH   6   9
ENDBRANCH   5   6
BRANCH   1  14
ATOM     14  C   UNL     1       2.126   5.659  20.687  0.00  0.00    +0.000 C 
BRANCH  14  15
ATOM     15  C   UNL     1       0.992   4.639  20.503  0.00  0.00    +0.000 C 
BRANCH  15  16
ATOM     16  C   UNL     1       1.359   3.217  20.914  0.00  0.00    +0.000 C 
BRANCH  16  18
ATOM     17  C   UNL     1       2.044   1.996  19.017  0.00  0.00    +0.000 C 
ATOM     18  O   UNL     1       2.457   2.778  20.127  0.00  0.00    +0.000 OA
ENDBRANCH  16  18
ENDBRANCH  15  16
ENDBRANCH  14  15
ENDBRANCH   1  14
BRANCH   2  19
ATOM     19  C   UNL     1       3.141   5.385  17.744  0.00  0.00    +0.000 C 
BRANCH  19  20
ATOM     20  N   UNL     1       4.467   4.978  18.223  0.00  0.00    +0.000 NA
ATOM     21  C   UNL     1       4.989   3.771  17.560  0.00  0.00    +0.000 C 
ATOM     22  C   UNL     1       5.444   3.979  16.110  0.00  0.00    +0.000 C 
ATOM     23  C   UNL     1       6.432   5.132  15.973  0.00  0.00    +0.000 C 
ATOM     24  C   UNL     1       5.946   6.387  16.693  0.00  0.00    +0.000 C 
ATOM     25  C   UNL     1       5.451   6.072  18.118  0.00  0.00    +0.000 C 
BRANCH  24  26
ATOM     26  O   UNL     1       7.012   7.337  16.744  0.00  0.00    +0.000 OA
ATOM     27  H   UNL     1       7.533   7.250  15.924  0.00  0.00    +0.000 HD
ENDBRANCH  24  26
ENDBRANCH  19  20
ENDBRANCH   2  19
TORSDOF 9
ENDMDL
MODEL 6
REMARK VINA RESULT:      -6.7      0.840      1.281
REMARK  Name = 
REMARK  10 active torsions:
REMARK  status: ('A' for Active; 'I' for Inactive)
REMARK    1  A    between atoms: C_1  and  O_2
REMARK    2  A    between atoms: O_2  and  C_3
REMARK    3  A    between atoms: C_3  and  C_4
REMARK    4  A    between atoms: C_4  and  C_5
REMARK    5  A    between atoms: C_5  and  N_6
REMARK    6  A    between atoms: C_7  and  C_8
REMARK    7  A    between atoms: C_8  and  N_9
REMARK    8  A    between atoms: C_13  and  O_14
REMARK    9  A    between atoms: C_18  and  S_19
REMARK   10  A    between atoms: S_19  and  C_22
REMARK                            x       y       z     vdW  Elec       q    Type
REMARK                         _______ _______ _______ _____ _____    ______ ____
ROOT
ATOM      1  N   UNL     1       2.696   5.952  19.784  0.00  0.00    +0.000 N 
ATOM      2  C   UNL     1       2.343   7.301  19.797  0.00  0.00    +0.000 A 
ATOM      3  C   UNL     1       2.670   7.747  18.535  0.00  0.00    +0.000 A 
ATOM      4  N   UNL     1       3.223   6.755  17.785  0.00  0.00    +0.000 NA
ATOM      5  C   UNL     1       3.313   5.688  18.571  0.00  0.00    +0.000 A 
ENDROOT
BRANCH   5   6
ATOM      6  S   UNL     1       4.205   4.222  18.044  0.00  0.00    +0.000 S 
ATOM      7  O   UNL     1       4.244   3.357  19.209  0.00  0.00    +0.000 OA
ATOM      8  O   UNL     1       3.601   3.755  16.813  0.00  0.00    +0.000 OA
BRANCH   6   9
ATOM      9  C   UNL     1       5.858   4.782  17.672  0.00  0.00    +0.000 C 
ATOM     10  C   UNL     1       5.951   5.858  16.599  0.00  0.00    +0.000 C 
ATOM     11  C   UNL     1       7.284   6.541  16.869  0.00  0.00    +0.000 C 
ATOM     12  C   UNL     1       7.460   6.506  18.379  0.00  0.00    +0.000 C 
ATOM     13  C   UNL     1       6.530   5.411  18.899  0.00  0.00    +0.000 C 
ENDBRANCH   6   9
ENDBRANCH   5   6
BRANCH   1  14
ATOM     14  C   UNL     1       2.403   5.027  20.870  0.00  0.00    +0.000 C 
BRANCH  14  15
ATOM     15  C   UNL     1       1.140   4.176  20.665  0.00  0.00    +0.000 C 
BRANCH  15  16
ATOM     16  C   UNL     1       1.307   2.710  21.044  0.00  0.00    +0.000 C 
BRANCH  16  18
ATOM     17  C   UNL     1       0.826   2.434  18.752  0.00  0.00    +0.000 C 
ATOM     18  O   UNL     1       1.563   1.955  19.867  0.00  0.00    +0.000 OA
ENDBRANCH  16  18
ENDBRANCH  15  16
ENDBRANCH  14  15
ENDBRANCH   1  14
BRANCH   2  19
ATOM     19  C   UNL     1       1.683   8.068  20.907  0.00  0.00    +0.000 C 
BRANCH  19  20
ATOM     20  N   UNL     1       0.340   8.552  20.567  0.00  0.00    +0.000 NA
ATOM     21  C   UNL     1      -0.622   8.453  21.677  0.00  0.00    +0.000 C 
ATOM     22  C   UNL     1      -0.410   9.471  22.804  0.00  0.00    +0.000 C 
ATOM     23  C   UNL     1      -0.341  10.903  22.285  0.00  0.00    +0.000 C 
ATOM     24  C   UNL     1       0.610  11.033  21.099  0.00  0.00    +0.000 C 
ATOM     25  C   UNL     1       0.366   9.932  20.048  0.00  0.00    +0.000 C 
BRANCH  24  26
ATOM     26  O   UNL     1       0.442  12.322  20.506  0.00  0.00    +0.000 OA
ATOM     27  H   UNL     1      -0.405  12.325  20.024  0.00  0.00    +0.000 HD
ENDBRANCH  24  26
ENDBRANCH  19  20
ENDBRANCH   2  19
TORSDOF 9
ENDMDL
MODEL 7
REMARK VINA RESULT:      -6.6      2.827      5.801
REMARK  Name = 
REMARK  10 active torsions:
REMARK  status: ('A' for Active; 'I' for Inactive)
REMARK    1  A    between atoms: C_1  and  O_2
REMARK    2  A    between atoms: O_2  and  C_3
REMARK    3  A    between atoms: C_3  and  C_4
REMARK    4  A    between atoms: C_4  and  C_5
REMARK    5  A    between atoms: C_5  and  N_6
REMARK    6  A    between atoms: C_7  and  C_8
REMARK    7  A    between atoms: C_8  and  N_9
REMARK    8  A    between atoms: C_13  and  O_14
REMARK    9  A    between atoms: C_18  and  S_19
REMARK   10  A    between atoms: S_19  and  C_22
REMARK                            x       y       z     vdW  Elec       q    Type
REMARK                         _______ _______ _______ _____ _____    ______ ____
ROOT
ATOM      1  N   UNL     1       3.928   5.252  17.427  0.00  0.00    +0.000 N 
ATOM      2  C   UNL     1       2.972   4.287  17.746  0.00  0.00    +0.000 A 
ATOM      3  C   UNL     1       3.366   3.175  17.035  0.00  0.00    +0.000 A 
ATOM      4  N   UNL     1       4.477   3.428  16.291  0.00  0.00    +0.000 NA
ATOM      5  C   UNL     1       4.769   4.711  16.467  0.00  0.00    +0.000 A 
ENDROOT
BRANCH   5   6
ATOM      6  S   UNL     1       6.031   5.518  15.476  0.00  0.00    +0.000 S 
ATOM      7  O   UNL     1       6.489   4.506  14.541  0.00  0.00    +0.000 OA
ATOM      8  O   UNL     1       5.480   6.764  14.986  0.00  0.00    +0.000 OA
BRANCH   6   9
ATOM      9  C   UNL     1       7.350   5.905  16.615  0.00  0.00    +0.000 C 
ATOM     10  C   UNL     1       7.267   7.282  17.257  0.00  0.00    +0.000 C 
ATOM     11  C   UNL     1       8.092   7.152  18.529  0.00  0.00    +0.000 C 
ATOM     12  C   UNL     1       7.880   5.724  19.007  0.00  0.00    +0.000 C 
ATOM     13  C   UNL     1       7.376   4.933  17.800  0.00  0.00    +0.000 C 
ENDBRANCH   6   9
ENDBRANCH   5   6
BRANCH   1  14
ATOM     14  C   UNL     1       3.999   6.562  18.057  0.00  0.00    +0.000 C 
BRANCH  14  15
ATOM     15  C   UNL     1       3.167   7.653  17.365  0.00  0.00    +0.000 C 
BRANCH  15  16
ATOM     16  C   UNL     1       2.183   8.366  18.286  0.00  0.00    +0.000 C 
BRANCH  16  18
ATOM     17  C   UNL     1       0.469   9.985  18.256  0.00  0.00    +0.000 C 
ATOM     18  O   UNL     1       1.605   9.459  17.587  0.00  0.00    +0.000 OA
ENDBRANCH  16  18
ENDBRANCH  15  16
ENDBRANCH  14  15
ENDBRANCH   1  14
BRANCH   2  19
ATOM     19  C   UNL     1       1.825   4.413  18.707  0.00  0.00    +0.000 C 
BRANCH  19  20
ATOM     20  N   UNL     1       2.244   4.684  20.087  0.00  0.00    +0.000 NA
ATOM     21  C   UNL     1       1.243   4.296  21.095  0.00  0.00    +0.000 C 
ATOM     22  C   UNL     1       1.097   2.785  21.309  0.00  0.00    +0.000 C 
ATOM     23  C   UNL     1       2.433   2.109  21.597  0.00  0.00    +0.000 C 
ATOM     24  C   UNL     1       3.510   2.528  20.600  0.00  0.00    +0.000 C 
ATOM     25  C   UNL     1       3.541   4.056  20.402  0.00  0.00    +0.000 C 
BRANCH  24  26
ATOM     26  O   UNL     1       4.780   2.068  21.065  0.00  0.00    +0.000 OA
ATOM     27  H   UNL     1       4.625   1.348  21.703  0.00  0.00    +0.000 HD
ENDBRANCH  24  26
ENDBRANCH  19  20
ENDBRANCH   2  19
TORSDOF 9
ENDMDL
MODEL 8
REMARK VINA RESULT:      -6.6      1.374      1.954
REMARK  Name = 
REMARK  10 active torsions:
REMARK  status: ('A' for Active; 'I' for Inactive)
REMARK    1  A    between atoms: C_1  and  O_2
REMARK    2  A    between atoms: O_2  and  C_3
REMARK    3  A    between atoms: C_3  and  C_4
REMARK    4  A    between atoms: C_4  and  C_5
REMARK    5  A    between atoms: C_5  and  N_6
REMARK    6  A    between atoms: C_7  and  C_8
REMARK    7  A    between atoms: C_8  and  N_9
REMARK    8  A    between atoms: C_13  and  O_14
REMARK    9  A    between atoms: C_18  and  S_19
REMARK   10  A    between atoms: S_19  and  C_22
REMARK                            x       y       z     vdW  Elec       q    Type
REMARK                         _______ _______ _______ _____ _____    ______ ____
ROOT
ATOM      1  N   UNL     1       2.941   6.242  19.490  0.00  0.00    +0.000 N 
ATOM      2  C   UNL     1       2.450   7.448  18.989  0.00  0.00    +0.000 A 
ATOM      3  C   UNL     1       3.198   7.672  17.855  0.00  0.00    +0.000 A 
ATOM      4  N   UNL     1       4.123   6.691  17.667  0.00  0.00    +0.000 NA
ATOM      5  C   UNL     1       4.020   5.867  18.704  0.00  0.00    +0.000 A 
ENDROOT
BRANCH   5   6
ATOM      6  S   UNL     1       5.221   4.560  18.971  0.00  0.00    +0.000 S 
ATOM      7  O   UNL     1       6.315   5.185  19.692  0.00  0.00    +0.000 OA
ATOM      8  O   UNL     1       4.524   3.429  19.548  0.00  0.00    +0.000 OA
BRANCH   6   9
ATOM      9  C   UNL     1       5.782   4.093  17.342  0.00  0.00    +0.000 C 
ATOM     10  C   UNL     1       4.744   4.227  16.237  0.00  0.00    +0.000 C 
ATOM     11  C   UNL     1       5.567   4.340  14.962  0.00  0.00    +0.000 C 
ATOM     12  C   UNL     1       6.827   5.095  15.357  0.00  0.00    +0.000 C 
ATOM     13  C   UNL     1       6.950   4.970  16.875  0.00  0.00    +0.000 C 
ENDBRANCH   6   9
ENDBRANCH   5   6
BRANCH   1  14
ATOM     14  C   UNL     1       2.353   5.533  20.617  0.00  0.00    +0.000 C 
BRANCH  14  15
ATOM     15  C   UNL     1       1.236   4.547  20.244  0.00  0.00    +0.000 C 
BRANCH  15  16
ATOM     16  C   UNL     1       1.301   3.220  20.990  0.00  0.00    +0.000 C 
BRANCH  16  18
ATOM     17  C   UNL     1       0.998   2.482  18.771  0.00  0.00    +0.000 C 
ATOM     18  O   UNL     1       1.522   2.174  20.054  0.00  0.00    +0.000 OA
ENDBRANCH  16  18
ENDBRANCH  15  16
ENDBRANCH  14  15
ENDBRANCH   1  14
BRANCH   2  19
ATOM     19  C   UNL     1       1.312   8.270  19.525  0.00  0.00    +0.000 C 
BRANCH  19  20
ATOM     20  N   UNL     1       1.347   9.671  19.090  0.00  0.00    +0.000 NA
ATOM     21  C   UNL     1       0.248  10.035  18.180  0.00  0.00    +0.000 C 
ATOM     22  C   UNL     1      -1.127  10.151  18.847  0.00  0.00    +0.000 C 
ATOM     23  C   UNL     1      -1.108  11.079  20.056  0.00  0.00    +0.000 C 
ATOM     24  C   UNL     1       0.051  10.764  20.998  0.00  0.00    +0.000 C 
ATOM     25  C   UNL     1       1.380  10.603  20.233  0.00  0.00    +0.000 C 
BRANCH  24  26
ATOM     26  O   UNL     1       0.166  11.810  21.964  0.00  0.00    +0.000 OA
ATOM     27  H   UNL     1       0.376  12.636  21.491  0.00  0.00    +0.000 HD
ENDBRANCH  24  26
ENDBRANCH  19  20
ENDBRANCH   2  19
TORSDOF 9
ENDMDL
MODEL 9
REMARK VINA RESULT:      -6.6      1.130      1.544
REMARK  Name = 
REMARK  10 active torsions:
REMARK  status: ('A' for Active; 'I' for Inactive)
REMARK    1  A    between atoms: C_1  and  O_2
REMARK    2  A    between atoms: O_2  and  C_3
REMARK    3  A    between atoms: C_3  and  C_4
REMARK    4  A    between atoms: C_4  and  C_5
REMARK    5  A    between atoms: C_5  and  N_6
REMARK    6  A    between atoms: C_7  and  C_8
REMARK    7  A    between atoms: C_8  and  N_9
REMARK    8  A    between atoms: C_13  and  O_14
REMARK    9  A    between atoms: C_18  and  S_19
REMARK   10  A    between atoms: S_19  and  C_22
REMARK                            x       y       z     vdW  Elec       q    Type
REMARK                         _______ _______ _______ _____ _____    ______ ____
ROOT
ATOM      1  N   UNL     1       2.473   6.641  19.531  0.00  0.00    +0.000 N 
ATOM      2  C   UNL     1       1.957   7.919  19.310  0.00  0.00    +0.000 A 
ATOM      3  C   UNL     1       2.478   8.285  18.088  0.00  0.00    +0.000 A 
ATOM      4  N   UNL     1       3.293   7.319  17.585  0.00  0.00    +0.000 NA
ATOM      5  C   UNL     1       3.353   6.357  18.499  0.00  0.00    +0.000 A 
ENDROOT
BRANCH   5   6
ATOM      6  S   UNL     1       4.512   4.996  18.335  0.00  0.00    +0.000 S 
ATOM      7  O   UNL     1       5.530   5.236  19.342  0.00  0.00    +0.000 OA
ATOM      8  O   UNL     1       3.752   3.762  18.351  0.00  0.00    +0.000 OA
BRANCH   6   9
ATOM      9  C   UNL     1       5.234   5.181  16.713  0.00  0.00    +0.000 C 
ATOM     10  C   UNL     1       6.734   5.441  16.699  0.00  0.00    +0.000 C 
ATOM     11  C   UNL     1       7.177   4.997  15.312  0.00  0.00    +0.000 C 
ATOM     12  C   UNL     1       6.282   3.819  14.957  0.00  0.00    +0.000 C 
ATOM     13  C   UNL     1       5.060   3.913  15.870  0.00  0.00    +0.000 C 
ENDBRANCH   6   9
ENDBRANCH   5   6
BRANCH   1  14
ATOM     14  C   UNL     1       2.082   5.792  20.646  0.00  0.00    +0.000 C 
BRANCH  14  15
ATOM     15  C   UNL     1       1.240   4.567  20.257  0.00  0.00    +0.000 C 
BRANCH  15  16
ATOM     16  C   UNL     1       1.574   3.305  21.043  0.00  0.00    +0.000 C 
BRANCH  16  18
ATOM     17  C   UNL     1       0.650   2.448  19.050  0.00  0.00    +0.000 C 
ATOM     18  O   UNL     1       1.468   2.182  20.179  0.00  0.00    +0.000 OA
ENDBRANCH  16  18
ENDBRANCH  15  16
ENDBRANCH  14  15
ENDBRANCH   1  14
BRANCH   2  19
ATOM     19  C   UNL     1       0.993   8.682  20.172  0.00  0.00    +0.000 C 
BRANCH  19  20
ATOM     20  N   UNL     1       1.150  10.138  20.077  0.00  0.00    +0.000 NA
ATOM     21  C   UNL     1       0.277  10.762  19.068  0.00  0.00    +0.000 C 
ATOM     22  C   UNL     1      -1.206  10.826  19.452  0.00  0.00    +0.000 C 
ATOM     23  C   UNL     1      -1.423  11.471  20.816  0.00  0.00    +0.000 C 
ATOM     24  C   UNL     1      -0.498  10.884  21.878  0.00  0.00    +0.000 C 
ATOM     25  C   UNL     1       0.959  10.800  21.381  0.00  0.00    +0.000 C 
BRANCH  24  26
ATOM     26  O   UNL     1      -0.569  11.690  23.055  0.00  0.00    +0.000 OA
ATOM     27  H   UNL     1      -1.487  12.000  23.154  0.00  0.00    +0.000 HD
ENDBRANCH  24  26
ENDBRANCH  19  20
ENDBRANCH   2  19
TORSDOF 9
ENDMDL
