MODEL 1
REMARK VINA RESULT:      -6.9      0.000      0.000
REMARK  Name = 
REMARK  11 active torsions:
REMARK  status: ('A' for Active; 'I' for Inactive)
REMARK    1  A    between atoms: C_1  and  C_2
REMARK    2  A    between atoms: C_2  and  N_3
REMARK    3  A    between atoms: N_3  and  C_4
REMARK    4  A    between atoms: C_4  and  C_5
REMARK    5  A    between atoms: C_6  and  C_8
REMARK    6  A    between atoms: C_8  and  S_9
REMARK    7  A    between atoms: S_9  and  C_10
REMARK    8  A    between atoms: C_13  and  C_14
REMARK    9  A    between atoms: C_14  and  N_15
REMARK   10  A    between atoms: C_14  and  C_16
REMARK   11  A    between atoms: C_16  and  C_17
REMARK                            x       y       z     vdW  Elec       q    Type
REMARK                         _______ _______ _______ _____ _____    ______ ____
ROOT
ATOM      1  C   UNL     1       4.175   6.073  18.738  0.00  0.00    +0.000 A 
ATOM      2  N   UNL     1       4.931   5.506  19.697  0.00  0.00    +0.000 NA
ATOM      3  N   UNL     1       5.965   4.960  19.081  0.00  0.00    +0.000 NA
ATOM      4  C   UNL     1       5.806   5.216  17.768  0.00  0.00    +0.000 A 
ATOM      5  O   UNL     1       4.706   5.900  17.551  0.00  0.00    +0.000 OA
ENDROOT
BRANCH   1   6
ATOM      6  S   UNL     1       2.635   6.960  19.025  0.00  0.00    +0.000 S 
BRANCH   6   7
ATOM      7  C   UNL     1       1.732   5.564  19.798  0.00  0.00    +0.000 C 
BRANCH   7   9
ATOM      8  N   UNL     1       2.228   3.100  19.477  0.00  0.00    +0.000 N 
ATOM      9  C   UNL     1       1.788   4.301  18.955  0.00  0.00    +0.000 C 
ATOM     10  O   UNL     1       1.411   4.364  17.794  0.00  0.00    +0.000 OA
BRANCH   8  12
ATOM     11  C   UNL     1       3.606   1.633  17.976  0.00  0.00    +0.000 C 
ATOM     12  C   UNL     1       2.236   1.901  18.618  0.00  0.00    +0.000 C 
ENDBRANCH   8  12
BRANCH   8  13
ATOM     13  C   UNL     1       2.626   3.060  20.896  0.00  0.00    +0.000 C 
ATOM     14  C   UNL     1       1.600   2.501  21.890  0.00  0.00    +0.000 C 
ENDBRANCH   8  13
ENDBRANCH   7   9
ENDBRANCH   6   7
ENDBRANCH   1   6
BRANCH   4  15
ATOM     15  C   UNL     1       6.762   4.778  16.685  0.00  0.00    +0.000 C 
BRANCH  15  16
ATOM     16  N   UNL     1       7.947   4.153  17.275  0.00  0.00    +0.000 NA
ATOM     17  H   UNL     1       8.434   4.829  17.908  0.00  0.00    +0.000 HD
ATOM     18  H   UNL     1       8.608   3.862  16.517  0.00  0.00    +0.000 HD
ENDBRANCH  15  16
BRANCH  15  19
ATOM     19  C   UNL     1       6.076   3.802  15.703  0.00  0.00    +0.000 C 
BRANCH  19  20
ATOM     20  C   UNL     1       6.465   4.049  14.265  0.00  0.00    +0.000 A 
ATOM     21  C   UNL     1       7.439   5.016  13.957  0.00  0.00    +0.000 A 
ATOM     22  C   UNL     1       7.811   5.244  12.629  0.00  0.00    +0.000 A 
ATOM     23  C   UNL     1       7.215   4.513  11.599  0.00  0.00    +0.000 A 
ATOM     24  C   UNL     1       6.247   3.548  11.896  0.00  0.00    +0.000 A 
ATOM     25  C   UNL     1       5.875   3.314  13.223  0.00  0.00    +0.000 A 
ENDBRANCH  19  20
ENDBRANCH  15  19
ENDBRANCH   4  15
TORSDOF 9
ENDMDL
MODEL 2
REMARK VINA RESULT:      -6.4      5.904      8.707
REMARK  Name = 
REMARK  11 active torsions:
REMARK  status: ('A' for Active; 'I' for Inactive)
REMARK    1  A    between atoms: C_1  and  C_2
REMARK    2  A    between atoms: C_2  and  N_3
REMARK    3  A    between atoms: N_3  and  C_4
REMARK    4  A    between atoms: C_4  and  C_5
REMARK    5  A    between atoms: C_6  and  C_8
REMARK    6  A    between atoms: C_8  and  S_9
REMARK    7  A    between atoms: S_9  and  C_10
REMARK    8  A    between atoms: C_13  and  C_14
REMARK    9  A    between atoms: C_14  and  N_15
REMARK   10  A    between atoms: C_14  and  C_16
REMARK   11  A    between atoms: C_16  and  C_17
REMARK                            x       y       z     vdW  Elec       q    Type
REMARK                         _______ _______ _______ _____ _____    ______ ____
ROOT
ATOM      1  C   UNL     1       8.182   8.339  18.228  0.00  0.00    +0.000 A 
ATOM      2  N   UNL     1       7.474   8.547  17.103  0.00  0.00    +0.000 NA
ATOM      3  N   UNL     1       6.936   7.383  16.781  0.00  0.00    +0.000 NA
ATOM      4  C   UNL     1       7.333   6.505  17.723  0.00  0.00    +0.000 A 
ATOM      5  O   UNL     1       8.099   7.088  18.616  0.00  0.00    +0.000 OA
ENDROOT
BRANCH   1   6
ATOM      6  S   UNL     1       9.123   9.598  19.105  0.00  0.00    +0.000 S 
BRANCH   6   7
ATOM      7  C   UNL     1       8.821  10.955  17.908  0.00  0.00    +0.000 C 
BRANCH   7   9
ATOM      8  N   UNL     1       9.713  13.321  18.080  0.00  0.00    +0.000 N 
ATOM      9  C   UNL     1       9.950  11.972  17.891  0.00  0.00    +0.000 C 
ATOM     10  O   UNL     1      11.091  11.567  17.724  0.00  0.00    +0.000 OA
BRANCH   8  12
ATOM     11  C   UNL     1      11.376  14.566  19.489  0.00  0.00    +0.000 C 
ATOM     12  C   UNL     1      10.852  14.258  18.079  0.00  0.00    +0.000 C 
ENDBRANCH   8  12
BRANCH   8  13
ATOM     13  C   UNL     1       8.326  13.758  18.326  0.00  0.00    +0.000 C 
ATOM     14  C   UNL     1       7.985  15.212  17.977  0.00  0.00    +0.000 C 
ENDBRANCH   8  13
ENDBRANCH   7   9
ENDBRANCH   6   7
ENDBRANCH   1   6
BRANCH   4  15
ATOM     15  C   UNL     1       6.949   5.046  17.755  0.00  0.00    +0.000 C 
BRANCH  15  16
ATOM     16  N   UNL     1       8.147   4.206  17.778  0.00  0.00    +0.000 NA
ATOM     17  H   UNL     1       7.932   3.282  18.222  0.00  0.00    +0.000 HD
ATOM     18  H   UNL     1       8.900   4.680  18.329  0.00  0.00    +0.000 HD
ENDBRANCH  15  16
BRANCH  15  19
ATOM     19  C   UNL     1       6.056   4.736  18.977  0.00  0.00    +0.000 C 
BRANCH  19  20
ATOM     20  C   UNL     1       4.834   3.923  18.618  0.00  0.00    +0.000 A 
ATOM     21  C   UNL     1       4.108   4.224  17.452  0.00  0.00    +0.000 A 
ATOM     22  C   UNL     1       2.982   3.471  17.109  0.00  0.00    +0.000 A 
ATOM     23  C   UNL     1       2.570   2.414  17.924  0.00  0.00    +0.000 A 
ATOM     24  C   UNL     1       3.287   2.106  19.084  0.00  0.00    +0.000 A 
ATOM     25  C   UNL     1       4.416   2.854  19.430  0.00  0.00    +0.000 A 
ENDBRANCH  19  20
ENDBRANCH  15  19
ENDBRANCH   4  15
TORSDOF 9
ENDMDL
MODEL 3
REMARK VINA RESULT:      -6.4      5.823      8.652
REMARK  Name = 
REMARK  11 active torsions:
REMARK  status: ('A' for Active; 'I' for Inactive)
REMARK    1  A    between atoms: C_1  and  C_2
REMARK    2  A    between atoms: C_2  and  N_3
REMARK    3  A    between atoms: N_3  and  C_4
REMARK    4  A    between atoms: C_4  and  C_5
REMARK    5  A    between atoms: C_6  and  C_8
REMARK    6  A    between atoms: C_8  and  S_9
REMARK    7  A    between atoms: S_9  and  C_10
REMARK    8  A    between atoms: C_13  and  C_14
REMARK    9  A    between atoms: C_14  and  N_15
REMARK   10  A    between atoms: C_14  and  C_16
REMARK   11  A    between atoms: C_16  and  C_17
REMARK                            x       y       z     vdW  Elec       q    Type
REMARK                         _______ _______ _______ _____ _____    ______ ____
ROOT
ATOM      1  C   UNL     1       8.187   8.307  18.267  0.00  0.00    +0.000 A 
ATOM      2  N   UNL     1       7.473   8.535  17.149  0.00  0.00    +0.000 NA
ATOM      3  N   UNL     1       6.936   7.376  16.808  0.00  0.00    +0.000 NA
ATOM      4  C   UNL     1       7.338   6.481  17.731  0.00  0.00    +0.000 A 
ATOM      5  O   UNL     1       8.109   7.049  18.631  0.00  0.00    +0.000 OA
ENDROOT
BRANCH   1   6
ATOM      6  S   UNL     1       9.130   9.550  19.163  0.00  0.00    +0.000 S 
BRANCH   6   7
ATOM      7  C   UNL     1       8.861  10.916  17.969  0.00  0.00    +0.000 C 
BRANCH   7   9
ATOM      8  N   UNL     1       9.813  13.230  18.377  0.00  0.00    +0.000 N 
ATOM      9  C   UNL     1      10.001  11.922  17.974  0.00  0.00    +0.000 C 
ATOM     10  O   UNL     1      11.110  11.540  17.628  0.00  0.00    +0.000 OA
BRANCH   8  12
ATOM     11  C   UNL     1      11.088  14.966  17.088  0.00  0.00    +0.000 C 
ATOM     12  C   UNL     1      10.962  14.154  18.385  0.00  0.00    +0.000 C 
ENDBRANCH   8  12
BRANCH   8  13
ATOM     13  C   UNL     1       8.469  13.633  18.832  0.00  0.00    +0.000 C 
ATOM     14  C   UNL     1       7.552  14.289  17.793  0.00  0.00    +0.000 C 
ENDBRANCH   8  13
ENDBRANCH   7   9
ENDBRANCH   6   7
ENDBRANCH   1   6
BRANCH   4  15
ATOM     15  C   UNL     1       6.958   5.021  17.737  0.00  0.00    +0.000 C 
BRANCH  15  16
ATOM     16  N   UNL     1       8.156   4.183  17.689  0.00  0.00    +0.000 NA
ATOM     17  H   UNL     1       8.516   4.124  16.708  0.00  0.00    +0.000 HD
ATOM     18  H   UNL     1       7.926   3.218  18.025  0.00  0.00    +0.000 HD
ENDBRANCH  15  16
BRANCH  15  19
ATOM     19  C   UNL     1       6.112   4.675  18.983  0.00  0.00    +0.000 C 
BRANCH  19  20
ATOM     20  C   UNL     1       4.852   3.916  18.642  0.00  0.00    +0.000 A 
ATOM     21  C   UNL     1       4.333   2.974  19.549  0.00  0.00    +0.000 A 
ATOM     22  C   UNL     1       3.162   2.274  19.245  0.00  0.00    +0.000 A 
ATOM     23  C   UNL     1       2.500   2.505  18.037  0.00  0.00    +0.000 A 
ATOM     24  C   UNL     1       3.008   3.441  17.130  0.00  0.00    +0.000 A 
ATOM     25  C   UNL     1       4.177   4.146  17.432  0.00  0.00    +0.000 A 
ENDBRANCH  19  20
ENDBRANCH  15  19
ENDBRANCH   4  15
TORSDOF 9
ENDMDL
MODEL 4
REMARK VINA RESULT:      -6.3      2.258      6.955
REMARK  Name = 
REMARK  11 active torsions:
REMARK  status: ('A' for Active; 'I' for Inactive)
REMARK    1  A    between atoms: C_1  and  C_2
REMARK    2  A    between atoms: C_2  and  N_3
REMARK    3  A    between atoms: N_3  and  C_4
REMARK    4  A    between atoms: C_4  and  C_5
REMARK    5  A    between atoms: C_6  and  C_8
REMARK    6  A    between atoms: C_8  and  S_9
REMARK    7  A    between atoms: S_9  and  C_10
REMARK    8  A    between atoms: C_13  and  C_14
REMARK    9  A    between atoms: C_14  and  N_15
REMARK   10  A    between atoms: C_14  and  C_16
REMARK   11  A    between atoms: C_16  and  C_17
REMARK                            x       y       z     vdW  Elec       q    Type
REMARK                         _______ _______ _______ _____ _____    ______ ____
ROOT
ATOM      1  C   UNL     1       5.712   4.392  17.441  0.00  0.00    +0.000 A 
ATOM      2  N   UNL     1       5.871   4.102  18.745  0.00  0.00    +0.000 NA
ATOM      3  N   UNL     1       4.842   3.346  19.086  0.00  0.00    +0.000 NA
ATOM      4  C   UNL     1       4.092   3.199  17.977  0.00  0.00    +0.000 A 
ATOM      5  O   UNL     1       4.622   3.840  16.961  0.00  0.00    +0.000 OA
ENDROOT
BRANCH   1   6
ATOM      6  S   UNL     1       6.836   5.401  16.461  0.00  0.00    +0.000 S 
BRANCH   6   7
ATOM      7  C   UNL     1       5.948   5.214  14.867  0.00  0.00    +0.000 C 
BRANCH   7   9
ATOM      8  N   UNL     1       6.500   3.909  12.765  0.00  0.00    +0.000 N 
ATOM      9  C   UNL     1       6.878   4.823  13.730  0.00  0.00    +0.000 C 
ATOM     10  O   UNL     1       7.977   5.357  13.673  0.00  0.00    +0.000 OA
BRANCH   8  12
ATOM     11  C   UNL     1       7.372   2.116  11.240  0.00  0.00    +0.000 C 
ATOM     12  C   UNL     1       7.435   3.589  11.671  0.00  0.00    +0.000 C 
ENDBRANCH   8  12
BRANCH   8  13
ATOM     13  C   UNL     1       5.147   3.328  12.847  0.00  0.00    +0.000 C 
ATOM     14  C   UNL     1       4.247   3.488  11.616  0.00  0.00    +0.000 C 
ENDBRANCH   8  13
ENDBRANCH   7   9
ENDBRANCH   6   7
ENDBRANCH   1   6
BRANCH   4  15
ATOM     15  C   UNL     1       2.812   2.402  17.904  0.00  0.00    +0.000 C 
BRANCH  15  16
ATOM     16  N   UNL     1       2.725   1.475  19.032  0.00  0.00    +0.000 NA
ATOM     17  H   UNL     1       2.080   0.683  18.801  0.00  0.00    +0.000 HD
ATOM     18  H   UNL     1       2.357   1.976  19.874  0.00  0.00    +0.000 HD
ENDBRANCH  15  16
BRANCH  15  19
ATOM     19  C   UNL     1       1.580   3.335  17.882  0.00  0.00    +0.000 C 
BRANCH  19  20
ATOM     20  C   UNL     1       1.794   4.604  18.674  0.00  0.00    +0.000 A 
ATOM     21  C   UNL     1       2.235   5.771  18.025  0.00  0.00    +0.000 A 
ATOM     22  C   UNL     1       2.426   6.951  18.749  0.00  0.00    +0.000 A 
ATOM     23  C   UNL     1       2.181   6.977  20.124  0.00  0.00    +0.000 A 
ATOM     24  C   UNL     1       1.741   5.822  20.777  0.00  0.00    +0.000 A 
ATOM     25  C   UNL     1       1.544   4.640  20.056  0.00  0.00    +0.000 A 
ENDBRANCH  19  20
ENDBRANCH  15  19
ENDBRANCH   4  15
TORSDOF 9
ENDMDL
MODEL 5
REMARK VINA RESULT:      -6.3      5.734      8.360
REMARK  Name = 
REMARK  11 active torsions:
REMARK  status: ('A' for Active; 'I' for Inactive)
REMARK    1  A    between atoms: C_1  and  C_2
REMARK    2  A    between atoms: C_2  and  N_3
REMARK    3  A    between atoms: N_3  and  C_4
REMARK    4  A    between atoms: C_4  and  C_5
REMARK    5  A    between atoms: C_6  and  C_8
REMARK    6  A    between atoms: C_8  and  S_9
REMARK    7  A    between atoms: S_9  and  C_10
REMARK    8  A    between atoms: C_13  and  C_14
REMARK    9  A    between atoms: C_14  and  N_15
REMARK   10  A    between atoms: C_14  and  C_16
REMARK   11  A    between atoms: C_16  and  C_17
REMARK                            x       y       z     vdW  Elec       q    Type
REMARK                         _______ _______ _______ _____ _____    ______ ____
ROOT
ATOM      1  C   UNL     1       8.116   8.550  17.922  0.00  0.00    +0.000 A 
ATOM      2  N   UNL     1       8.455   7.698  18.907  0.00  0.00    +0.000 NA
ATOM      3  N   UNL     1       7.943   6.525  18.577  0.00  0.00    +0.000 NA
ATOM      4  C   UNL     1       7.311   6.702  17.400  0.00  0.00    +0.000 A 
ATOM      5  O   UNL     1       7.414   7.946  16.992  0.00  0.00    +0.000 OA
ENDROOT
BRANCH   1   6
ATOM      6  S   UNL     1       8.559  10.294  17.865  0.00  0.00    +0.000 S 
BRANCH   6   7
ATOM      7  C   UNL     1       9.468  10.330  19.458  0.00  0.00    +0.000 C 
BRANCH   7   9
ATOM      8  N   UNL     1      10.105  12.661  20.224  0.00  0.00    +0.000 N 
ATOM      9  C   UNL     1      10.432  11.501  19.547  0.00  0.00    +0.000 C 
ATOM     10  O   UNL     1      11.528  11.389  19.016  0.00  0.00    +0.000 OA
BRANCH   8  12
ATOM     11  C   UNL     1      10.608  14.942  21.143  0.00  0.00    +0.000 C 
ATOM     12  C   UNL     1      11.092  13.754  20.298  0.00  0.00    +0.000 C 
ENDBRANCH   8  12
BRANCH   8  13
ATOM     13  C   UNL     1       8.791  12.732  20.889  0.00  0.00    +0.000 C 
ATOM     14  C   UNL     1       8.695  12.141  22.301  0.00  0.00    +0.000 C 
ENDBRANCH   8  13
ENDBRANCH   7   9
ENDBRANCH   6   7
ENDBRANCH   1   6
BRANCH   4  15
ATOM     15  C   UNL     1       6.581   5.618  16.644  0.00  0.00    +0.000 C 
BRANCH  15  16
ATOM     16  N   UNL     1       7.464   5.010  15.649  0.00  0.00    +0.000 NA
ATOM     17  H   UNL     1       7.106   5.202  14.684  0.00  0.00    +0.000 HD
ATOM     18  H   UNL     1       7.502   3.974  15.796  0.00  0.00    +0.000 HD
ENDBRANCH  15  16
BRANCH  15  19
ATOM     19  C   UNL     1       6.041   4.539  17.610  0.00  0.00    +0.000 C 
BRANCH  19  20
ATOM     20  C   UNL     1       4.531   4.505  17.663  0.00  0.00    +0.000 A 
ATOM     21  C   UNL     1       3.816   5.647  18.065  0.00  0.00    +0.000 A 
ATOM     22  C   UNL     1       2.420   5.626  18.109  0.00  0.00    +0.000 A 
ATOM     23  C   UNL     1       1.725   4.467  17.753  0.00  0.00    +0.000 A 
ATOM     24  C   UNL     1       2.428   3.327  17.351  0.00  0.00    +0.000 A 
ATOM     25  C   UNL     1       3.825   3.345  17.302  0.00  0.00    +0.000 A 
ENDBRANCH  19  20
ENDBRANCH  15  19
ENDBRANCH   4  15
TORSDOF 9
ENDMDL
MODEL 6
REMARK VINA RESULT:      -6.3      1.874      3.091
REMARK  Name = 
REMARK  11 active torsions:
REMARK  status: ('A' for Active; 'I' for Inactive)
REMARK    1  A    between atoms: C_1  and  C_2
REMARK    2  A    between atoms: C_2  and  N_3
REMARK    3  A    between atoms: N_3  and  C_4
REMARK    4  A    between atoms: C_4  and  C_5
REMARK    5  A    between atoms: C_6  and  C_8
REMARK    6  A    between atoms: C_8  and  S_9
REMARK    7  A    between atoms: S_9  and  C_10
REMARK    8  A    between atoms: C_13  and  C_14
REMARK    9  A    between atoms: C_14  and  N_15
REMARK   10  A    between atoms: C_14  and  C_16
REMARK   11  A    between atoms: C_16  and  C_17
REMARK                            x       y       z     vdW  Elec       q    Type
REMARK                         _______ _______ _______ _____ _____    ______ ____
ROOT
ATOM      1  C   UNL     1       4.063   3.278  18.400  0.00  0.00    +0.000 A 
ATOM      2  N   UNL     1       4.865   3.307  19.480  0.00  0.00    +0.000 NA
ATOM      3  N   UNL     1       5.936   3.999  19.130  0.00  0.00    +0.000 NA
ATOM      4  C   UNL     1       5.748   4.372  17.849  0.00  0.00    +0.000 A 
ATOM      5  O   UNL     1       4.597   3.931  17.395  0.00  0.00    +0.000 OA
ENDROOT
BRANCH   1   6
ATOM      6  S   UNL     1       2.461   2.461  18.324  0.00  0.00    +0.000 S 
BRANCH   6   7
ATOM      7  C   UNL     1       1.451   3.990  18.240  0.00  0.00    +0.000 C 
BRANCH   7   9
ATOM      8  N   UNL     1       2.133   6.050  19.550  0.00  0.00    +0.000 N 
ATOM      9  C   UNL     1       1.531   4.807  19.519  0.00  0.00    +0.000 C 
ATOM     10  O   UNL     1       1.026   4.344  20.533  0.00  0.00    +0.000 OA
BRANCH   8  12
ATOM     11  C   UNL     1       0.994   7.803  20.940  0.00  0.00    +0.000 C 
ATOM     12  C   UNL     1       2.157   6.807  20.815  0.00  0.00    +0.000 C 
ENDBRANCH   8  12
BRANCH   8  13
ATOM     13  C   UNL     1       2.684   6.589  18.293  0.00  0.00    +0.000 C 
ATOM     14  C   UNL     1       2.196   7.977  17.859  0.00  0.00    +0.000 C 
ENDBRANCH   8  13
ENDBRANCH   7   9
ENDBRANCH   6   7
ENDBRANCH   1   6
BRANCH   4  15
ATOM     15  C   UNL     1       6.725   5.188  17.038  0.00  0.00    +0.000 C 
BRANCH  15  16
ATOM     16  N   UNL     1       7.840   4.352  16.595  0.00  0.00    +0.000 NA
ATOM     17  H   UNL     1       8.514   4.919  16.029  0.00  0.00    +0.000 HD
ATOM     18  H   UNL     1       7.480   3.567  16.003  0.00  0.00    +0.000 HD
ENDBRANCH  15  16
BRANCH  15  19
ATOM     19  C   UNL     1       6.027   5.838  15.823  0.00  0.00    +0.000 C 
BRANCH  19  20
ATOM     20  C   UNL     1       6.321   5.120  14.526  0.00  0.00    +0.000 A 
ATOM     21  C   UNL     1       7.446   5.482  13.764  0.00  0.00    +0.000 A 
ATOM     22  C   UNL     1       7.730   4.817  12.568  0.00  0.00    +0.000 A 
ATOM     23  C   UNL     1       6.896   3.789  12.122  0.00  0.00    +0.000 A 
ATOM     24  C   UNL     1       5.776   3.422  12.875  0.00  0.00    +0.000 A 
ATOM     25  C   UNL     1       5.490   4.082  14.074  0.00  0.00    +0.000 A 
ENDBRANCH  19  20
ENDBRANCH  15  19
ENDBRANCH   4  15
TORSDOF 9
ENDMDL
MODEL 7
REMARK VINA RESULT:      -6.2      5.638      7.122
REMARK  Name = 
REMARK  11 active torsions:
REMARK  status: ('A' for Active; 'I' for Inactive)
REMARK    1  A    between atoms: C_1  and  C_2
REMARK    2  A    between atoms: C_2  and  N_3
REMARK    3  A    between atoms: N_3  and  C_4
REMARK    4  A    between atoms: C_4  and  C_5
REMARK    5  A    between atoms: C_6  and  C_8
REMARK    6  A    between atoms: C_8  and  S_9
REMARK    7  A    between atoms: S_9  and  C_10
REMARK    8  A    between atoms: C_13  and  C_14
REMARK    9  A    between atoms: C_14  and  N_15
REMARK   10  A    between atoms: C_14  and  C_16
REMARK   11  A    between atoms: C_16  and  C_17
REMARK                            x       y       z     vdW  Elec       q    Type
REMARK                         _______ _______ _______ _____ _____    ______ ____
ROOT
ATOM      1  C   UNL     1       7.349   6.635  18.132  0.00  0.00    +0.000 A 
ATOM      2  N   UNL     1       6.587   7.194  17.175  0.00  0.00    +0.000 NA
ATOM      3  N   UNL     1       7.018   8.436  17.033  0.00  0.00    +0.000 NA
ATOM      4  C   UNL     1       8.031   8.591  17.908  0.00  0.00    +0.000 A 
ATOM      5  O   UNL     1       8.239   7.486  18.587  0.00  0.00    +0.000 OA
ENDROOT
BRANCH   1   6
ATOM      6  S   UNL     1       7.189   4.944  18.725  0.00  0.00    +0.000 S 
BRANCH   6   7
ATOM      7  C   UNL     1       5.437   4.715  18.233  0.00  0.00    +0.000 C 
BRANCH   7   9
ATOM      8  N   UNL     1       3.332   3.903  19.387  0.00  0.00    +0.000 N 
ATOM      9  C   UNL     1       4.691   3.779  19.169  0.00  0.00    +0.000 C 
ATOM     10  O   UNL     1       5.322   2.888  19.720  0.00  0.00    +0.000 OA
BRANCH   8  12
ATOM     11  C   UNL     1       2.039   3.624  21.520  0.00  0.00    +0.000 C 
ATOM     12  C   UNL     1       2.657   2.949  20.287  0.00  0.00    +0.000 C 
ENDBRANCH   8  12
BRANCH   8  13
ATOM     13  C   UNL     1       2.603   4.962  18.664  0.00  0.00    +0.000 C 
ATOM     14  C   UNL     1       1.494   4.510  17.705  0.00  0.00    +0.000 C 
ENDBRANCH   8  13
ENDBRANCH   7   9
ENDBRANCH   6   7
ENDBRANCH   1   6
BRANCH   4  15
ATOM     15  C   UNL     1       8.826   9.861  18.087  0.00  0.00    +0.000 C 
BRANCH  15  16
ATOM     16  N   UNL     1       8.060  11.012  17.607  0.00  0.00    +0.000 NA
ATOM     17  H   UNL     1       7.114  11.028  18.055  0.00  0.00    +0.000 HD
ATOM     18  H   UNL     1       7.941  10.949  16.569  0.00  0.00    +0.000 HD
ENDBRANCH  15  16
BRANCH  15  19
ATOM     19  C   UNL     1       9.222  10.061  19.567  0.00  0.00    +0.000 C 
BRANCH  19  20
ATOM     20  C   UNL     1       9.979  11.347  19.801  0.00  0.00    +0.000 A 
ATOM     21  C   UNL     1       9.461  12.317  20.678  0.00  0.00    +0.000 A 
ATOM     22  C   UNL     1      10.160  13.505  20.907  0.00  0.00    +0.000 A 
ATOM     23  C   UNL     1      11.378  13.737  20.264  0.00  0.00    +0.000 A 
ATOM     24  C   UNL     1      11.901  12.778  19.392  0.00  0.00    +0.000 A 
ATOM     25  C   UNL     1      11.208  11.586  19.163  0.00  0.00    +0.000 A 
ENDBRANCH  19  20
ENDBRANCH  15  19
ENDBRANCH   4  15
TORSDOF 9
ENDMDL
MODEL 8
REMARK VINA RESULT:      -6.1      6.220      8.898
REMARK  Name = 
REMARK  11 active torsions:
REMARK  status: ('A' for Active; 'I' for Inactive)
REMARK    1  A    between atoms: C_1  and  C_2
REMARK    2  A    between atoms: C_2  and  N_3
REMARK    3  A    between atoms: N_3  and  C_4
REMARK    4  A    between atoms: C_4  and  C_5
REMARK    5  A    between atoms: C_6  and  C_8
REMARK    6  A    between atoms: C_8  and  S_9
REMARK    7  A    between atoms: S_9  and  C_10
REMARK    8  A    between atoms: C_13  and  C_14
REMARK    9  A    between atoms: C_14  and  N_15
REMARK   10  A    between atoms: C_14  and  C_16
REMARK   11  A    between atoms: C_16  and  C_17
REMARK                            x       y       z     vdW  Elec       q    Type
REMARK                         _______ _______ _______ _____ _____    ______ ____
ROOT
ATOM      1  C   UNL     1       8.528   8.911  18.461  0.00  0.00    +0.000 A 
ATOM      2  N   UNL     1       7.841   8.995  17.307  0.00  0.00    +0.000 NA
ATOM      3  N   UNL     1       7.362   7.785  17.071  0.00  0.00    +0.000 NA
ATOM      4  C   UNL     1       7.772   7.006  18.091  0.00  0.00    +0.000 A 
ATOM      5  O   UNL     1       8.490   7.694  18.949  0.00  0.00    +0.000 OA
ENDROOT
BRANCH   1   6
ATOM      6  S   UNL     1       9.392  10.278  19.251  0.00  0.00    +0.000 S 
BRANCH   6   7
ATOM      7  C   UNL     1       9.022  11.530  17.963  0.00  0.00    +0.000 C 
BRANCH   7   9
ATOM      8  N   UNL     1       9.858  13.904  18.267  0.00  0.00    +0.000 N 
ATOM      9  C   UNL     1      10.097  12.601  17.872  0.00  0.00    +0.000 C 
ATOM     10  O   UNL     1      11.200  12.280  17.454  0.00  0.00    +0.000 OA
BRANCH   8  12
ATOM     11  C   UNL     1      10.944  15.673  16.856  0.00  0.00    +0.000 C 
ATOM     12  C   UNL     1      10.948  14.894  18.180  0.00  0.00    +0.000 C 
ENDBRANCH   8  12
BRANCH   8  13
ATOM     13  C   UNL     1       8.528  14.235  18.810  0.00  0.00    +0.000 C 
ATOM     14  C   UNL     1       7.526  14.882  17.845  0.00  0.00    +0.000 C 
ENDBRANCH   8  13
ENDBRANCH   7   9
ENDBRANCH   6   7
ENDBRANCH   1   6
BRANCH   4  15
ATOM     15  C   UNL     1       7.451   5.538  18.235  0.00  0.00    +0.000 C 
BRANCH  15  16
ATOM     16  N   UNL     1       6.790   5.286  19.516  0.00  0.00    +0.000 NA
ATOM     17  H   UNL     1       5.817   5.672  19.502  0.00  0.00    +0.000 HD
ATOM     18  H   UNL     1       7.326   5.749  20.287  0.00  0.00    +0.000 HD
ENDBRANCH  15  16
BRANCH  15  19
ATOM     19  C   UNL     1       6.562   5.050  17.069  0.00  0.00    +0.000 C 
BRANCH  19  20
ATOM     20  C   UNL     1       5.101   4.963  17.444  0.00  0.00    +0.000 A 
ATOM     21  C   UNL     1       4.343   6.138  17.591  0.00  0.00    +0.000 A 
ATOM     22  C   UNL     1       2.988   6.066  17.929  0.00  0.00    +0.000 A 
ATOM     23  C   UNL     1       2.380   4.823  18.124  0.00  0.00    +0.000 A 
ATOM     24  C   UNL     1       3.126   3.650  17.979  0.00  0.00    +0.000 A 
ATOM     25  C   UNL     1       4.480   3.717  17.637  0.00  0.00    +0.000 A 
ENDBRANCH  19  20
ENDBRANCH  15  19
ENDBRANCH   4  15
TORSDOF 9
ENDMDL
MODEL 9
REMARK VINA RESULT:      -6.1      4.972      8.237
REMARK  Name = 
REMARK  11 active torsions:
REMARK  status: ('A' for Active; 'I' for Inactive)
REMARK    1  A    between atoms: C_1  and  C_2
REMARK    2  A    between atoms: C_2  and  N_3
REMARK    3  A    between atoms: N_3  and  C_4
REMARK    4  A    between atoms: C_4  and  C_5
REMARK    5  A    between atoms: C_6  and  C_8
REMARK    6  A    between atoms: C_8  and  S_9
REMARK    7  A    between atoms: S_9  and  C_10
REMARK    8  A    between atoms: C_13  and  C_14
REMARK    9  A    between atoms: C_14  and  N_15
REMARK   10  A    between atoms: C_14  and  C_16
REMARK   11  A    between atoms: C_16  and  C_17
REMARK                            x       y       z     vdW  Elec       q    Type
REMARK                         _______ _______ _______ _____ _____    ______ ____
ROOT
ATOM      1  C   UNL     1       7.516   7.293  18.054  0.00  0.00    +0.000 A 
ATOM      2  N   UNL     1       8.181   6.537  18.946  0.00  0.00    +0.000 NA
ATOM      3  N   UNL     1       7.482   5.423  19.084  0.00  0.00    +0.000 NA
ATOM      4  C   UNL     1       6.416   5.538  18.268  0.00  0.00    +0.000 A 
ATOM      5  O   UNL     1       6.432   6.687  17.631  0.00  0.00    +0.000 OA
ENDROOT
BRANCH   1   6
ATOM      6  S   UNL     1       8.031   8.925  17.495  0.00  0.00    +0.000 S 
BRANCH   6   7
ATOM      7  C   UNL     1       8.907   9.405  19.033  0.00  0.00    +0.000 C 
BRANCH   7   9
ATOM      8  N   UNL     1       9.639  11.640  19.978  0.00  0.00    +0.000 N 
ATOM      9  C   UNL     1       9.583  10.761  18.914  0.00  0.00    +0.000 C 
ATOM     10  O   UNL     1      10.103  11.056  17.847  0.00  0.00    +0.000 OA
BRANCH   8  12
ATOM     11  C   UNL     1       9.426  14.025  19.225  0.00  0.00    +0.000 C 
ATOM     12  C   UNL     1      10.331  12.931  19.811  0.00  0.00    +0.000 C 
ENDBRANCH   8  12
BRANCH   8  13
ATOM     13  C   UNL     1       9.040  11.222  21.260  0.00  0.00    +0.000 C 
ATOM     14  C   UNL     1       8.854  12.309  22.326  0.00  0.00    +0.000 C 
ENDBRANCH   8  13
ENDBRANCH   7   9
ENDBRANCH   6   7
ENDBRANCH   1   6
BRANCH   4  15
ATOM     15  C   UNL     1       5.343   4.489  18.101  0.00  0.00    +0.000 C 
BRANCH  15  16
ATOM     16  N   UNL     1       5.321   3.596  19.261  0.00  0.00    +0.000 NA
ATOM     17  H   UNL     1       6.258   3.589  19.728  0.00  0.00    +0.000 HD
ATOM     18  H   UNL     1       5.088   2.623  18.953  0.00  0.00    +0.000 HD
ENDBRANCH  15  16
BRANCH  15  19
ATOM     19  C   UNL     1       3.957   5.142  17.902  0.00  0.00    +0.000 C 
BRANCH  19  20
ATOM     20  C   UNL     1       2.845   4.371  18.573  0.00  0.00    +0.000 A 
ATOM     21  C   UNL     1       2.332   4.808  19.807  0.00  0.00    +0.000 A 
ATOM     22  C   UNL     1       1.297   4.105  20.430  0.00  0.00    +0.000 A 
ATOM     23  C   UNL     1       0.767   2.961  19.828  0.00  0.00    +0.000 A 
ATOM     24  C   UNL     1       1.269   2.520  18.601  0.00  0.00    +0.000 A 
ATOM     25  C   UNL     1       2.302   3.222  17.972  0.00  0.00    +0.000 A 
ENDBRANCH  19  20
ENDBRANCH  15  19
ENDBRANCH   4  15
TORSDOF 9
ENDMDL
