MODEL 1
REMARK VINA RESULT:      -8.7      0.000      0.000
REMARK  Name = 
REMARK  11 active torsions:
REMARK  status: ('A' for Active; 'I' for Inactive)
REMARK    1  A    between atoms: C_1  and  O_2
REMARK    2  A    between atoms: O_2  and  C_3
REMARK    3  A    between atoms: C_10  and  C_11
REMARK    4  A    between atoms: C_11  and  O_12
REMARK    5  A    between atoms: C_11  and  C_13
REMARK    6  A    between atoms: C_13  and  C_14
REMARK    7  A    between atoms: C_14  and  C_15
REMARK    8  A    between atoms: N_18  and  C_19
REMARK    9  A    between atoms: C_21  and  C_22
REMARK   10  A    between atoms: C_29  and  C_30
REMARK   11  A    between atoms: C_30  and  O_32
REMARK                            x       y       z     vdW  Elec       q    Type
REMARK                         _______ _______ _______ _____ _____    ______ ____
ROOT
ATOM      1  C   UNL     1       2.804   5.794  19.361  0.00  0.00    +0.000 C 
ATOM      2  C   UNL     1       4.293   6.185  19.296  0.00  0.00    +0.000 C 
ATOM      3  C   UNL     1       4.923   5.844  17.945  0.00  0.00    +0.000 C 
ATOM      4  N   UNL     1       4.765   4.419  17.599  0.00  0.00    +0.000 NA
ATOM      5  C   UNL     1       3.345   4.000  17.655  0.00  0.00    +0.000 C 
ATOM      6  C   UNL     1       2.735   4.278  19.041  0.00  0.00    +0.000 C 
ENDROOT
BRANCH   4   7
ATOM      7  C   UNL     1       5.269   4.216  16.227  0.00  0.00    +0.000 C 
ATOM      8  C   UNL     1       5.298   5.570  15.475  0.00  0.00    +0.000 C 
ATOM      9  C   UNL     1       6.704   5.193  14.934  0.00  0.00    +0.000 C 
ATOM     10  C   UNL     1       6.812   4.275  16.188  0.00  0.00    +0.000 C 
BRANCH   9  11
ATOM     11  C   UNL     1       6.677   4.432  13.614  0.00  0.00    +0.000 A 
ATOM     12  C   UNL     1       7.526   4.625  12.552  0.00  0.00    +0.000 A 
ATOM     13  C   UNL     1       7.084   3.702  11.593  0.00  0.00    +0.000 A 
ATOM     14  N   UNL     1       6.038   2.991  12.018  0.00  0.00    +0.000 NA
ATOM     15  O   UNL     1       5.786   3.450  13.299  0.00  0.00    +0.000 OA
ENDBRANCH   9  11
ENDBRANCH   4   7
BRANCH   6  16
ATOM     16  C   UNL     1       1.370   3.617  19.163  0.00  0.00    +0.000 C 
ATOM     17  O   UNL     1       0.699   3.596  20.184  0.00  0.00    +0.000 OA
BRANCH  16  18
ATOM     18  O   UNL     1       0.932   3.041  18.021  0.00  0.00    +0.000 OA
ATOM     19  H   UNL     1       1.590   2.984  17.304  0.00  0.00    +0.000 HD
ENDBRANCH  16  18
ENDBRANCH   6  16
BRANCH   1  20
ATOM     20  C   UNL     1       1.941   6.726  18.455  0.00  0.00    +0.000 C 
BRANCH  20  21
ATOM     21  C   UNL     1       2.033   8.190  18.900  0.00  0.00    +0.000 C 
BRANCH  21  22
ATOM     22  C   UNL     1       1.332   9.263  18.063  0.00  0.00    +0.000 C 
BRANCH  22  30
ATOM     23  C   UNL     1      -2.876  10.121  16.694  0.00  0.00    +0.000 A 
ATOM     24  C   UNL     1      -3.643  10.976  17.466  0.00  0.00    +0.000 A 
ATOM     25  C   UNL     1      -3.088  11.552  18.610  0.00  0.00    +0.000 A 
ATOM     26  C   UNL     1      -1.790  11.286  19.024  0.00  0.00    +0.000 A 
ATOM     27  N   UNL     1      -1.376  11.908  20.136  0.00  0.00    +0.000 NA
ATOM     28  C   UNL     1      -0.113  11.703  20.547  0.00  0.00    +0.000 A 
ATOM     29  C   UNL     1       0.760  10.858  19.906  0.00  0.00    +0.000 A 
ATOM     30  C   UNL     1       0.335  10.165  18.761  0.00  0.00    +0.000 A 
ATOM     31  C   UNL     1      -0.987  10.402  18.270  0.00  0.00    +0.000 A 
ATOM     32  C   UNL     1      -1.560   9.855  17.087  0.00  0.00    +0.000 A 
BRANCH  23  34
ATOM     33  C   UNL     1      -3.399  10.269  14.387  0.00  0.00    +0.000 C 
ATOM     34  O   UNL     1      -3.297   9.474  15.565  0.00  0.00    +0.000 OA
ENDBRANCH  23  34
ENDBRANCH  22  30
BRANCH  22  35
ATOM     35  O   UNL     1       2.352  10.019  17.394  0.00  0.00    +0.000 OA
ATOM     36  H   UNL     1       1.995  10.314  16.541  0.00  0.00    +0.000 HD
ENDBRANCH  22  35
ENDBRANCH  21  22
ENDBRANCH  20  21
ENDBRANCH   1  20
TORSDOF 10
ENDMDL
MODEL 2
REMARK VINA RESULT:      -8.3      0.911      1.158
REMARK  Name = 
REMARK  11 active torsions:
REMARK  status: ('A' for Active; 'I' for Inactive)
REMARK    1  A    between atoms: C_1  and  O_2
REMARK    2  A    between atoms: O_2  and  C_3
REMARK    3  A    between atoms: C_10  and  C_11
REMARK    4  A    between atoms: C_11  and  O_12
REMARK    5  A    between atoms: C_11  and  C_13
REMARK    6  A    between atoms: C_13  and  C_14
REMARK    7  A    between atoms: C_14  and  C_15
REMARK    8  A    between atoms: N_18  and  C_19
REMARK    9  A    between atoms: C_21  and  C_22
REMARK   10  A    between atoms: C_29  and  C_30
REMARK   11  A    between atoms: C_30  and  O_32
REMARK                            x       y       z     vdW  Elec       q    Type
REMARK                         _______ _______ _______ _____ _____    ______ ____
ROOT
ATOM      1  C   UNL     1       2.597   5.509  19.546  0.00  0.00    +0.000 C 
ATOM      2  C   UNL     1       4.076   5.937  19.566  0.00  0.00    +0.000 C 
ATOM      3  C   UNL     1       4.770   5.688  18.226  0.00  0.00    +0.000 C 
ATOM      4  N   UNL     1       4.663   4.282  17.795  0.00  0.00    +0.000 NA
ATOM      5  C   UNL     1       3.253   3.828  17.767  0.00  0.00    +0.000 C 
ATOM      6  C   UNL     1       2.579   4.012  19.138  0.00  0.00    +0.000 C 
ENDROOT
BRANCH   4   7
ATOM      7  C   UNL     1       5.228   4.169  16.437  0.00  0.00    +0.000 C 
ATOM      8  C   UNL     1       5.153   5.543  15.723  0.00  0.00    +0.000 C 
ATOM      9  C   UNL     1       6.605   5.316  15.222  0.00  0.00    +0.000 C 
ATOM     10  C   UNL     1       6.759   4.373  16.454  0.00  0.00    +0.000 C 
BRANCH   9  11
ATOM     11  C   UNL     1       6.693   4.596  13.882  0.00  0.00    +0.000 A 
ATOM     12  C   UNL     1       7.548   4.906  12.852  0.00  0.00    +0.000 A 
ATOM     13  C   UNL     1       7.230   3.973  11.855  0.00  0.00    +0.000 A 
ATOM     14  N   UNL     1       6.250   3.147  12.227  0.00  0.00    +0.000 NA
ATOM     15  O   UNL     1       5.916   3.540  13.513  0.00  0.00    +0.000 OA
ENDBRANCH   9  11
ENDBRANCH   4   7
BRANCH   6  16
ATOM     16  C   UNL     1       1.228   3.314  19.165  0.00  0.00    +0.000 C 
ATOM     17  O   UNL     1       0.794   2.609  18.265  0.00  0.00    +0.000 OA
BRANCH  16  18
ATOM     18  O   UNL     1       0.519   3.526  20.296  0.00  0.00    +0.000 OA
ATOM     19  H   UNL     1      -0.426   3.288  20.246  0.00  0.00    +0.000 HD
ENDBRANCH  16  18
ENDBRANCH   6  16
BRANCH   1  20
ATOM     20  C   UNL     1       1.748   6.471  18.658  0.00  0.00    +0.000 C 
BRANCH  20  21
ATOM     21  C   UNL     1       2.285   7.906  18.706  0.00  0.00    +0.000 C 
BRANCH  21  22
ATOM     22  C   UNL     1       1.368   9.054  18.276  0.00  0.00    +0.000 C 
BRANCH  22  30
ATOM     23  C   UNL     1      -2.516  11.295  17.815  0.00  0.00    +0.000 A 
ATOM     24  C   UNL     1      -3.016  11.953  18.925  0.00  0.00    +0.000 A 
ATOM     25  C   UNL     1      -2.300  11.920  20.122  0.00  0.00    +0.000 A 
ATOM     26  C   UNL     1      -1.103  11.230  20.256  0.00  0.00    +0.000 A 
ATOM     27  N   UNL     1      -0.512  11.284  21.458  0.00  0.00    +0.000 NA
ATOM     28  C   UNL     1       0.667  10.658  21.615  0.00  0.00    +0.000 A 
ATOM     29  C   UNL     1       1.276   9.936  20.617  0.00  0.00    +0.000 A 
ATOM     30  C   UNL     1       0.656   9.834  19.361  0.00  0.00    +0.000 A 
ATOM     31  C   UNL     1      -0.575  10.532  19.149  0.00  0.00    +0.000 A 
ATOM     32  C   UNL     1      -1.302  10.608  17.927  0.00  0.00    +0.000 A 
BRANCH  23  34
ATOM     33  C   UNL     1      -4.528  11.456  16.571  0.00  0.00    +0.000 C 
ATOM     34  O   UNL     1      -3.121  11.227  16.590  0.00  0.00    +0.000 OA
ENDBRANCH  23  34
ENDBRANCH  22  30
BRANCH  22  35
ATOM     35  O   UNL     1       2.131   9.914  17.419  0.00  0.00    +0.000 OA
ATOM     36  H   UNL     1       2.797  10.364  17.963  0.00  0.00    +0.000 HD
ENDBRANCH  22  35
ENDBRANCH  21  22
ENDBRANCH  20  21
ENDBRANCH   1  20
TORSDOF 10
ENDMDL
MODEL 3
REMARK VINA RESULT:      -8.2      0.945      1.166
REMARK  Name = 
REMARK  11 active torsions:
REMARK  status: ('A' for Active; 'I' for Inactive)
REMARK    1  A    between atoms: C_1  and  O_2
REMARK    2  A    between atoms: O_2  and  C_3
REMARK    3  A    between atoms: C_10  and  C_11
REMARK    4  A    between atoms: C_11  and  O_12
REMARK    5  A    between atoms: C_11  and  C_13
REMARK    6  A    between atoms: C_13  and  C_14
REMARK    7  A    between atoms: C_14  and  C_15
REMARK    8  A    between atoms: N_18  and  C_19
REMARK    9  A    between atoms: C_21  and  C_22
REMARK   10  A    between atoms: C_29  and  C_30
REMARK   11  A    between atoms: C_30  and  O_32
REMARK                            x       y       z     vdW  Elec       q    Type
REMARK                         _______ _______ _______ _____ _____    ______ ____
ROOT
ATOM      1  C   UNL     1       3.808   5.925  18.874  0.00  0.00    +0.000 C 
ATOM      2  C   UNL     1       5.339   5.812  18.755  0.00  0.00    +0.000 C 
ATOM      3  C   UNL     1       5.778   5.295  17.385  0.00  0.00    +0.000 C 
ATOM      4  N   UNL     1       5.155   4.001  17.051  0.00  0.00    +0.000 NA
ATOM      5  C   UNL     1       3.679   4.064  17.158  0.00  0.00    +0.000 C 
ATOM      6  C   UNL     1       3.240   4.515  18.563  0.00  0.00    +0.000 C 
ENDROOT
BRANCH   4   7
ATOM      7  C   UNL     1       5.519   3.655  15.664  0.00  0.00    +0.000 C 
ATOM      8  C   UNL     1       4.867   4.664  14.685  0.00  0.00    +0.000 C 
ATOM      9  C   UNL     1       6.218   4.733  13.921  0.00  0.00    +0.000 C 
ATOM     10  C   UNL     1       6.868   4.294  15.268  0.00  0.00    +0.000 C 
BRANCH   9  11
ATOM     11  C   UNL     1       6.354   3.702  12.807  0.00  0.00    +0.000 A 
ATOM     12  C   UNL     1       5.322   3.034  12.193  0.00  0.00    +0.000 A 
ATOM     13  C   UNL     1       5.963   2.202  11.264  0.00  0.00    +0.000 A 
ATOM     14  N   UNL     1       7.290   2.333  11.297  0.00  0.00    +0.000 NA
ATOM     15  O   UNL     1       7.535   3.287  12.270  0.00  0.00    +0.000 OA
ENDBRANCH   9  11
ENDBRANCH   4   7
BRANCH   6  16
ATOM     16  C   UNL     1       1.739   4.331  18.735  0.00  0.00    +0.000 C 
ATOM     17  O   UNL     1       0.967   4.047  17.831  0.00  0.00    +0.000 OA
BRANCH  16  18
ATOM     18  O   UNL     1       1.304   4.501  20.004  0.00  0.00    +0.000 OA
ATOM     19  H   UNL     1       1.509   5.367  20.401  0.00  0.00    +0.000 HD
ENDBRANCH  16  18
ENDBRANCH   6  16
BRANCH   1  20
ATOM     20  C   UNL     1       3.263   7.093  17.995  0.00  0.00    +0.000 C 
BRANCH  20  21
ATOM     21  C   UNL     1       2.197   7.909  18.735  0.00  0.00    +0.000 C 
BRANCH  21  22
ATOM     22  C   UNL     1       1.405   8.965  17.962  0.00  0.00    +0.000 C 
BRANCH  22  30
ATOM     23  C   UNL     1      -2.802  10.186  16.897  0.00  0.00    +0.000 A 
ATOM     24  C   UNL     1      -3.454  11.062  17.747  0.00  0.00    +0.000 A 
ATOM     25  C   UNL     1      -2.788  11.546  18.874  0.00  0.00    +0.000 A 
ATOM     26  C   UNL     1      -1.492  11.169  19.194  0.00  0.00    +0.000 A 
ATOM     27  N   UNL     1      -0.965  11.712  20.300  0.00  0.00    +0.000 NA
ATOM     28  C   UNL     1       0.301  11.399  20.622  0.00  0.00    +0.000 A 
ATOM     29  C   UNL     1       1.068  10.519  19.896  0.00  0.00    +0.000 A 
ATOM     30  C   UNL     1       0.523   9.907  18.755  0.00  0.00    +0.000 A 
ATOM     31  C   UNL     1      -0.805  10.262  18.359  0.00  0.00    +0.000 A 
ATOM     32  C   UNL     1      -1.488   9.807  17.195  0.00  0.00    +0.000 A 
BRANCH  23  34
ATOM     33  C   UNL     1      -3.189  10.358  14.564  0.00  0.00    +0.000 C 
ATOM     34  O   UNL     1      -3.338   9.619  15.774  0.00  0.00    +0.000 OA
ENDBRANCH  23  34
ENDBRANCH  22  30
BRANCH  22  35
ATOM     35  O   UNL     1       2.335   9.680  17.136  0.00  0.00    +0.000 OA
ATOM     36  H   UNL     1       2.666  10.437  17.644  0.00  0.00    +0.000 HD
ENDBRANCH  22  35
ENDBRANCH  21  22
ENDBRANCH  20  21
ENDBRANCH   1  20
TORSDOF 10
ENDMDL
MODEL 4
REMARK VINA RESULT:      -8.1      1.609      2.178
REMARK  Name = 
REMARK  11 active torsions:
REMARK  status: ('A' for Active; 'I' for Inactive)
REMARK    1  A    between atoms: C_1  and  O_2
REMARK    2  A    between atoms: O_2  and  C_3
REMARK    3  A    between atoms: C_10  and  C_11
REMARK    4  A    between atoms: C_11  and  O_12
REMARK    5  A    between atoms: C_11  and  C_13
REMARK    6  A    between atoms: C_13  and  C_14
REMARK    7  A    between atoms: C_14  and  C_15
REMARK    8  A    between atoms: N_18  and  C_19
REMARK    9  A    between atoms: C_21  and  C_22
REMARK   10  A    between atoms: C_29  and  C_30
REMARK   11  A    between atoms: C_30  and  O_32
REMARK                            x       y       z     vdW  Elec       q    Type
REMARK                         _______ _______ _______ _____ _____    ______ ____
ROOT
ATOM      1  C   UNL     1       2.695   4.782  19.902  0.00  0.00    +0.000 C 
ATOM      2  C   UNL     1       4.190   5.141  19.991  0.00  0.00    +0.000 C 
ATOM      3  C   UNL     1       4.877   5.104  18.625  0.00  0.00    +0.000 C 
ATOM      4  N   UNL     1       4.716   3.800  17.955  0.00  0.00    +0.000 NA
ATOM      5  C   UNL     1       3.289   3.414  17.853  0.00  0.00    +0.000 C 
ATOM      6  C   UNL     1       2.620   3.381  19.239  0.00  0.00    +0.000 C 
ENDROOT
BRANCH   4   7
ATOM      7  C   UNL     1       5.280   3.905  16.596  0.00  0.00    +0.000 C 
ATOM      8  C   UNL     1       4.965   5.303  16.005  0.00  0.00    +0.000 C 
ATOM      9  C   UNL     1       6.431   5.372  15.495  0.00  0.00    +0.000 C 
ATOM     10  C   UNL     1       6.753   4.365  16.640  0.00  0.00    +0.000 C 
BRANCH   9  11
ATOM     11  C   UNL     1       6.628   4.798  14.097  0.00  0.00    +0.000 A 
ATOM     12  C   UNL     1       5.901   3.780  13.530  0.00  0.00    +0.000 A 
ATOM     13  C   UNL     1       6.474   3.621  12.260  0.00  0.00    +0.000 A 
ATOM     14  N   UNL     1       7.483   4.467  12.050  0.00  0.00    +0.000 NA
ATOM     15  O   UNL     1       7.576   5.216  13.211  0.00  0.00    +0.000 OA
ENDBRANCH   9  11
ENDBRANCH   4   7
BRANCH   6  16
ATOM     16  C   UNL     1       1.242   2.743  19.149  0.00  0.00    +0.000 C 
ATOM     17  O   UNL     1       0.817   2.147  18.170  0.00  0.00    +0.000 OA
BRANCH  16  18
ATOM     18  O   UNL     1       0.496   2.878  20.269  0.00  0.00    +0.000 OA
ATOM     19  H   UNL     1      -0.390   2.473  20.229  0.00  0.00    +0.000 HD
ENDBRANCH  16  18
ENDBRANCH   6  16
BRANCH   1  20
ATOM     20  C   UNL     1       1.887   5.918  19.200  0.00  0.00    +0.000 C 
BRANCH  20  21
ATOM     21  C   UNL     1       2.330   7.305  19.678  0.00  0.00    +0.000 C 
BRANCH  21  22
ATOM     22  C   UNL     1       1.415   8.504  19.419  0.00  0.00    +0.000 C 
BRANCH  22  30
ATOM     23  C   UNL     1      -1.694  11.766  19.299  0.00  0.00    +0.000 A 
ATOM     24  C   UNL     1      -2.123  12.292  20.505  0.00  0.00    +0.000 A 
ATOM     25  C   UNL     1      -1.569  11.819  21.695  0.00  0.00    +0.000 A 
ATOM     26  C   UNL     1      -0.609  10.817  21.724  0.00  0.00    +0.000 A 
ATOM     27  N   UNL     1      -0.153  10.458  22.933  0.00  0.00    +0.000 NA
ATOM     28  C   UNL     1       0.802   9.516  22.998  0.00  0.00    +0.000 A 
ATOM     29  C   UNL     1       1.307   8.876  21.892  0.00  0.00    +0.000 A 
ATOM     30  C   UNL     1       0.817   9.208  20.619  0.00  0.00    +0.000 A 
ATOM     31  C   UNL     1      -0.164  10.244  20.514  0.00  0.00    +0.000 A 
ATOM     32  C   UNL     1      -0.715  10.765  19.309  0.00  0.00    +0.000 A 
BRANCH  23  34
ATOM     33  C   UNL     1      -3.292  11.389  17.589  0.00  0.00    +0.000 C 
ATOM     34  O   UNL     1      -2.164  12.119  18.064  0.00  0.00    +0.000 OA
ENDBRANCH  23  34
ENDBRANCH  22  30
BRANCH  22  35
ATOM     35  O   UNL     1       2.130   9.414  18.572  0.00  0.00    +0.000 OA
ATOM     36  H   UNL     1       1.485  10.017  18.168  0.00  0.00    +0.000 HD
ENDBRANCH  22  35
ENDBRANCH  21  22
ENDBRANCH  20  21
ENDBRANCH   1  20
TORSDOF 10
ENDMDL
MODEL 5
REMARK VINA RESULT:      -8.0      3.717      9.629
REMARK  Name = 
REMARK  11 active torsions:
REMARK  status: ('A' for Active; 'I' for Inactive)
REMARK    1  A    between atoms: C_1  and  O_2
REMARK    2  A    between atoms: O_2  and  C_3
REMARK    3  A    between atoms: C_10  and  C_11
REMARK    4  A    between atoms: C_11  and  O_12
REMARK    5  A    between atoms: C_11  and  C_13
REMARK    6  A    between atoms: C_13  and  C_14
REMARK    7  A    between atoms: C_14  and  C_15
REMARK    8  A    between atoms: N_18  and  C_19
REMARK    9  A    between atoms: C_21  and  C_22
REMARK   10  A    between atoms: C_29  and  C_30
REMARK   11  A    between atoms: C_30  and  O_32
REMARK                            x       y       z     vdW  Elec       q    Type
REMARK                         _______ _______ _______ _____ _____    ______ ____
ROOT
ATOM      1  C   UNL     1       0.255   9.645  20.018  0.00  0.00    +0.000 C 
ATOM      2  C   UNL     1       0.274  10.288  18.618  0.00  0.00    +0.000 C 
ATOM      3  C   UNL     1       1.181  11.517  18.557  0.00  0.00    +0.000 C 
ATOM      4  N   UNL     1       0.817  12.529  19.566  0.00  0.00    +0.000 NA
ATOM      5  C   UNL     1       0.782  11.950  20.929  0.00  0.00    +0.000 C 
ATOM      6  C   UNL     1      -0.188  10.758  21.004  0.00  0.00    +0.000 C 
ENDROOT
BRANCH   4   7
ATOM      7  C   UNL     1       1.828  13.604  19.529  0.00  0.00    +0.000 C 
ATOM      8  C   UNL     1       2.828  13.342  18.375  0.00  0.00    +0.000 C 
ATOM      9  C   UNL     1       2.727  14.846  18.001  0.00  0.00    +0.000 C 
ATOM     10  C   UNL     1       1.332  14.804  18.694  0.00  0.00    +0.000 C 
BRANCH   9  11
ATOM     11  C   UNL     1       3.742  15.732  18.713  0.00  0.00    +0.000 A 
ATOM     12  C   UNL     1       4.994  15.353  19.130  0.00  0.00    +0.000 A 
ATOM     13  C   UNL     1       5.515  16.508  19.731  0.00  0.00    +0.000 A 
ATOM     14  N   UNL     1       4.656  17.528  19.699  0.00  0.00    +0.000 NA
ATOM     15  O   UNL     1       3.536  17.037  19.049  0.00  0.00    +0.000 OA
ENDBRANCH   9  11
ENDBRANCH   4   7
BRANCH   6  16
ATOM     16  C   UNL     1      -0.405  10.340  22.450  0.00  0.00    +0.000 C 
ATOM     17  O   UNL     1      -0.335   9.189  22.857  0.00  0.00    +0.000 OA
BRANCH  16  18
ATOM     18  O   UNL     1      -0.681  11.366  23.287  0.00  0.00    +0.000 OA
ATOM     19  H   UNL     1      -0.647  11.148  24.237  0.00  0.00    +0.000 HD
ENDBRANCH  16  18
ENDBRANCH   6  16
BRANCH   1  20
ATOM     20  C   UNL     1       1.616   8.951  20.333  0.00  0.00    +0.000 C 
BRANCH  20  21
ATOM     21  C   UNL     1       1.741   7.600  19.620  0.00  0.00    +0.000 C 
BRANCH  21  22
ATOM     22  C   UNL     1       2.851   7.410  18.584  0.00  0.00    +0.000 C 
BRANCH  22  30
ATOM     23  C   UNL     1       6.617   5.902  16.618  0.00  0.00    +0.000 A 
ATOM     24  C   UNL     1       6.631   4.592  16.171  0.00  0.00    +0.000 A 
ATOM     25  C   UNL     1       5.489   3.804  16.322  0.00  0.00    +0.000 A 
ATOM     26  C   UNL     1       4.331   4.276  16.926  0.00  0.00    +0.000 A 
ATOM     27  N   UNL     1       3.303   3.420  17.002  0.00  0.00    +0.000 NA
ATOM     28  C   UNL     1       2.154   3.853  17.547  0.00  0.00    +0.000 A 
ATOM     29  C   UNL     1       1.994   5.116  18.065  0.00  0.00    +0.000 A 
ATOM     30  C   UNL     1       3.071   6.017  18.031  0.00  0.00    +0.000 A 
ATOM     31  C   UNL     1       4.290   5.601  17.410  0.00  0.00    +0.000 A 
ATOM     32  C   UNL     1       5.453   6.400  17.214  0.00  0.00    +0.000 A 
BRANCH  23  34
ATOM     33  C   UNL     1       7.658   7.839  17.503  0.00  0.00    +0.000 C 
ATOM     34  O   UNL     1       7.667   6.776  16.553  0.00  0.00    +0.000 OA
ENDBRANCH  23  34
ENDBRANCH  22  30
BRANCH  22  35
ATOM     35  O   UNL     1       2.631   8.367  17.538  0.00  0.00    +0.000 OA
ATOM     36  H   UNL     1       3.402   8.348  16.949  0.00  0.00    +0.000 HD
ENDBRANCH  22  35
ENDBRANCH  21  22
ENDBRANCH  20  21
ENDBRANCH   1  20
TORSDOF 10
ENDMDL
MODEL 6
REMARK VINA RESULT:      -7.9      3.391     10.260
REMARK  Name = 
REMARK  11 active torsions:
REMARK  status: ('A' for Active; 'I' for Inactive)
REMARK    1  A    between atoms: C_1  and  O_2
REMARK    2  A    between atoms: O_2  and  C_3
REMARK    3  A    between atoms: C_10  and  C_11
REMARK    4  A    between atoms: C_11  and  O_12
REMARK    5  A    between atoms: C_11  and  C_13
REMARK    6  A    between atoms: C_13  and  C_14
REMARK    7  A    between atoms: C_14  and  C_15
REMARK    8  A    between atoms: N_18  and  C_19
REMARK    9  A    between atoms: C_21  and  C_22
REMARK   10  A    between atoms: C_29  and  C_30
REMARK   11  A    between atoms: C_30  and  O_32
REMARK                            x       y       z     vdW  Elec       q    Type
REMARK                         _______ _______ _______ _____ _____    ______ ____
ROOT
ATOM      1  C   UNL     1      -0.332   9.604  19.928  0.00  0.00    +0.000 C 
ATOM      2  C   UNL     1      -1.300  10.235  18.910  0.00  0.00    +0.000 C 
ATOM      3  C   UNL     1      -1.089  11.743  18.766  0.00  0.00    +0.000 C 
ATOM      4  N   UNL     1      -1.195  12.447  20.058  0.00  0.00    +0.000 NA
ATOM      5  C   UNL     1      -0.281  11.867  21.070  0.00  0.00    +0.000 C 
ATOM      6  C   UNL     1      -0.547  10.363  21.265  0.00  0.00    +0.000 C 
ENDROOT
BRANCH   4   7
ATOM      7  C   UNL     1      -0.835  13.862  19.846  0.00  0.00    +0.000 C 
ATOM      8  C   UNL     1       0.490  14.181  20.582  0.00  0.00    +0.000 C 
ATOM      9  C   UNL     1       0.959  14.952  19.318  0.00  0.00    +0.000 C 
ATOM     10  C   UNL     1      -0.036  14.041  18.537  0.00  0.00    +0.000 C 
BRANCH   9  11
ATOM     11  C   UNL     1       0.577  16.427  19.313  0.00  0.00    +0.000 A 
ATOM     12  C   UNL     1       1.432  17.484  19.502  0.00  0.00    +0.000 A 
ATOM     13  C   UNL     1       0.601  18.611  19.421  0.00  0.00    +0.000 A 
ATOM     14  N   UNL     1      -0.674  18.286  19.204  0.00  0.00    +0.000 NA
ATOM     15  O   UNL     1      -0.687  16.903  19.130  0.00  0.00    +0.000 OA
ENDBRANCH   9  11
ENDBRANCH   4   7
BRANCH   6  16
ATOM     16  C   UNL     1       0.214   9.841  22.474  0.00  0.00    +0.000 C 
ATOM     17  O   UNL     1       1.430   9.882  22.599  0.00  0.00    +0.000 OA
BRANCH  16  18
ATOM     18  O   UNL     1      -0.575   9.320  23.440  0.00  0.00    +0.000 OA
ATOM     19  H   UNL     1      -1.514   9.220  23.201  0.00  0.00    +0.000 HD
ENDBRANCH  16  18
ENDBRANCH   6  16
BRANCH   1  20
ATOM     20  C   UNL     1       1.128   9.587  19.376  0.00  0.00    +0.000 C 
BRANCH  20  21
ATOM     21  C   UNL     1       1.715   8.172  19.373  0.00  0.00    +0.000 C 
BRANCH  21  22
ATOM     22  C   UNL     1       2.803   7.825  18.355  0.00  0.00    +0.000 C 
BRANCH  22  30
ATOM     23  C   UNL     1       6.546   5.935  16.699  0.00  0.00    +0.000 A 
ATOM     24  C   UNL     1       6.509   4.584  16.400  0.00  0.00    +0.000 A 
ATOM     25  C   UNL     1       5.325   3.871  16.598  0.00  0.00    +0.000 A 
ATOM     26  C   UNL     1       4.176   4.460  17.105  0.00  0.00    +0.000 A 
ATOM     27  N   UNL     1       3.104   3.666  17.239  0.00  0.00    +0.000 NA
ATOM     28  C   UNL     1       1.962   4.210  17.693  0.00  0.00    +0.000 A 
ATOM     29  C   UNL     1       1.850   5.529  18.062  0.00  0.00    +0.000 A 
ATOM     30  C   UNL     1       2.970   6.370  17.967  0.00  0.00    +0.000 A 
ATOM     31  C   UNL     1       4.185   5.832  17.438  0.00  0.00    +0.000 A 
ATOM     32  C   UNL     1       5.391   6.550  17.195  0.00  0.00    +0.000 A 
BRANCH  23  34
ATOM     33  C   UNL     1       7.725   7.831  17.497  0.00  0.00    +0.000 C 
ATOM     34  O   UNL     1       7.639   6.748  16.575  0.00  0.00    +0.000 OA
ENDBRANCH  23  34
ENDBRANCH  22  30
BRANCH  22  35
ATOM     35  O   UNL     1       2.599   8.659  17.206  0.00  0.00    +0.000 OA
ATOM     36  H   UNL     1       3.193   8.352  16.503  0.00  0.00    +0.000 HD
ENDBRANCH  22  35
ENDBRANCH  21  22
ENDBRANCH  20  21
ENDBRANCH   1  20
TORSDOF 10
ENDMDL
MODEL 7
REMARK VINA RESULT:      -7.9      3.762      5.780
REMARK  Name = 
REMARK  11 active torsions:
REMARK  status: ('A' for Active; 'I' for Inactive)
REMARK    1  A    between atoms: C_1  and  O_2
REMARK    2  A    between atoms: O_2  and  C_3
REMARK    3  A    between atoms: C_10  and  C_11
REMARK    4  A    between atoms: C_11  and  O_12
REMARK    5  A    between atoms: C_11  and  C_13
REMARK    6  A    between atoms: C_13  and  C_14
REMARK    7  A    between atoms: C_14  and  C_15
REMARK    8  A    between atoms: N_18  and  C_19
REMARK    9  A    between atoms: C_21  and  C_22
REMARK   10  A    between atoms: C_29  and  C_30
REMARK   11  A    between atoms: C_30  and  O_32
REMARK                            x       y       z     vdW  Elec       q    Type
REMARK                         _______ _______ _______ _____ _____    ______ ____
ROOT
ATOM      1  C   UNL     1       0.796  10.085  18.903  0.00  0.00    +0.000 C 
ATOM      2  C   UNL     1       1.986   9.814  17.963  0.00  0.00    +0.000 C 
ATOM      3  C   UNL     1       2.368   8.334  17.923  0.00  0.00    +0.000 C 
ATOM      4  N   UNL     1       2.659   7.796  19.265  0.00  0.00    +0.000 NA
ATOM      5  C   UNL     1       1.539   8.041  20.204  0.00  0.00    +0.000 C 
ATOM      6  C   UNL     1       1.207   9.541  20.297  0.00  0.00    +0.000 C 
ENDROOT
BRANCH   4   7
ATOM      7  C   UNL     1       2.872   6.341  19.145  0.00  0.00    +0.000 C 
ATOM      8  C   UNL     1       1.842   5.587  20.023  0.00  0.00    +0.000 C 
ATOM      9  C   UNL     1       1.619   4.602  18.843  0.00  0.00    +0.000 C 
ATOM     10  C   UNL     1       2.110   5.767  17.931  0.00  0.00    +0.000 C 
BRANCH   9  11
ATOM     11  C   UNL     1       2.551   3.396  18.857  0.00  0.00    +0.000 A 
ATOM     12  C   UNL     1       2.520   2.341  17.979  0.00  0.00    +0.000 A 
ATOM     13  C   UNL     1       3.555   1.503  18.421  0.00  0.00    +0.000 A 
ATOM     14  N   UNL     1       4.180   1.992  19.493  0.00  0.00    +0.000 NA
ATOM     15  O   UNL     1       3.547   3.193  19.764  0.00  0.00    +0.000 OA
ENDBRANCH   9  11
ENDBRANCH   4   7
BRANCH   6  16
ATOM     16  C   UNL     1       0.239   9.801  21.442  0.00  0.00    +0.000 C 
ATOM     17  O   UNL     1      -0.638   9.027  21.798  0.00  0.00    +0.000 OA
BRANCH  16  18
ATOM     18  O   UNL     1       0.428  10.984  22.067  0.00  0.00    +0.000 OA
ATOM     19  H   UNL     1       1.332  11.139  22.399  0.00  0.00    +0.000 HD
ENDBRANCH  16  18
ENDBRANCH   6  16
BRANCH   1  20
ATOM     20  C   UNL     1      -0.528   9.516  18.307  0.00  0.00    +0.000 C 
BRANCH  20  21
ATOM     21  C   UNL     1      -1.749  10.316  18.775  0.00  0.00    +0.000 C 
BRANCH  21  22
ATOM     22  C   UNL     1      -1.899  11.769  18.321  0.00  0.00    +0.000 C 
BRANCH  22  30
ATOM     23  C   UNL     1      -2.895  12.906  22.568  0.00  0.00    +0.000 A 
ATOM     24  C   UNL     1      -2.153  13.916  23.156  0.00  0.00    +0.000 A 
ATOM     25  C   UNL     1      -1.155  14.552  22.417  0.00  0.00    +0.000 A 
ATOM     26  C   UNL     1      -0.856  14.199  21.108  0.00  0.00    +0.000 A 
ATOM     27  N   UNL     1       0.121  14.894  20.508  0.00  0.00    +0.000 NA
ATOM     28  C   UNL     1       0.414  14.605  19.229  0.00  0.00    +0.000 A 
ATOM     29  C   UNL     1      -0.212  13.607  18.519  0.00  0.00    +0.000 A 
ATOM     30  C   UNL     1      -1.211  12.841  19.140  0.00  0.00    +0.000 A 
ATOM     31  C   UNL     1      -1.580  13.160  20.485  0.00  0.00    +0.000 A 
ATOM     32  C   UNL     1      -2.619  12.548  21.243  0.00  0.00    +0.000 A 
BRANCH  23  34
ATOM     33  C   UNL     1      -4.176  12.540  24.528  0.00  0.00    +0.000 C 
ATOM     34  O   UNL     1      -3.885  12.186  23.179  0.00  0.00    +0.000 OA
ENDBRANCH  23  34
ENDBRANCH  22  30
BRANCH  22  35
ATOM     35  O   UNL     1      -1.514  11.829  16.940  0.00  0.00    +0.000 OA
ATOM     36  H   UNL     1      -1.705  12.723  16.615  0.00  0.00    +0.000 HD
ENDBRANCH  22  35
ENDBRANCH  21  22
ENDBRANCH  20  21
ENDBRANCH   1  20
TORSDOF 10
ENDMDL
MODEL 8
REMARK VINA RESULT:      -7.9      3.602      5.627
REMARK  Name = 
REMARK  11 active torsions:
REMARK  status: ('A' for Active; 'I' for Inactive)
REMARK    1  A    between atoms: C_1  and  O_2
REMARK    2  A    between atoms: O_2  and  C_3
REMARK    3  A    between atoms: C_10  and  C_11
REMARK    4  A    between atoms: C_11  and  O_12
REMARK    5  A    between atoms: C_11  and  C_13
REMARK    6  A    between atoms: C_13  and  C_14
REMARK    7  A    between atoms: C_14  and  C_15
REMARK    8  A    between atoms: N_18  and  C_19
REMARK    9  A    between atoms: C_21  and  C_22
REMARK   10  A    between atoms: C_29  and  C_30
REMARK   11  A    between atoms: C_30  and  O_32
REMARK                            x       y       z     vdW  Elec       q    Type
REMARK                         _______ _______ _______ _____ _____    ______ ____
ROOT
ATOM      1  C   UNL     1       0.383  10.145  19.946  0.00  0.00    +0.000 C 
ATOM      2  C   UNL     1       1.465  10.019  18.856  0.00  0.00    +0.000 C 
ATOM      3  C   UNL     1       1.787   8.561  18.525  0.00  0.00    +0.000 C 
ATOM      4  N   UNL     1       2.188   7.793  19.718  0.00  0.00    +0.000 NA
ATOM      5  C   UNL     1       1.175   7.891  20.794  0.00  0.00    +0.000 C 
ATOM      6  C   UNL     1       0.908   9.358  21.176  0.00  0.00    +0.000 C 
ENDROOT
BRANCH   4   7
ATOM      7  C   UNL     1       2.335   6.377  19.329  0.00  0.00    +0.000 C 
ATOM      8  C   UNL     1       3.736   5.863  19.747  0.00  0.00    +0.000 C 
ATOM      9  C   UNL     1       3.058   4.568  20.274  0.00  0.00    +0.000 C 
ATOM     10  C   UNL     1       1.774   5.440  20.420  0.00  0.00    +0.000 C 
BRANCH   9  11
ATOM     11  C   UNL     1       2.936   3.463  19.232  0.00  0.00    +0.000 A 
ATOM     12  C   UNL     1       3.874   2.496  18.966  0.00  0.00    +0.000 A 
ATOM     13  C   UNL     1       3.300   1.744  17.931  0.00  0.00    +0.000 A 
ATOM     14  N   UNL     1       2.101   2.206  17.573  0.00  0.00    +0.000 NA
ATOM     15  O   UNL     1       1.870   3.291  18.402  0.00  0.00    +0.000 OA
ENDBRANCH   9  11
ENDBRANCH   4   7
BRANCH   6  16
ATOM     16  C   UNL     1       0.067   9.433  22.442  0.00  0.00    +0.000 C 
ATOM     17  O   UNL     1       0.136  10.332  23.268  0.00  0.00    +0.000 OA
BRANCH  16  18
ATOM     18  O   UNL     1      -0.799   8.406  22.591  0.00  0.00    +0.000 OA
ATOM     19  H   UNL     1      -1.313   8.413  23.419  0.00  0.00    +0.000 HD
ENDBRANCH  16  18
ENDBRANCH   6  16
BRANCH   1  20
ATOM     20  C   UNL     1      -1.013   9.712  19.400  0.00  0.00    +0.000 C 
BRANCH  20  21
ATOM     21  C   UNL     1      -1.478  10.618  18.255  0.00  0.00    +0.000 C 
BRANCH  21  22
ATOM     22  C   UNL     1      -2.771  11.419  18.422  0.00  0.00    +0.000 C 
BRANCH  22  30
ATOM     23  C   UNL     1      -6.422  12.399  20.878  0.00  0.00    +0.000 A 
ATOM     24  C   UNL     1      -6.291  13.348  21.877  0.00  0.00    +0.000 A 
ATOM     25  C   UNL     1      -5.059  13.975  22.071  0.00  0.00    +0.000 A 
ATOM     26  C   UNL     1      -3.940  13.670  21.308  0.00  0.00    +0.000 A 
ATOM     27  N   UNL     1      -2.819  14.349  21.591  0.00  0.00    +0.000 NA
ATOM     28  C   UNL     1      -1.725  14.108  20.850  0.00  0.00    +0.000 A 
ATOM     29  C   UNL     1      -1.688  13.172  19.844  0.00  0.00    +0.000 A 
ATOM     30  C   UNL     1      -2.839  12.421  19.556  0.00  0.00    +0.000 A 
ATOM     31  C   UNL     1      -4.033  12.693  20.294  0.00  0.00    +0.000 A 
ATOM     32  C   UNL     1      -5.308  12.092  20.089  0.00  0.00    +0.000 A 
BRANCH  23  34
ATOM     33  C   UNL     1      -7.382  10.314  20.286  0.00  0.00    +0.000 C 
ATOM     34  O   UNL     1      -7.559  11.695  20.594  0.00  0.00    +0.000 OA
ENDBRANCH  23  34
ENDBRANCH  22  30
BRANCH  22  35
ATOM     35  O   UNL     1      -3.065  12.029  17.158  0.00  0.00    +0.000 OA
ATOM     36  H   UNL     1      -4.011  12.246  17.143  0.00  0.00    +0.000 HD
ENDBRANCH  22  35
ENDBRANCH  21  22
ENDBRANCH  20  21
ENDBRANCH   1  20
TORSDOF 10
ENDMDL
MODEL 9
REMARK VINA RESULT:      -7.9      2.203      2.618
REMARK  Name = 
REMARK  11 active torsions:
REMARK  status: ('A' for Active; 'I' for Inactive)
REMARK    1  A    between atoms: C_1  and  O_2
REMARK    2  A    between atoms: O_2  and  C_3
REMARK    3  A    between atoms: C_10  and  C_11
REMARK    4  A    between atoms: C_11  and  O_12
REMARK    5  A    between atoms: C_11  and  C_13
REMARK    6  A    between atoms: C_13  and  C_14
REMARK    7  A    between atoms: C_14  and  C_15
REMARK    8  A    between atoms: N_18  and  C_19
REMARK    9  A    between atoms: C_21  and  C_22
REMARK   10  A    between atoms: C_29  and  C_30
REMARK   11  A    between atoms: C_30  and  O_32
REMARK                            x       y       z     vdW  Elec       q    Type
REMARK                         _______ _______ _______ _____ _____    ______ ____
ROOT
ATOM      1  C   UNL     1       2.599   5.277  19.582  0.00  0.00    +0.000 C 
ATOM      2  C   UNL     1       4.088   5.671  19.612  0.00  0.00    +0.000 C 
ATOM      3  C   UNL     1       4.769   5.469  18.257  0.00  0.00    +0.000 C 
ATOM      4  N   UNL     1       4.629   4.087  17.763  0.00  0.00    +0.000 NA
ATOM      5  C   UNL     1       3.209   3.665  17.724  0.00  0.00    +0.000 C 
ATOM      6  C   UNL     1       2.547   3.800  19.107  0.00  0.00    +0.000 C 
ENDROOT
BRANCH   4   7
ATOM      7  C   UNL     1       5.184   4.024  16.398  0.00  0.00    +0.000 C 
ATOM      8  C   UNL     1       5.108   5.424  15.737  0.00  0.00    +0.000 C 
ATOM      9  C   UNL     1       6.556   5.212  15.218  0.00  0.00    +0.000 C 
ATOM     10  C   UNL     1       6.715   4.223  16.411  0.00  0.00    +0.000 C 
BRANCH   9  11
ATOM     11  C   UNL     1       6.633   4.543  13.850  0.00  0.00    +0.000 A 
ATOM     12  C   UNL     1       7.534   4.835  12.857  0.00  0.00    +0.000 A 
ATOM     13  C   UNL     1       7.181   3.968  11.813  0.00  0.00    +0.000 A 
ATOM     14  N   UNL     1       6.138   3.197  12.125  0.00  0.00    +0.000 NA
ATOM     15  O   UNL     1       5.796   3.559  13.417  0.00  0.00    +0.000 OA
ENDBRANCH   9  11
ENDBRANCH   4   7
BRANCH   6  16
ATOM     16  C   UNL     1       1.181   3.131  19.110  0.00  0.00    +0.000 C 
ATOM     17  O   UNL     1       0.739   2.454  18.194  0.00  0.00    +0.000 OA
BRANCH  16  18
ATOM     18  O   UNL     1       0.469   3.336  20.241  0.00  0.00    +0.000 OA
ATOM     19  H   UNL     1      -0.224   4.019  20.177  0.00  0.00    +0.000 HD
ENDBRANCH  16  18
ENDBRANCH   6  16
BRANCH   1  20
ATOM     20  C   UNL     1       1.767   6.296  18.744  0.00  0.00    +0.000 C 
BRANCH  20  21
ATOM     21  C   UNL     1       2.428   7.679  18.716  0.00  0.00    +0.000 C 
BRANCH  21  22
ATOM     22  C   UNL     1       1.540   8.924  18.777  0.00  0.00    +0.000 C 
BRANCH  22  30
ATOM     23  C   UNL     1      -0.408  12.888  19.680  0.00  0.00    +0.000 A 
ATOM     24  C   UNL     1      -0.752  13.153  20.995  0.00  0.00    +0.000 A 
ATOM     25  C   UNL     1      -0.467  12.208  21.981  0.00  0.00    +0.000 A 
ATOM     26  C   UNL     1       0.136  10.991  21.697  0.00  0.00    +0.000 A 
ATOM     27  N   UNL     1       0.362  10.175  22.736  0.00  0.00    +0.000 NA
ATOM     28  C   UNL     1       0.977   9.004  22.504  0.00  0.00    +0.000 A 
ATOM     29  C   UNL     1       1.351   8.584  21.250  0.00  0.00    +0.000 A 
ATOM     30  C   UNL     1       1.089   9.405  20.141  0.00  0.00    +0.000 A 
ATOM     31  C   UNL     1       0.482  10.680  20.364  0.00  0.00    +0.000 A 
ATOM     32  C   UNL     1       0.216  11.672  19.377  0.00  0.00    +0.000 A 
BRANCH  23  34
ATOM     33  C   UNL     1      -0.262  15.074  18.775  0.00  0.00    +0.000 C 
ATOM     34  O   UNL     1      -0.646  13.711  18.614  0.00  0.00    +0.000 OA
ENDBRANCH  23  34
ENDBRANCH  22  30
BRANCH  22  35
ATOM     35  O   UNL     1       2.206   9.962  18.044  0.00  0.00    +0.000 OA
ATOM     36  H   UNL     1       1.995  10.809  18.466  0.00  0.00    +0.000 HD
ENDBRANCH  22  35
ENDBRANCH  21  22
ENDBRANCH  20  21
ENDBRANCH   1  20
TORSDOF 10
ENDMDL
