MODEL 1
REMARK VINA RESULT:      -7.8      0.000      0.000
REMARK  Name = 
REMARK  5 active torsions:
REMARK  status: ('A' for Active; 'I' for Inactive)
REMARK    1  A    between atoms: C_1  and  C_2
REMARK    2  A    between atoms: C_12  and  C_13
REMARK    3  A    between atoms: N_15  and  C_16
REMARK    4  A    between atoms: C_19  and  C_20
REMARK    5  A    between atoms: C_27  and  C_28
REMARK                            x       y       z     vdW  Elec       q    Type
REMARK                         _______ _______ _______ _____ _____    ______ ____
ROOT
ATOM      1  C   UNL     1      11.813  18.161  17.459  0.00  0.00    +0.000 C 
ATOM      2  C   UNL     1      10.595  17.459  17.964  0.00  0.00    +0.000 A 
ATOM      3  S   UNL     1       9.174  18.332  18.309  0.00  0.00    +0.000 S 
ATOM      4  C   UNL     1       8.343  16.927  18.784  0.00  0.00    +0.000 A 
ATOM      5  N   UNL     1       7.069  17.011  19.202  0.00  0.00    +0.000 NA
ATOM      6  C   UNL     1       6.575  15.826  19.556  0.00  0.00    +0.000 A 
ATOM      7  N   UNL     1       7.201  14.641  19.539  0.00  0.00    +0.000 NA
ATOM      8  C   UNL     1       8.480  14.579  19.096  0.00  0.00    +0.000 A 
ATOM      9  N   UNL     1       9.163  13.357  19.123  0.00  0.00    +0.000 N 
ATOM     10  C   UNL     1       8.697  12.444  20.165  0.00  0.00    +0.000 C 
ATOM     11  C   UNL     1       9.751  11.345  20.321  0.00  0.00    +0.000 C 
ATOM     12  C   UNL     1      10.015  10.619  18.995  0.00  0.00    +0.000 C 
ATOM     13  C   UNL     1      10.325  11.633  17.873  0.00  0.00    +0.000 C 
ATOM     14  C   UNL     1       9.250  12.734  17.796  0.00  0.00    +0.000 C 
ATOM     15  C   UNL     1       9.118  15.779  18.690  0.00  0.00    +0.000 A 
ATOM     16  C   UNL     1      10.457  16.102  18.214  0.00  0.00    +0.000 A 
ATOM     17  C   UNL     1      11.585  15.144  18.001  0.00  0.00    +0.000 C 
ENDROOT
BRANCH  12  18
ATOM     18  C   UNL     1       8.849   9.751  18.540  0.00  0.00    +0.000 C 
ATOM     19  O   UNL     1       7.938  10.250  17.880  0.00  0.00    +0.000 OA
ATOM     20  N   UNL     1       8.912   8.415  18.888  0.00  0.00    +0.000 N 
ATOM     21  H   UNL     1       9.604   8.126  19.576  0.00  0.00    +0.000 HD
BRANCH  20  22
ATOM     22  C   UNL     1       8.006   7.437  18.433  0.00  0.00    +0.000 A 
ATOM     23  C   UNL     1       7.201   7.639  17.305  0.00  0.00    +0.000 A 
ATOM     24  C   UNL     1       6.305   6.668  16.871  0.00  0.00    +0.000 A 
ATOM     25  C   UNL     1       6.210   5.463  17.558  0.00  0.00    +0.000 A 
ATOM     26  C   UNL     1       7.015   5.238  18.679  0.00  0.00    +0.000 A 
ATOM     27  C   UNL     1       7.918   6.219  19.111  0.00  0.00    +0.000 A 
BRANCH  25  28
ATOM     28  C   UNL     1       5.295   4.465  17.101  0.00  0.00    +0.000 C 
ATOM     29  N   UNL     1       4.544   3.662  16.730  0.00  0.00    +0.000 NA
ENDBRANCH  25  28
ENDBRANCH  20  22
ENDBRANCH  12  18
TORSDOF 3
ENDMDL
MODEL 2
REMARK VINA RESULT:      -7.6      8.050     10.002
REMARK  Name = 
REMARK  5 active torsions:
REMARK  status: ('A' for Active; 'I' for Inactive)
REMARK    1  A    between atoms: C_1  and  C_2
REMARK    2  A    between atoms: C_12  and  C_13
REMARK    3  A    between atoms: N_15  and  C_16
REMARK    4  A    between atoms: C_19  and  C_20
REMARK    5  A    between atoms: C_27  and  C_28
REMARK                            x       y       z     vdW  Elec       q    Type
REMARK                         _______ _______ _______ _____ _____    ______ ____
ROOT
ATOM      1  C   UNL     1      -5.812  13.306  19.176  0.00  0.00    +0.000 C 
ATOM      2  C   UNL     1      -4.644  12.963  20.042  0.00  0.00    +0.000 A 
ATOM      3  S   UNL     1      -4.670  13.315  21.709  0.00  0.00    +0.000 S 
ATOM      4  C   UNL     1      -3.116  12.667  21.941  0.00  0.00    +0.000 A 
ATOM      5  N   UNL     1      -2.561  12.679  23.165  0.00  0.00    +0.000 NA
ATOM      6  C   UNL     1      -1.337  12.155  23.168  0.00  0.00    +0.000 A 
ATOM      7  N   UNL     1      -0.657  11.658  22.126  0.00  0.00    +0.000 NA
ATOM      8  C   UNL     1      -1.245  11.641  20.905  0.00  0.00    +0.000 A 
ATOM      9  N   UNL     1      -0.526  11.175  19.798  0.00  0.00    +0.000 N 
ATOM     10  C   UNL     1       0.921  11.348  19.919  0.00  0.00    +0.000 C 
ATOM     11  C   UNL     1       1.527  11.156  18.526  0.00  0.00    +0.000 C 
ATOM     12  C   UNL     1       1.157   9.792  17.928  0.00  0.00    +0.000 C 
ATOM     13  C   UNL     1      -0.370   9.569  17.986  0.00  0.00    +0.000 C 
ATOM     14  C   UNL     1      -0.922   9.817  19.403  0.00  0.00    +0.000 C 
ATOM     15  C   UNL     1      -2.552  12.174  20.773  0.00  0.00    +0.000 A 
ATOM     16  C   UNL     1      -3.459  12.363  19.647  0.00  0.00    +0.000 A 
ATOM     17  C   UNL     1      -3.207  11.984  18.223  0.00  0.00    +0.000 C 
ENDROOT
BRANCH  12  18
ATOM     18  C   UNL     1       1.833   8.623  18.631  0.00  0.00    +0.000 C 
ATOM     19  O   UNL     1       1.876   8.592  19.862  0.00  0.00    +0.000 OA
ATOM     20  N   UNL     1       2.344   7.632  17.815  0.00  0.00    +0.000 N 
ATOM     21  H   UNL     1       2.421   7.820  16.817  0.00  0.00    +0.000 HD
BRANCH  20  22
ATOM     22  C   UNL     1       2.869   6.413  18.285  0.00  0.00    +0.000 A 
ATOM     23  C   UNL     1       4.232   6.251  18.562  0.00  0.00    +0.000 A 
ATOM     24  C   UNL     1       4.740   5.039  19.019  0.00  0.00    +0.000 A 
ATOM     25  C   UNL     1       3.880   3.966  19.221  0.00  0.00    +0.000 A 
ATOM     26  C   UNL     1       2.514   4.113  18.963  0.00  0.00    +0.000 A 
ATOM     27  C   UNL     1       2.006   5.336  18.505  0.00  0.00    +0.000 A 
BRANCH  25  28
ATOM     28  C   UNL     1       4.406   2.727  19.702  0.00  0.00    +0.000 C 
ATOM     29  N   UNL     1       4.834   1.717  20.082  0.00  0.00    +0.000 NA
ENDBRANCH  25  28
ENDBRANCH  20  22
ENDBRANCH  12  18
TORSDOF 3
ENDMDL
MODEL 3
REMARK VINA RESULT:      -7.5      9.992     11.875
REMARK  Name = 
REMARK  5 active torsions:
REMARK  status: ('A' for Active; 'I' for Inactive)
REMARK    1  A    between atoms: C_1  and  C_2
REMARK    2  A    between atoms: C_12  and  C_13
REMARK    3  A    between atoms: N_15  and  C_16
REMARK    4  A    between atoms: C_19  and  C_20
REMARK    5  A    between atoms: C_27  and  C_28
REMARK                            x       y       z     vdW  Elec       q    Type
REMARK                         _______ _______ _______ _____ _____    ______ ____
ROOT
ATOM      1  C   UNL     1      -7.916  15.357  21.422  0.00  0.00    +0.000 C 
ATOM      2  C   UNL     1      -6.749  14.595  21.957  0.00  0.00    +0.000 A 
ATOM      3  S   UNL     1      -6.645  14.220  23.616  0.00  0.00    +0.000 S 
ATOM      4  C   UNL     1      -5.162  13.416  23.413  0.00  0.00    +0.000 A 
ATOM      5  N   UNL     1      -4.544  12.873  24.476  0.00  0.00    +0.000 NA
ATOM      6  C   UNL     1      -3.387  12.302  24.149  0.00  0.00    +0.000 A 
ATOM      7  N   UNL     1      -2.822  12.234  22.935  0.00  0.00    +0.000 NA
ATOM      8  C   UNL     1      -3.473  12.774  21.875  0.00  0.00    +0.000 A 
ATOM      9  N   UNL     1      -2.871  12.758  20.612  0.00  0.00    +0.000 N 
ATOM     10  C   UNL     1      -1.409  12.751  20.656  0.00  0.00    +0.000 C 
ATOM     11  C   UNL     1      -0.904  13.111  19.256  0.00  0.00    +0.000 C 
ATOM     12  C   UNL     1      -1.454  12.154  18.190  0.00  0.00    +0.000 C 
ATOM     13  C   UNL     1      -2.990  12.047  18.296  0.00  0.00    +0.000 C 
ATOM     14  C   UNL     1      -3.434  11.724  19.735  0.00  0.00    +0.000 C 
ATOM     15  C   UNL     1      -4.719  13.413  22.098  0.00  0.00    +0.000 A 
ATOM     16  C   UNL     1      -5.660  14.124  21.240  0.00  0.00    +0.000 A 
ATOM     17  C   UNL     1      -5.528  14.355  19.769  0.00  0.00    +0.000 C 
ENDROOT
BRANCH  12  18
ATOM     18  C   UNL     1      -0.873  10.750  18.284  0.00  0.00    +0.000 C 
ATOM     19  O   UNL     1      -1.438   9.816  17.714  0.00  0.00    +0.000 OA
ATOM     20  N   UNL     1       0.300  10.622  19.002  0.00  0.00    +0.000 N 
ATOM     21  H   UNL     1       0.601  11.403  19.581  0.00  0.00    +0.000 HD
BRANCH  20  22
ATOM     22  C   UNL     1       1.057   9.436  19.074  0.00  0.00    +0.000 A 
ATOM     23  C   UNL     1       1.746   8.927  17.967  0.00  0.00    +0.000 A 
ATOM     24  C   UNL     1       2.484   7.751  18.050  0.00  0.00    +0.000 A 
ATOM     25  C   UNL     1       2.555   7.067  19.258  0.00  0.00    +0.000 A 
ATOM     26  C   UNL     1       1.885   7.567  20.379  0.00  0.00    +0.000 A 
ATOM     27  C   UNL     1       1.144   8.754  20.291  0.00  0.00    +0.000 A 
BRANCH  25  28
ATOM     28  C   UNL     1       3.323   5.865  19.340  0.00  0.00    +0.000 C 
ATOM     29  N   UNL     1       3.952   4.892  19.415  0.00  0.00    +0.000 NA
ENDBRANCH  25  28
ENDBRANCH  20  22
ENDBRANCH  12  18
TORSDOF 3
ENDMDL
MODEL 4
REMARK VINA RESULT:      -7.4      4.390     10.450
REMARK  Name = 
REMARK  5 active torsions:
REMARK  status: ('A' for Active; 'I' for Inactive)
REMARK    1  A    between atoms: C_1  and  C_2
REMARK    2  A    between atoms: C_12  and  C_13
REMARK    3  A    between atoms: N_15  and  C_16
REMARK    4  A    between atoms: C_19  and  C_20
REMARK    5  A    between atoms: C_27  and  C_28
REMARK                            x       y       z     vdW  Elec       q    Type
REMARK                         _______ _______ _______ _____ _____    ______ ____
ROOT
ATOM      1  C   UNL     1       1.970   0.905  19.285  0.00  0.00    +0.000 C 
ATOM      2  C   UNL     1       2.053   2.384  19.481  0.00  0.00    +0.000 A 
ATOM      3  S   UNL     1       0.856   3.208  20.369  0.00  0.00    +0.000 S 
ATOM      4  C   UNL     1       1.623   4.708  20.145  0.00  0.00    +0.000 A 
ATOM      5  N   UNL     1       1.079   5.822  20.663  0.00  0.00    +0.000 NA
ATOM      6  C   UNL     1       1.791   6.910  20.377  0.00  0.00    +0.000 A 
ATOM      7  N   UNL     1       2.922   6.983  19.661  0.00  0.00    +0.000 NA
ATOM      8  C   UNL     1       3.461   5.843  19.164  0.00  0.00    +0.000 A 
ATOM      9  N   UNL     1       4.611   5.911  18.369  0.00  0.00    +0.000 N 
ATOM     10  C   UNL     1       4.753   7.173  17.644  0.00  0.00    +0.000 C 
ATOM     11  C   UNL     1       5.812   6.964  16.558  0.00  0.00    +0.000 C 
ATOM     12  C   UNL     1       7.145   6.485  17.148  0.00  0.00    +0.000 C 
ATOM     13  C   UNL     1       6.926   5.257  18.058  0.00  0.00    +0.000 C 
ATOM     14  C   UNL     1       5.822   5.517  19.100  0.00  0.00    +0.000 C 
ATOM     15  C   UNL     1       2.791   4.616  19.401  0.00  0.00    +0.000 A 
ATOM     16  C   UNL     1       3.035   3.235  19.000  0.00  0.00    +0.000 A 
ATOM     17  C   UNL     1       4.177   2.733  18.175  0.00  0.00    +0.000 C 
ENDROOT
BRANCH  12  18
ATOM     18  C   UNL     1       7.863   7.554  17.961  0.00  0.00    +0.000 C 
ATOM     19  O   UNL     1       8.559   7.225  18.921  0.00  0.00    +0.000 OA
ATOM     20  N   UNL     1       7.701   8.857  17.533  0.00  0.00    +0.000 N 
ATOM     21  H   UNL     1       6.976   9.054  16.845  0.00  0.00    +0.000 HD
BRANCH  20  22
ATOM     22  C   UNL     1       8.401   9.957  18.065  0.00  0.00    +0.000 A 
ATOM     23  C   UNL     1       9.288   9.821  19.140  0.00  0.00    +0.000 A 
ATOM     24  C   UNL     1       9.968  10.917  19.661  0.00  0.00    +0.000 A 
ATOM     25  C   UNL     1       9.778  12.175  19.101  0.00  0.00    +0.000 A 
ATOM     26  C   UNL     1       8.906  12.328  18.019  0.00  0.00    +0.000 A 
ATOM     27  C   UNL     1       8.225  11.220  17.495  0.00  0.00    +0.000 A 
BRANCH  25  28
ATOM     28  C   UNL     1      10.488  13.294  19.634  0.00  0.00    +0.000 C 
ATOM     29  N   UNL     1      11.064  14.209  20.058  0.00  0.00    +0.000 NA
ENDBRANCH  25  28
ENDBRANCH  20  22
ENDBRANCH  12  18
TORSDOF 3
ENDMDL
MODEL 5
REMARK VINA RESULT:      -7.1      5.685      7.400
REMARK  Name = 
REMARK  5 active torsions:
REMARK  status: ('A' for Active; 'I' for Inactive)
REMARK    1  A    between atoms: C_1  and  C_2
REMARK    2  A    between atoms: C_12  and  C_13
REMARK    3  A    between atoms: N_15  and  C_16
REMARK    4  A    between atoms: C_19  and  C_20
REMARK    5  A    between atoms: C_27  and  C_28
REMARK                            x       y       z     vdW  Elec       q    Type
REMARK                         _______ _______ _______ _____ _____    ______ ____
ROOT
ATOM      1  C   UNL     1       3.371  18.117  23.018  0.00  0.00    +0.000 C 
ATOM      2  C   UNL     1       3.377  17.344  21.740  0.00  0.00    +0.000 A 
ATOM      3  S   UNL     1       4.492  17.717  20.508  0.00  0.00    +0.000 S 
ATOM      4  C   UNL     1       3.891  16.490  19.497  0.00  0.00    +0.000 A 
ATOM      5  N   UNL     1       4.429  16.302  18.279  0.00  0.00    +0.000 NA
ATOM      6  C   UNL     1       3.830  15.318  17.610  0.00  0.00    +0.000 A 
ATOM      7  N   UNL     1       2.804  14.558  18.018  0.00  0.00    +0.000 NA
ATOM      8  C   UNL     1       2.291  14.755  19.257  0.00  0.00    +0.000 A 
ATOM      9  N   UNL     1       1.185  14.005  19.674  0.00  0.00    +0.000 N 
ATOM     10  C   UNL     1       0.323  13.566  18.578  0.00  0.00    +0.000 C 
ATOM     11  C   UNL     1      -1.003  13.105  19.191  0.00  0.00    +0.000 C 
ATOM     12  C   UNL     1      -0.792  12.002  20.236  0.00  0.00    +0.000 C 
ATOM     13  C   UNL     1       0.264  12.433  21.276  0.00  0.00    +0.000 C 
ATOM     14  C   UNL     1       1.556  12.923  20.595  0.00  0.00    +0.000 C 
ATOM     15  C   UNL     1       2.845  15.778  20.067  0.00  0.00    +0.000 A 
ATOM     16  C   UNL     1       2.536  16.297  21.395  0.00  0.00    +0.000 A 
ATOM     17  C   UNL     1       1.465  15.811  22.317  0.00  0.00    +0.000 C 
ENDROOT
BRANCH  12  18
ATOM     18  C   UNL     1      -0.350  10.676  19.632  0.00  0.00    +0.000 C 
ATOM     19  O   UNL     1      -1.043  10.137  18.769  0.00  0.00    +0.000 OA
ATOM     20  N   UNL     1       0.851  10.168  20.089  0.00  0.00    +0.000 N 
ATOM     21  H   UNL     1       1.267  10.583  20.919  0.00  0.00    +0.000 HD
BRANCH  20  22
ATOM     22  C   UNL     1       1.488   9.036  19.544  0.00  0.00    +0.000 A 
ATOM     23  C   UNL     1       1.673   7.862  20.283  0.00  0.00    +0.000 A 
ATOM     24  C   UNL     1       2.311   6.753  19.735  0.00  0.00    +0.000 A 
ATOM     25  C   UNL     1       2.765   6.800  18.422  0.00  0.00    +0.000 A 
ATOM     26  C   UNL     1       2.578   7.960  17.664  0.00  0.00    +0.000 A 
ATOM     27  C   UNL     1       1.932   9.074  18.219  0.00  0.00    +0.000 A 
BRANCH  25  28
ATOM     28  C   UNL     1       3.410   5.655  17.862  0.00  0.00    +0.000 C 
ATOM     29  N   UNL     1       3.934   4.720  17.416  0.00  0.00    +0.000 NA
ENDBRANCH  25  28
ENDBRANCH  20  22
ENDBRANCH  12  18
TORSDOF 3
ENDMDL
MODEL 6
REMARK VINA RESULT:      -7.1      5.817      7.620
REMARK  Name = 
REMARK  5 active torsions:
REMARK  status: ('A' for Active; 'I' for Inactive)
REMARK    1  A    between atoms: C_1  and  C_2
REMARK    2  A    between atoms: C_12  and  C_13
REMARK    3  A    between atoms: N_15  and  C_16
REMARK    4  A    between atoms: C_19  and  C_20
REMARK    5  A    between atoms: C_27  and  C_28
REMARK                            x       y       z     vdW  Elec       q    Type
REMARK                         _______ _______ _______ _____ _____    ______ ____
ROOT
ATOM      1  C   UNL     1       1.995  17.673  23.590  0.00  0.00    +0.000 C 
ATOM      2  C   UNL     1       2.239  17.066  22.247  0.00  0.00    +0.000 A 
ATOM      3  S   UNL     1       3.391  17.741  21.188  0.00  0.00    +0.000 S 
ATOM      4  C   UNL     1       3.084  16.569  19.996  0.00  0.00    +0.000 A 
ATOM      5  N   UNL     1       3.754  16.607  18.832  0.00  0.00    +0.000 NA
ATOM      6  C   UNL     1       3.380  15.634  18.003  0.00  0.00    +0.000 A 
ATOM      7  N   UNL     1       2.452  14.691  18.215  0.00  0.00    +0.000 NA
ATOM      8  C   UNL     1       1.802  14.663  19.404  0.00  0.00    +0.000 A 
ATOM      9  N   UNL     1       0.793  13.716  19.619  0.00  0.00    +0.000 N 
ATOM     10  C   UNL     1       0.114  13.292  18.396  0.00  0.00    +0.000 C 
ATOM     11  C   UNL     1      -1.175  12.575  18.809  0.00  0.00    +0.000 C 
ATOM     12  C   UNL     1      -0.892  11.397  19.751  0.00  0.00    +0.000 C 
ATOM     13  C   UNL     1      -0.016  11.849  20.938  0.00  0.00    +0.000 C 
ATOM     14  C   UNL     1       1.241  12.598  20.457  0.00  0.00    +0.000 C 
ATOM     15  C   UNL     1       2.114  15.651  20.372  0.00  0.00    +0.000 A 
ATOM     16  C   UNL     1       1.607  15.958  21.705  0.00  0.00    +0.000 A 
ATOM     17  C   UNL     1       0.544  15.216  22.449  0.00  0.00    +0.000 C 
ENDROOT
BRANCH  12  18
ATOM     18  C   UNL     1      -0.195  10.230  19.064  0.00  0.00    +0.000 C 
ATOM     19  O   UNL     1      -0.517   9.916  17.918  0.00  0.00    +0.000 OA
ATOM     20  N   UNL     1       0.801   9.603  19.787  0.00  0.00    +0.000 N 
ATOM     21  H   UNL     1       0.882   9.811  20.780  0.00  0.00    +0.000 HD
BRANCH  20  22
ATOM     22  C   UNL     1       1.649   8.608  19.265  0.00  0.00    +0.000 A 
ATOM     23  C   UNL     1       2.304   8.761  18.037  0.00  0.00    +0.000 A 
ATOM     24  C   UNL     1       3.134   7.767  17.529  0.00  0.00    +0.000 A 
ATOM     25  C   UNL     1       3.333   6.598  18.257  0.00  0.00    +0.000 A 
ATOM     26  C   UNL     1       2.698   6.433  19.491  0.00  0.00    +0.000 A 
ATOM     27  C   UNL     1       1.865   7.439  20.000  0.00  0.00    +0.000 A 
BRANCH  25  28
ATOM     28  C   UNL     1       4.195   5.586  17.734  0.00  0.00    +0.000 C 
ATOM     29  N   UNL     1       4.904   4.770  17.310  0.00  0.00    +0.000 NA
ENDBRANCH  25  28
ENDBRANCH  20  22
ENDBRANCH  12  18
TORSDOF 3
ENDMDL
MODEL 7
REMARK VINA RESULT:      -7.0      1.108      1.152
REMARK  Name = 
REMARK  5 active torsions:
REMARK  status: ('A' for Active; 'I' for Inactive)
REMARK    1  A    between atoms: C_1  and  C_2
REMARK    2  A    between atoms: C_12  and  C_13
REMARK    3  A    between atoms: N_15  and  C_16
REMARK    4  A    between atoms: C_19  and  C_20
REMARK    5  A    between atoms: C_27  and  C_28
REMARK                            x       y       z     vdW  Elec       q    Type
REMARK                         _______ _______ _______ _____ _____    ______ ____
ROOT
ATOM      1  C   UNL     1      10.757  18.631  18.981  0.00  0.00    +0.000 C 
ATOM      2  C   UNL     1       9.765  17.664  19.541  0.00  0.00    +0.000 A 
ATOM      3  S   UNL     1       8.409  18.221  20.410  0.00  0.00    +0.000 S 
ATOM      4  C   UNL     1       7.840  16.641  20.670  0.00  0.00    +0.000 A 
ATOM      5  N   UNL     1       6.708  16.444  21.368  0.00  0.00    +0.000 NA
ATOM      6  C   UNL     1       6.416  15.151  21.498  0.00  0.00    +0.000 A 
ATOM      7  N   UNL     1       7.110  14.104  21.031  0.00  0.00    +0.000 NA
ATOM      8  C   UNL     1       8.239  14.330  20.315  0.00  0.00    +0.000 A 
ATOM      9  N   UNL     1       9.002  13.245  19.867  0.00  0.00    +0.000 N 
ATOM     10  C   UNL     1       8.887  12.056  20.710  0.00  0.00    +0.000 C 
ATOM     11  C   UNL     1      10.031  11.111  20.333  0.00  0.00    +0.000 C 
ATOM     12  C   UNL     1      10.013  10.763  18.839  0.00  0.00    +0.000 C 
ATOM     13  C   UNL     1       9.949  12.047  17.983  0.00  0.00    +0.000 C 
ATOM     14  C   UNL     1       8.804  12.971  18.439  0.00  0.00    +0.000 C 
ATOM     15  C   UNL     1       8.656  15.669  20.108  0.00  0.00    +0.000 A 
ATOM     16  C   UNL     1       9.803  16.282  19.449  0.00  0.00    +0.000 A 
ATOM     17  C   UNL     1      10.915  15.571  18.748  0.00  0.00    +0.000 C 
ENDROOT
BRANCH  12  18
ATOM     18  C   UNL     1       8.844   9.871  18.442  0.00  0.00    +0.000 C 
ATOM     19  O   UNL     1       7.908  10.343  17.797  0.00  0.00    +0.000 OA
ATOM     20  N   UNL     1       8.932   8.546  18.821  0.00  0.00    +0.000 N 
ATOM     21  H   UNL     1       9.648   8.282  19.496  0.00  0.00    +0.000 HD
BRANCH  20  22
ATOM     22  C   UNL     1       8.024   7.547  18.420  0.00  0.00    +0.000 A 
ATOM     23  C   UNL     1       7.130   7.740  17.360  0.00  0.00    +0.000 A 
ATOM     24  C   UNL     1       6.234   6.747  16.978  0.00  0.00    +0.000 A 
ATOM     25  C   UNL     1       6.228   5.530  17.649  0.00  0.00    +0.000 A 
ATOM     26  C   UNL     1       7.123   5.314  18.701  0.00  0.00    +0.000 A 
ATOM     27  C   UNL     1       8.027   6.316  19.081  0.00  0.00    +0.000 A 
BRANCH  25  28
ATOM     28  C   UNL     1       5.312   4.511  17.245  0.00  0.00    +0.000 C 
ATOM     29  N   UNL     1       4.574   3.681  16.907  0.00  0.00    +0.000 NA
ENDBRANCH  25  28
ENDBRANCH  20  22
ENDBRANCH  12  18
TORSDOF 3
ENDMDL
MODEL 8
REMARK VINA RESULT:      -6.9      6.880      8.930
REMARK  Name = 
REMARK  5 active torsions:
REMARK  status: ('A' for Active; 'I' for Inactive)
REMARK    1  A    between atoms: C_1  and  C_2
REMARK    2  A    between atoms: C_12  and  C_13
REMARK    3  A    between atoms: N_15  and  C_16
REMARK    4  A    between atoms: C_19  and  C_20
REMARK    5  A    between atoms: C_27  and  C_28
REMARK                            x       y       z     vdW  Elec       q    Type
REMARK                         _______ _______ _______ _____ _____    ______ ____
ROOT
ATOM      1  C   UNL     1      -3.604  14.416  24.009  0.00  0.00    +0.000 C 
ATOM      2  C   UNL     1      -2.248  14.354  23.387  0.00  0.00    +0.000 A 
ATOM      3  S   UNL     1      -1.105  15.584  23.676  0.00  0.00    +0.000 S 
ATOM      4  C   UNL     1       0.061  14.827  22.699  0.00  0.00    +0.000 A 
ATOM      5  N   UNL     1       1.267  15.396  22.532  0.00  0.00    +0.000 NA
ATOM      6  C   UNL     1       2.052  14.687  21.723  0.00  0.00    +0.000 A 
ATOM      7  N   UNL     1       1.758  13.538  21.099  0.00  0.00    +0.000 NA
ATOM      8  C   UNL     1       0.541  12.974  21.297  0.00  0.00    +0.000 A 
ATOM      9  N   UNL     1       0.202  11.803  20.610  0.00  0.00    +0.000 N 
ATOM     10  C   UNL     1       0.885  11.654  19.326  0.00  0.00    +0.000 C 
ATOM     11  C   UNL     1       0.155  10.563  18.538  0.00  0.00    +0.000 C 
ATOM     12  C   UNL     1       0.096   9.242  19.317  0.00  0.00    +0.000 C 
ATOM     13  C   UNL     1      -0.463   9.474  20.737  0.00  0.00    +0.000 C 
ATOM     14  C   UNL     1       0.287  10.609  21.460  0.00  0.00    +0.000 C 
ATOM     15  C   UNL     1      -0.385  13.637  22.141  0.00  0.00    +0.000 A 
ATOM     16  C   UNL     1      -1.761  13.367  22.543  0.00  0.00    +0.000 A 
ATOM     17  C   UNL     1      -2.598  12.198  22.134  0.00  0.00    +0.000 C 
ENDROOT
BRANCH  12  18
ATOM     18  C   UNL     1       1.450   8.558  19.446  0.00  0.00    +0.000 C 
ATOM     19  O   UNL     1       1.972   8.441  20.555  0.00  0.00    +0.000 OA
ATOM     20  N   UNL     1       2.004   8.076  18.276  0.00  0.00    +0.000 N 
ATOM     21  H   UNL     1       1.594   8.367  17.391  0.00  0.00    +0.000 HD
BRANCH  20  22
ATOM     22  C   UNL     1       3.172   7.291  18.219  0.00  0.00    +0.000 A 
ATOM     23  C   UNL     1       3.367   6.191  19.063  0.00  0.00    +0.000 A 
ATOM     24  C   UNL     1       4.529   5.428  19.002  0.00  0.00    +0.000 A 
ATOM     25  C   UNL     1       5.516   5.750  18.076  0.00  0.00    +0.000 A 
ATOM     26  C   UNL     1       5.332   6.836  17.217  0.00  0.00    +0.000 A 
ATOM     27  C   UNL     1       4.159   7.601  17.280  0.00  0.00    +0.000 A 
BRANCH  25  28
ATOM     28  C   UNL     1       6.702   4.955  18.011  0.00  0.00    +0.000 C 
ATOM     29  N   UNL     1       7.670   4.317  17.965  0.00  0.00    +0.000 NA
ENDBRANCH  25  28
ENDBRANCH  20  22
ENDBRANCH  12  18
TORSDOF 3
ENDMDL
MODEL 9
REMARK VINA RESULT:      -6.9      7.052      9.077
REMARK  Name = 
REMARK  5 active torsions:
REMARK  status: ('A' for Active; 'I' for Inactive)
REMARK    1  A    between atoms: C_1  and  C_2
REMARK    2  A    between atoms: C_12  and  C_13
REMARK    3  A    between atoms: N_15  and  C_16
REMARK    4  A    between atoms: C_19  and  C_20
REMARK    5  A    between atoms: C_27  and  C_28
REMARK                            x       y       z     vdW  Elec       q    Type
REMARK                         _______ _______ _______ _____ _____    ______ ____
ROOT
ATOM      1  C   UNL     1      -3.587  14.095  24.524  0.00  0.00    +0.000 C 
ATOM      2  C   UNL     1      -2.291  14.229  23.795  0.00  0.00    +0.000 A 
ATOM      3  S   UNL     1      -1.155  15.411  24.258  0.00  0.00    +0.000 S 
ATOM      4  C   UNL     1      -0.064  14.939  23.043  0.00  0.00    +0.000 A 
ATOM      5  N   UNL     1       1.109  15.582  22.910  0.00  0.00    +0.000 NA
ATOM      6  C   UNL     1       1.833  15.104  21.900  0.00  0.00    +0.000 A 
ATOM      7  N   UNL     1       1.511  14.111  21.060  0.00  0.00    +0.000 NA
ATOM      8  C   UNL     1       0.330  13.467  21.226  0.00  0.00    +0.000 A 
ATOM      9  N   UNL     1      -0.044  12.464  20.322  0.00  0.00    +0.000 N 
ATOM     10  C   UNL     1       0.525  12.633  18.986  0.00  0.00    +0.000 C 
ATOM     11  C   UNL     1      -0.249  11.715  18.036  0.00  0.00    +0.000 C 
ATOM     12  C   UNL     1      -0.209  10.253  18.500  0.00  0.00    +0.000 C 
ATOM     13  C   UNL     1      -0.643  10.139  19.977  0.00  0.00    +0.000 C 
ATOM     14  C   UNL     1       0.144  11.116  20.872  0.00  0.00    +0.000 C 
ATOM     15  C   UNL     1      -0.532  13.886  22.270  0.00  0.00    +0.000 A 
ATOM     16  C   UNL     1      -1.860  13.477  22.714  0.00  0.00    +0.000 A 
ATOM     17  C   UNL     1      -2.704  12.394  22.123  0.00  0.00    +0.000 C 
ENDROOT
BRANCH  12  18
ATOM     18  C   UNL     1       1.167   9.614  18.360  0.00  0.00    +0.000 C 
ATOM     19  O   UNL     1       2.165  10.329  18.274  0.00  0.00    +0.000 OA
ATOM     20  N   UNL     1       1.202   8.234  18.367  0.00  0.00    +0.000 N 
ATOM     21  H   UNL     1       0.325   7.726  18.267  0.00  0.00    +0.000 HD
BRANCH  20  22
ATOM     22  C   UNL     1       2.387   7.473  18.396  0.00  0.00    +0.000 A 
ATOM     23  C   UNL     1       3.385   7.619  17.425  0.00  0.00    +0.000 A 
ATOM     24  C   UNL     1       4.548   6.857  17.460  0.00  0.00    +0.000 A 
ATOM     25  C   UNL     1       4.738   5.938  18.487  0.00  0.00    +0.000 A 
ATOM     26  C   UNL     1       3.758   5.788  19.472  0.00  0.00    +0.000 A 
ATOM     27  C   UNL     1       2.589   6.560  19.434  0.00  0.00    +0.000 A 
BRANCH  25  28
ATOM     28  C   UNL     1       5.939   5.166  18.523  0.00  0.00    +0.000 C 
ATOM     29  N   UNL     1       6.915   4.538  18.542  0.00  0.00    +0.000 NA
ENDBRANCH  25  28
ENDBRANCH  20  22
ENDBRANCH  12  18
TORSDOF 3
ENDMDL
