MODEL 1
REMARK VINA RESULT:      -6.4      0.000      0.000
REMARK  Name = 
REMARK  5 active torsions:
REMARK  status: ('A' for Active; 'I' for Inactive)
REMARK    1  A    between atoms: C_1  and  C_2
REMARK    2  A    between atoms: C_3  and  C_4
REMARK    3  A    between atoms: C_4  and  O_6
REMARK    4  A    between atoms: N_8  and  C_9
REMARK    5  A    between atoms: C_17  and  C_18
REMARK                            x       y       z     vdW  Elec       q    Type
REMARK                         _______ _______ _______ _____ _____    ______ ____
ROOT
ATOM      1  C   UNL     1       2.640  12.563  18.219  0.00  0.00    +0.000 C 
ATOM      2  C   UNL     1       1.835  12.775  19.458  0.00  0.00    +0.000 A 
ATOM      3  C   UNL     1       2.231  13.502  20.616  0.00  0.00    +0.000 A 
ATOM      4  N   UNL     1       1.247  13.537  21.527  0.00  0.00    +0.000 NA
ATOM      5  N   UNL     1       0.223  12.827  20.994  0.00  0.00    +0.000 N 
ATOM      6  C   UNL     1       0.530  12.361  19.709  0.00  0.00    +0.000 A 
ENDROOT
BRANCH   5   7
ATOM      7  C   UNL     1      -0.968  12.615  21.754  0.00  0.00    +0.000 A 
ATOM      8  C   UNL     1      -1.932  13.642  21.799  0.00  0.00    +0.000 A 
ATOM      9  C   UNL     1      -2.993  13.584  22.704  0.00  0.00    +0.000 A 
ATOM     10  C   UNL     1      -3.133  12.476  23.530  0.00  0.00    +0.000 A 
ATOM     11 CL   UNL     1      -4.389  12.441  24.703  0.00  0.00    +0.000 Cl
ATOM     12  C   UNL     1      -2.246  11.406  23.427  0.00  0.00    +0.000 A 
ATOM     13  C   UNL     1      -1.162  11.464  22.539  0.00  0.00    +0.000 A 
ATOM     14 CL   UNL     1      -0.064  10.129  22.613  0.00  0.00    +0.000 Cl
ENDBRANCH   5   7
BRANCH   6  15
ATOM     15  C   UNL     1      -0.401  11.655  18.795  0.00  0.00    +0.000 A 
ATOM     16  C   UNL     1      -0.244  10.291  18.493  0.00  0.00    +0.000 A 
ATOM     17  C   UNL     1      -1.054   9.663  17.541  0.00  0.00    +0.000 A 
ATOM     18  C   UNL     1      -2.095  10.368  16.947  0.00  0.00    +0.000 A 
ATOM     19 CL   UNL     1      -3.102   9.594  15.789  0.00  0.00    +0.000 Cl
ATOM     20  C   UNL     1      -2.318  11.698  17.284  0.00  0.00    +0.000 A 
ATOM     21  C   UNL     1      -1.461  12.342  18.183  0.00  0.00    +0.000 A 
ENDBRANCH   6  15
BRANCH   3  22
ATOM     22  C   UNL     1       3.499  14.187  20.904  0.00  0.00    +0.000 C 
ATOM     23  O   UNL     1       3.963  15.116  20.260  0.00  0.00    +0.000 OA
BRANCH  22  24
ATOM     24  O   UNL     1       4.124  13.669  21.997  0.00  0.00    +0.000 OA
ATOM     25  H   UNL     1       3.567  12.917  22.305  0.00  0.00    +0.000 HD
ENDBRANCH  22  24
ENDBRANCH   3  22
TORSDOF 4
ENDMDL
MODEL 2
REMARK VINA RESULT:      -6.3      7.271      8.845
REMARK  Name = 
REMARK  5 active torsions:
REMARK  status: ('A' for Active; 'I' for Inactive)
REMARK    1  A    between atoms: C_1  and  C_2
REMARK    2  A    between atoms: C_3  and  C_4
REMARK    3  A    between atoms: C_4  and  O_6
REMARK    4  A    between atoms: N_8  and  C_9
REMARK    5  A    between atoms: C_17  and  C_18
REMARK                            x       y       z     vdW  Elec       q    Type
REMARK                         _______ _______ _______ _____ _____    ______ ____
ROOT
ATOM      1  C   UNL     1       5.067   7.220  16.049  0.00  0.00    +0.000 C 
ATOM      2  C   UNL     1       4.675   6.096  16.948  0.00  0.00    +0.000 A 
ATOM      3  C   UNL     1       5.294   4.816  17.029  0.00  0.00    +0.000 A 
ATOM      4  N   UNL     1       4.722   4.060  17.979  0.00  0.00    +0.000 NA
ATOM      5  N   UNL     1       3.728   4.815  18.504  0.00  0.00    +0.000 N 
ATOM      6  C   UNL     1       3.678   6.087  17.919  0.00  0.00    +0.000 A 
ENDROOT
BRANCH   5   7
ATOM      7  C   UNL     1       2.872   4.266  19.509  0.00  0.00    +0.000 A 
ATOM      8  C   UNL     1       3.354   4.174  20.830  0.00  0.00    +0.000 A 
ATOM      9  C   UNL     1       2.660   3.439  21.793  0.00  0.00    +0.000 A 
ATOM     10  C   UNL     1       1.451   2.841  21.461  0.00  0.00    +0.000 A 
ATOM     11 CL   UNL     1       0.636   1.866  22.619  0.00  0.00    +0.000 Cl
ATOM     12  C   UNL     1       0.911   3.006  20.187  0.00  0.00    +0.000 A 
ATOM     13  C   UNL     1       1.612   3.721  19.205  0.00  0.00    +0.000 A 
ATOM     14 CL   UNL     1       0.891   3.732  17.632  0.00  0.00    +0.000 Cl
ENDBRANCH   5   7
BRANCH   6  15
ATOM     15  C   UNL     1       2.793   7.202  18.337  0.00  0.00    +0.000 A 
ATOM     16  C   UNL     1       2.379   8.193  17.430  0.00  0.00    +0.000 A 
ATOM     17  C   UNL     1       1.643   9.303  17.859  0.00  0.00    +0.000 A 
ATOM     18  C   UNL     1       1.230   9.388  19.184  0.00  0.00    +0.000 A 
ATOM     19 CL   UNL     1       0.311  10.742  19.710  0.00  0.00    +0.000 Cl
ATOM     20  C   UNL     1       1.564   8.383  20.085  0.00  0.00    +0.000 A 
ATOM     21  C   UNL     1       2.361   7.311  19.668  0.00  0.00    +0.000 A 
ENDBRANCH   6  15
BRANCH   3  22
ATOM     22  C   UNL     1       6.419   4.269  16.259  0.00  0.00    +0.000 C 
ATOM     23  O   UNL     1       7.533   4.768  16.182  0.00  0.00    +0.000 OA
BRANCH  22  24
ATOM     24  O   UNL     1       6.089   3.113  15.620  0.00  0.00    +0.000 OA
ATOM     25  H   UNL     1       5.756   2.498  16.314  0.00  0.00    +0.000 HD
ENDBRANCH  22  24
ENDBRANCH   3  22
TORSDOF 4
ENDMDL
MODEL 3
REMARK VINA RESULT:      -6.1      0.228      1.195
REMARK  Name = 
REMARK  5 active torsions:
REMARK  status: ('A' for Active; 'I' for Inactive)
REMARK    1  A    between atoms: C_1  and  C_2
REMARK    2  A    between atoms: C_3  and  C_4
REMARK    3  A    between atoms: C_4  and  O_6
REMARK    4  A    between atoms: N_8  and  C_9
REMARK    5  A    between atoms: C_17  and  C_18
REMARK                            x       y       z     vdW  Elec       q    Type
REMARK                         _______ _______ _______ _____ _____    ______ ____
ROOT
ATOM      1  C   UNL     1       2.791  12.759  18.370  0.00  0.00    +0.000 C 
ATOM      2  C   UNL     1       1.950  12.933  19.590  0.00  0.00    +0.000 A 
ATOM      3  C   UNL     1       2.304  13.645  20.771  0.00  0.00    +0.000 A 
ATOM      4  N   UNL     1       1.296  13.646  21.658  0.00  0.00    +0.000 NA
ATOM      5  N   UNL     1       0.299  12.929  21.085  0.00  0.00    +0.000 N 
ATOM      6  C   UNL     1       0.647  12.494  19.799  0.00  0.00    +0.000 A 
ENDROOT
BRANCH   5   7
ATOM      7  C   UNL     1      -0.908  12.684  21.809  0.00  0.00    +0.000 A 
ATOM      8  C   UNL     1      -1.866  13.714  21.896  0.00  0.00    +0.000 A 
ATOM      9  C   UNL     1      -2.944  13.613  22.777  0.00  0.00    +0.000 A 
ATOM     10  C   UNL     1      -3.107  12.460  23.534  0.00  0.00    +0.000 A 
ATOM     11 CL   UNL     1      -4.385  12.367  24.680  0.00  0.00    +0.000 Cl
ATOM     12  C   UNL     1      -2.226  11.391  23.386  0.00  0.00    +0.000 A 
ATOM     13  C   UNL     1      -1.125  11.491  22.523  0.00  0.00    +0.000 A 
ATOM     14 CL   UNL     1      -0.038  10.145  22.539  0.00  0.00    +0.000 Cl
ENDBRANCH   5   7
BRANCH   6  15
ATOM     15  C   UNL     1      -0.249  11.789  18.849  0.00  0.00    +0.000 A 
ATOM     16  C   UNL     1      -1.309  12.453  18.206  0.00  0.00    +0.000 A 
ATOM     17  C   UNL     1      -2.218  11.755  17.405  0.00  0.00    +0.000 A 
ATOM     18  C   UNL     1      -2.024  10.400  17.158  0.00  0.00    +0.000 A 
ATOM     19 CL   UNL     1      -3.130   9.544  16.159  0.00  0.00    +0.000 Cl
ATOM     20  C   UNL     1      -0.940   9.737  17.722  0.00  0.00    +0.000 A 
ATOM     21  C   UNL     1      -0.074  10.423  18.581  0.00  0.00    +0.000 A 
ENDBRANCH   6  15
BRANCH   3  22
ATOM     22  C   UNL     1       3.552  14.345  21.106  0.00  0.00    +0.000 C 
ATOM     23  O   UNL     1       4.396  13.948  21.896  0.00  0.00    +0.000 OA
BRANCH  22  24
ATOM     24  O   UNL     1       3.681  15.516  20.425  0.00  0.00    +0.000 OA
ATOM     25  H   UNL     1       4.616  15.556  20.115  0.00  0.00    +0.000 HD
ENDBRANCH  22  24
ENDBRANCH   3  22
TORSDOF 4
ENDMDL
MODEL 4
REMARK VINA RESULT:      -6.0      7.775     10.126
REMARK  Name = 
REMARK  5 active torsions:
REMARK  status: ('A' for Active; 'I' for Inactive)
REMARK    1  A    between atoms: C_1  and  C_2
REMARK    2  A    between atoms: C_3  and  C_4
REMARK    3  A    between atoms: C_4  and  O_6
REMARK    4  A    between atoms: N_8  and  C_9
REMARK    5  A    between atoms: C_17  and  C_18
REMARK                            x       y       z     vdW  Elec       q    Type
REMARK                         _______ _______ _______ _____ _____    ______ ____
ROOT
ATOM      1  C   UNL     1       1.061   3.776  19.243  0.00  0.00    +0.000 C 
ATOM      2  C   UNL     1       2.505   3.939  18.905  0.00  0.00    +0.000 A 
ATOM      3  C   UNL     1       3.428   2.902  18.591  0.00  0.00    +0.000 A 
ATOM      4  N   UNL     1       4.636   3.401  18.288  0.00  0.00    +0.000 NA
ATOM      5  N   UNL     1       4.524   4.745  18.421  0.00  0.00    +0.000 N 
ATOM      6  C   UNL     1       3.222   5.125  18.773  0.00  0.00    +0.000 A 
ENDROOT
BRANCH   5   7
ATOM      7  C   UNL     1       5.670   5.576  18.230  0.00  0.00    +0.000 A 
ATOM      8  C   UNL     1       6.602   5.695  19.281  0.00  0.00    +0.000 A 
ATOM      9  C   UNL     1       7.604   6.665  19.240  0.00  0.00    +0.000 A 
ATOM     10  C   UNL     1       7.722   7.484  18.124  0.00  0.00    +0.000 A 
ATOM     11 CL   UNL     1       8.902   8.735  18.105  0.00  0.00    +0.000 Cl
ATOM     12  C   UNL     1       6.873   7.312  17.032  0.00  0.00    +0.000 A 
ATOM     13  C   UNL     1       5.846   6.358  17.074  0.00  0.00    +0.000 A 
ATOM     14 CL   UNL     1       4.783   6.345  15.709  0.00  0.00    +0.000 Cl
ENDBRANCH   5   7
BRANCH   6  15
ATOM     15  C   UNL     1       2.723   6.517  18.883  0.00  0.00    +0.000 A 
ATOM     16  C   UNL     1       2.309   7.056  20.113  0.00  0.00    +0.000 A 
ATOM     17  C   UNL     1       1.729   8.327  20.187  0.00  0.00    +0.000 A 
ATOM     18  C   UNL     1       1.644   9.116  19.045  0.00  0.00    +0.000 A 
ATOM     19 CL   UNL     1       0.948  10.685  19.137  0.00  0.00    +0.000 Cl
ATOM     20  C   UNL     1       2.115   8.634  17.829  0.00  0.00    +0.000 A 
ATOM     21  C   UNL     1       2.628   7.335  17.746  0.00  0.00    +0.000 A 
ENDBRANCH   6  15
BRANCH   3  22
ATOM     22  C   UNL     1       3.222   1.447  18.546  0.00  0.00    +0.000 C 
ATOM     23  O   UNL     1       2.232   0.859  18.956  0.00  0.00    +0.000 OA
BRANCH  22  24
ATOM     24  O   UNL     1       4.277   0.798  17.981  0.00  0.00    +0.000 OA
ATOM     25  H   UNL     1       4.493   0.046  18.580  0.00  0.00    +0.000 HD
ENDBRANCH  22  24
ENDBRANCH   3  22
TORSDOF 4
ENDMDL
MODEL 5
REMARK VINA RESULT:      -5.9      7.631      9.251
REMARK  Name = 
REMARK  5 active torsions:
REMARK  status: ('A' for Active; 'I' for Inactive)
REMARK    1  A    between atoms: C_1  and  C_2
REMARK    2  A    between atoms: C_3  and  C_4
REMARK    3  A    between atoms: C_4  and  O_6
REMARK    4  A    between atoms: N_8  and  C_9
REMARK    5  A    between atoms: C_17  and  C_18
REMARK                            x       y       z     vdW  Elec       q    Type
REMARK                         _______ _______ _______ _____ _____    ______ ____
ROOT
ATOM      1  C   UNL     1       4.912   7.145  15.764  0.00  0.00    +0.000 C 
ATOM      2  C   UNL     1       4.617   5.896  16.525  0.00  0.00    +0.000 A 
ATOM      3  C   UNL     1       5.234   4.626  16.345  0.00  0.00    +0.000 A 
ATOM      4  N   UNL     1       4.768   3.730  17.230  0.00  0.00    +0.000 NA
ATOM      5  N   UNL     1       3.842   4.387  17.969  0.00  0.00    +0.000 N 
ATOM      6  C   UNL     1       3.735   5.732  17.588  0.00  0.00    +0.000 A 
ENDROOT
BRANCH   5   7
ATOM      7  C   UNL     1       3.101   3.686  18.969  0.00  0.00    +0.000 A 
ATOM      8  C   UNL     1       1.695   3.781  18.961  0.00  0.00    +0.000 A 
ATOM      9  C   UNL     1       0.943   3.315  20.039  0.00  0.00    +0.000 A 
ATOM     10  C   UNL     1       1.581   2.699  21.108  0.00  0.00    +0.000 A 
ATOM     11 CL   UNL     1       0.666   2.200  22.475  0.00  0.00    +0.000 Cl
ATOM     12  C   UNL     1       2.961   2.506  21.086  0.00  0.00    +0.000 A 
ATOM     13  C   UNL     1       3.730   2.992  20.019  0.00  0.00    +0.000 A 
ATOM     14 CL   UNL     1       5.442   2.805  20.186  0.00  0.00    +0.000 Cl
ENDBRANCH   5   7
BRANCH   6  15
ATOM     15  C   UNL     1       2.908   6.762  18.263  0.00  0.00    +0.000 A 
ATOM     16  C   UNL     1       2.345   7.836  17.552  0.00  0.00    +0.000 A 
ATOM     17  C   UNL     1       1.667   8.865  18.215  0.00  0.00    +0.000 A 
ATOM     18  C   UNL     1       1.461   8.785  19.587  0.00  0.00    +0.000 A 
ATOM     19 CL   UNL     1       0.613  10.040  20.401  0.00  0.00    +0.000 Cl
ATOM     20  C   UNL     1       1.943   7.696  20.303  0.00  0.00    +0.000 A 
ATOM     21  C   UNL     1       2.683   6.705  19.647  0.00  0.00    +0.000 A 
ENDBRANCH   6  15
BRANCH   3  22
ATOM     22  C   UNL     1       6.263   4.212  15.382  0.00  0.00    +0.000 C 
ATOM     23  O   UNL     1       6.049   3.679  14.302  0.00  0.00    +0.000 OA
BRANCH  22  24
ATOM     24  O   UNL     1       7.521   4.491  15.823  0.00  0.00    +0.000 OA
ATOM     25  H   UNL     1       8.114   3.817  15.415  0.00  0.00    +0.000 HD
ENDBRANCH  22  24
ENDBRANCH   3  22
TORSDOF 4
ENDMDL
MODEL 6
REMARK VINA RESULT:      -5.9      8.545     10.955
REMARK  Name = 
REMARK  5 active torsions:
REMARK  status: ('A' for Active; 'I' for Inactive)
REMARK    1  A    between atoms: C_1  and  C_2
REMARK    2  A    between atoms: C_3  and  C_4
REMARK    3  A    between atoms: C_4  and  O_6
REMARK    4  A    between atoms: N_8  and  C_9
REMARK    5  A    between atoms: C_17  and  C_18
REMARK                            x       y       z     vdW  Elec       q    Type
REMARK                         _______ _______ _______ _____ _____    ______ ____
ROOT
ATOM      1  C   UNL     1       9.579  17.551  20.612  0.00  0.00    +0.000 C 
ATOM      2  C   UNL     1       9.787  16.363  19.734  0.00  0.00    +0.000 A 
ATOM      3  C   UNL     1      10.539  16.318  18.527  0.00  0.00    +0.000 A 
ATOM      4  N   UNL     1      10.562  15.078  18.014  0.00  0.00    +0.000 NA
ATOM      5  N   UNL     1       9.819  14.317  18.853  0.00  0.00    +0.000 N 
ATOM      6  C   UNL     1       9.344  15.060  19.942  0.00  0.00    +0.000 A 
ENDROOT
BRANCH   5   7
ATOM      7  C   UNL     1       9.588  12.940  18.549  0.00  0.00    +0.000 A 
ATOM      8  C   UNL     1       8.509  12.606  17.706  0.00  0.00    +0.000 A 
ATOM      9  C   UNL     1       8.098  11.280  17.566  0.00  0.00    +0.000 A 
ATOM     10  C   UNL     1       8.796  10.272  18.218  0.00  0.00    +0.000 A 
ATOM     11 CL   UNL     1       8.242   8.647  18.116  0.00  0.00    +0.000 Cl
ATOM     12  C   UNL     1       9.927  10.574  18.975  0.00  0.00    +0.000 A 
ATOM     13  C   UNL     1      10.334  11.906  19.143  0.00  0.00    +0.000 A 
ATOM     14 CL   UNL     1      11.669  12.149  20.216  0.00  0.00    +0.000 Cl
ENDBRANCH   5   7
BRANCH   6  15
ATOM     15  C   UNL     1       8.602  14.517  21.107  0.00  0.00    +0.000 A 
ATOM     16  C   UNL     1       9.267  13.906  22.184  0.00  0.00    +0.000 A 
ATOM     17  C   UNL     1       8.554  13.292  23.219  0.00  0.00    +0.000 A 
ATOM     18  C   UNL     1       7.166  13.365  23.240  0.00  0.00    +0.000 A 
ATOM     19 CL   UNL     1       6.288  12.626  24.520  0.00  0.00    +0.000 Cl
ATOM     20  C   UNL     1       6.487  14.028  22.224  0.00  0.00    +0.000 A 
ATOM     21  C   UNL     1       7.201  14.578  21.154  0.00  0.00    +0.000 A 
ENDBRANCH   6  15
BRANCH   3  22
ATOM     22  C   UNL     1      11.260  17.394  17.832  0.00  0.00    +0.000 C 
ATOM     23  O   UNL     1      12.333  17.866  18.178  0.00  0.00    +0.000 OA
BRANCH  22  24
ATOM     24  O   UNL     1      10.594  17.826  16.725  0.00  0.00    +0.000 OA
ATOM     25  H   UNL     1      11.153  18.530  16.322  0.00  0.00    +0.000 HD
ENDBRANCH  22  24
ENDBRANCH   3  22
TORSDOF 4
ENDMDL
MODEL 7
REMARK VINA RESULT:      -5.9      3.785      6.406
REMARK  Name = 
REMARK  5 active torsions:
REMARK  status: ('A' for Active; 'I' for Inactive)
REMARK    1  A    between atoms: C_1  and  C_2
REMARK    2  A    between atoms: C_3  and  C_4
REMARK    3  A    between atoms: C_4  and  O_6
REMARK    4  A    between atoms: N_8  and  C_9
REMARK    5  A    between atoms: C_17  and  C_18
REMARK                            x       y       z     vdW  Elec       q    Type
REMARK                         _______ _______ _______ _____ _____    ______ ____
ROOT
ATOM      1  C   UNL     1      -1.299  14.639  19.889  0.00  0.00    +0.000 C 
ATOM      2  C   UNL     1      -1.044  13.179  19.710  0.00  0.00    +0.000 A 
ATOM      3  C   UNL     1      -2.024  12.157  19.562  0.00  0.00    +0.000 A 
ATOM      4  N   UNL     1      -1.450  10.959  19.371  0.00  0.00    +0.000 NA
ATOM      5  N   UNL     1      -0.114  11.178  19.413  0.00  0.00    +0.000 N 
ATOM      6  C   UNL     1       0.184  12.535  19.592  0.00  0.00    +0.000 A 
ENDROOT
BRANCH   5   7
ATOM      7  C   UNL     1       0.791  10.077  19.307  0.00  0.00    +0.000 A 
ATOM      8  C   UNL     1       1.360   9.787  18.051  0.00  0.00    +0.000 A 
ATOM      9  C   UNL     1       2.057   8.597  17.841  0.00  0.00    +0.000 A 
ATOM     10  C   UNL     1       2.243   7.714  18.897  0.00  0.00    +0.000 A 
ATOM     11 CL   UNL     1       3.028   6.209  18.622  0.00  0.00    +0.000 Cl
ATOM     12  C   UNL     1       1.775   8.032  20.170  0.00  0.00    +0.000 A 
ATOM     13  C   UNL     1       1.051   9.213  20.387  0.00  0.00    +0.000 A 
ATOM     14 CL   UNL     1       0.412   9.416  21.982  0.00  0.00    +0.000 Cl
ENDBRANCH   5   7
BRANCH   6  15
ATOM     15  C   UNL     1       1.539  13.138  19.565  0.00  0.00    +0.000 A 
ATOM     16  C   UNL     1       2.248  13.409  20.748  0.00  0.00    +0.000 A 
ATOM     17  C   UNL     1       3.472  14.085  20.718  0.00  0.00    +0.000 A 
ATOM     18  C   UNL     1       4.050  14.416  19.497  0.00  0.00    +0.000 A 
ATOM     19 CL   UNL     1       5.562  15.232  19.457  0.00  0.00    +0.000 Cl
ATOM     20  C   UNL     1       3.403  14.092  18.310  0.00  0.00    +0.000 A 
ATOM     21  C   UNL     1       2.145  13.481  18.347  0.00  0.00    +0.000 A 
ENDBRANCH   6  15
BRANCH   3  22
ATOM     22  C   UNL     1      -3.490  12.255  19.577  0.00  0.00    +0.000 C 
ATOM     23  O   UNL     1      -4.157  12.749  20.474  0.00  0.00    +0.000 OA
BRANCH  22  24
ATOM     24  O   UNL     1      -4.050  11.726  18.455  0.00  0.00    +0.000 OA
ATOM     25  H   UNL     1      -3.531  12.075  17.694  0.00  0.00    +0.000 HD
ENDBRANCH  22  24
ENDBRANCH   3  22
TORSDOF 4
ENDMDL
MODEL 8
REMARK VINA RESULT:      -5.8      7.699      9.296
REMARK  Name = 
REMARK  5 active torsions:
REMARK  status: ('A' for Active; 'I' for Inactive)
REMARK    1  A    between atoms: C_1  and  C_2
REMARK    2  A    between atoms: C_3  and  C_4
REMARK    3  A    between atoms: C_4  and  O_6
REMARK    4  A    between atoms: N_8  and  C_9
REMARK    5  A    between atoms: C_17  and  C_18
REMARK                            x       y       z     vdW  Elec       q    Type
REMARK                         _______ _______ _______ _____ _____    ______ ____
ROOT
ATOM      1  C   UNL     1       5.090   7.181  15.624  0.00  0.00    +0.000 C 
ATOM      2  C   UNL     1       4.774   5.927  16.369  0.00  0.00    +0.000 A 
ATOM      3  C   UNL     1       5.361   4.646  16.166  0.00  0.00    +0.000 A 
ATOM      4  N   UNL     1       4.884   3.748  17.042  0.00  0.00    +0.000 NA
ATOM      5  N   UNL     1       3.980   4.415  17.799  0.00  0.00    +0.000 N 
ATOM      6  C   UNL     1       3.899   5.767  17.439  0.00  0.00    +0.000 A 
ENDROOT
BRANCH   5   7
ATOM      7  C   UNL     1       3.233   3.715  18.796  0.00  0.00    +0.000 A 
ATOM      8  C   UNL     1       1.825   3.741  18.729  0.00  0.00    +0.000 A 
ATOM      9  C   UNL     1       1.052   3.279  19.795  0.00  0.00    +0.000 A 
ATOM     10  C   UNL     1       1.675   2.734  20.910  0.00  0.00    +0.000 A 
ATOM     11 CL   UNL     1       0.730   2.242  22.259  0.00  0.00    +0.000 Cl
ATOM     12  C   UNL     1       3.062   2.608  20.950  0.00  0.00    +0.000 A 
ATOM     13  C   UNL     1       3.851   3.093  19.896  0.00  0.00    +0.000 A 
ATOM     14 CL   UNL     1       5.561   2.996  20.136  0.00  0.00    +0.000 Cl
ENDBRANCH   5   7
BRANCH   6  15
ATOM     15  C   UNL     1       3.101   6.805  18.136  0.00  0.00    +0.000 A 
ATOM     16  C   UNL     1       2.815   6.715  19.510  0.00  0.00    +0.000 A 
ATOM     17  C   UNL     1       1.964   7.635  20.132  0.00  0.00    +0.000 A 
ATOM     18  C   UNL     1       1.464   8.713  19.411  0.00  0.00    +0.000 A 
ATOM     19 CL   UNL     1       0.433   9.854  20.178  0.00  0.00    +0.000 Cl
ATOM     20  C   UNL     1       1.793   8.866  18.069  0.00  0.00    +0.000 A 
ATOM     21  C   UNL     1       2.586   7.904  17.432  0.00  0.00    +0.000 A 
ENDBRANCH   6  15
BRANCH   3  22
ATOM     22  C   UNL     1       6.373   4.224  15.187  0.00  0.00    +0.000 C 
ATOM     23  O   UNL     1       7.482   4.721  15.056  0.00  0.00    +0.000 OA
BRANCH  22  24
ATOM     24  O   UNL     1       5.939   3.188  14.417  0.00  0.00    +0.000 OA
ATOM     25  H   UNL     1       4.958   3.171  14.502  0.00  0.00    +0.000 HD
ENDBRANCH  22  24
ENDBRANCH   3  22
TORSDOF 4
ENDMDL
MODEL 9
REMARK VINA RESULT:      -5.8      2.691      3.955
REMARK  Name = 
REMARK  5 active torsions:
REMARK  status: ('A' for Active; 'I' for Inactive)
REMARK    1  A    between atoms: C_1  and  C_2
REMARK    2  A    between atoms: C_3  and  C_4
REMARK    3  A    between atoms: C_4  and  O_6
REMARK    4  A    between atoms: N_8  and  C_9
REMARK    5  A    between atoms: C_17  and  C_18
REMARK                            x       y       z     vdW  Elec       q    Type
REMARK                         _______ _______ _______ _____ _____    ______ ____
ROOT
ATOM      1  C   UNL     1      -0.265  15.461  19.650  0.00  0.00    +0.000 C 
ATOM      2  C   UNL     1       0.379  14.170  20.030  0.00  0.00    +0.000 A 
ATOM      3  C   UNL     1       1.602  14.006  20.739  0.00  0.00    +0.000 A 
ATOM      4  N   UNL     1       1.867  12.709  20.957  0.00  0.00    +0.000 NA
ATOM      5  N   UNL     1       0.849  12.022  20.384  0.00  0.00    +0.000 N 
ATOM      6  C   UNL     1      -0.106  12.882  19.825  0.00  0.00    +0.000 A 
ENDROOT
BRANCH   5   7
ATOM      7  C   UNL     1       0.866  10.593  20.384  0.00  0.00    +0.000 A 
ATOM      8  C   UNL     1       0.417   9.911  21.532  0.00  0.00    +0.000 A 
ATOM      9  C   UNL     1       0.629   8.539  21.675  0.00  0.00    +0.000 A 
ATOM     10  C   UNL     1       1.237   7.827  20.650  0.00  0.00    +0.000 A 
ATOM     11 CL   UNL     1       1.576   6.154  20.857  0.00  0.00    +0.000 Cl
ATOM     12  C   UNL     1       1.597   8.468  19.465  0.00  0.00    +0.000 A 
ATOM     13  C   UNL     1       1.412   9.851  19.321  0.00  0.00    +0.000 A 
ATOM     14 CL   UNL     1       2.027  10.537  17.857  0.00  0.00    +0.000 Cl
ENDBRANCH   5   7
BRANCH   6  15
ATOM     15  C   UNL     1      -1.399  12.471  19.226  0.00  0.00    +0.000 A 
ATOM     16  C   UNL     1      -2.612  12.615  19.923  0.00  0.00    +0.000 A 
ATOM     17  C   UNL     1      -3.809  12.117  19.399  0.00  0.00    +0.000 A 
ATOM     18  C   UNL     1      -3.827  11.554  18.127  0.00  0.00    +0.000 A 
ATOM     19 CL   UNL     1      -5.300  10.957  17.474  0.00  0.00    +0.000 Cl
ATOM     20  C   UNL     1      -2.653  11.468  17.387  0.00  0.00    +0.000 A 
ATOM     21  C   UNL     1      -1.445  11.901  17.944  0.00  0.00    +0.000 A 
ENDBRANCH   6  15
BRANCH   3  22
ATOM     22  C   UNL     1       2.538  15.022  21.241  0.00  0.00    +0.000 C 
ATOM     23  O   UNL     1       3.095  15.869  20.558  0.00  0.00    +0.000 OA
BRANCH  22  24
ATOM     24  O   UNL     1       2.728  14.925  22.585  0.00  0.00    +0.000 OA
ATOM     25  H   UNL     1       2.518  15.812  22.960  0.00  0.00    +0.000 HD
ENDBRANCH  22  24
ENDBRANCH   3  22
TORSDOF 4
ENDMDL
