MODEL 1
REMARK VINA RESULT:      -7.9      0.000      0.000
REMARK  Name = 
REMARK  5 active torsions:
REMARK  status: ('A' for Active; 'I' for Inactive)
REMARK    1  A    between atoms: C_2  and  C_17
REMARK    2  A    between atoms: N_3  and  C_4
REMARK    3  A    between atoms: C_4  and  C_5
REMARK    4  A    between atoms: C_5  and  C_6
REMARK    5  A    between atoms: C_8  and  N_9
REMARK                            x       y       z     vdW  Elec       q    Type
REMARK                         _______ _______ _______ _____ _____    ______ ____
ROOT
ATOM      1  C   UNL     1       7.957   8.857  17.642  0.00  0.00    +0.000 C 
ENDROOT
BRANCH   1   4
ATOM      2  O   UNL     1       7.982  11.593  17.274  0.00  0.00    +0.000 OA
ATOM      3  C   UNL     1       8.557  11.147  18.266  0.00  0.00    +0.000 C 
ATOM      4  N   UNL     1       8.667   9.793  18.497  0.00  0.00    +0.000 N 
ATOM      5  H   UNL     1       8.973   9.481  19.409  0.00  0.00    +0.000 HD
BRANCH   3   6
ATOM      6  C   UNL     1       9.327  12.047  19.225  0.00  0.00    +0.000 C 
ATOM      7  C   UNL     1      10.181  11.223  20.244  0.00  0.00    +0.000 C 
ATOM      8  C   UNL     1      11.583  11.849  20.100  0.00  0.00    +0.000 C 
ATOM      9  C   UNL     1      12.110  11.520  18.722  0.00  0.00    +0.000 C 
ATOM     10  C   UNL     1      11.399  12.235  17.839  0.00  0.00    +0.000 C 
ATOM     11  C   UNL     1      10.375  13.018  18.627  0.00  0.00    +0.000 C 
ATOM     12  C   UNL     1      11.224  13.319  19.870  0.00  0.00    +0.000 C 
ENDBRANCH   3   6
ENDBRANCH   1   4
BRANCH   1  13
ATOM     13  C   UNL     1       7.994   7.433  18.184  0.00  0.00    +0.000 C 
BRANCH  13  14
ATOM     14  C   UNL     1       7.105   6.535  17.369  0.00  0.00    +0.000 A 
ATOM     15  C   UNL     1       5.865   6.183  17.863  0.00  0.00    +0.000 A 
ATOM     16  C   UNL     1       5.094   5.287  17.145  0.00  0.00    +0.000 A 
ATOM     17  N   UNL     1       5.539   4.803  15.977  0.00  0.00    +0.000 NA
ATOM     18  C   UNL     1       6.751   5.211  15.561  0.00  0.00    +0.000 A 
ATOM     19  N   UNL     1       7.573   6.054  16.205  0.00  0.00    +0.000 NA
BRANCH  16  20
ATOM     20  N   UNL     1       3.856   4.914  17.604  0.00  0.00    +0.000 N 
ATOM     21  C   UNL     1       2.942   5.841  18.243  0.00  0.00    +0.000 C 
ATOM     22  C   UNL     1       1.961   4.880  18.909  0.00  0.00    +0.000 C 
ATOM     23  C   UNL     1       1.818   3.754  17.891  0.00  0.00    +0.000 C 
ATOM     24  C   UNL     1       3.162   3.709  17.166  0.00  0.00    +0.000 C 
ENDBRANCH  16  20
ENDBRANCH  13  14
ENDBRANCH   1  13
TORSDOF 5
ENDMDL
MODEL 2
REMARK VINA RESULT:      -7.8      5.111      8.462
REMARK  Name = 
REMARK  5 active torsions:
REMARK  status: ('A' for Active; 'I' for Inactive)
REMARK    1  A    between atoms: C_2  and  C_17
REMARK    2  A    between atoms: N_3  and  C_4
REMARK    3  A    between atoms: C_4  and  C_5
REMARK    4  A    between atoms: C_5  and  C_6
REMARK    5  A    between atoms: C_8  and  N_9
REMARK                            x       y       z     vdW  Elec       q    Type
REMARK                         _______ _______ _______ _____ _____    ______ ____
ROOT
ATOM      1  C   UNL     1       6.700   4.667  19.469  0.00  0.00    +0.000 C 
ENDROOT
BRANCH   1   4
ATOM      2  O   UNL     1       5.015   2.515  19.867  0.00  0.00    +0.000 OA
ATOM      3  C   UNL     1       4.503   3.587  19.546  0.00  0.00    +0.000 C 
ATOM      4  N   UNL     1       5.264   4.698  19.250  0.00  0.00    +0.000 N 
ATOM      5  H   UNL     1       4.803   5.595  19.183  0.00  0.00    +0.000 HD
BRANCH   3   6
ATOM      6  C   UNL     1       3.006   3.723  19.297  0.00  0.00    +0.000 C 
ATOM      7  C   UNL     1       2.297   2.331  19.219  0.00  0.00    +0.000 C 
ATOM      8  C   UNL     1       1.138   2.481  20.226  0.00  0.00    +0.000 C 
ATOM      9  C   UNL     1       1.727   2.593  21.613  0.00  0.00    +0.000 C 
ATOM     10  C   UNL     1       2.322   3.791  21.700  0.00  0.00    +0.000 C 
ATOM     11  C   UNL     1       2.157   4.465  20.359  0.00  0.00    +0.000 C 
ATOM     12  C   UNL     1       0.754   3.947  20.013  0.00  0.00    +0.000 C 
ENDBRANCH   3   6
ENDBRANCH   1   4
BRANCH   1  13
ATOM     13  C   UNL     1       7.451   5.595  18.523  0.00  0.00    +0.000 C 
BRANCH  13  14
ATOM     14  C   UNL     1       6.635   5.863  17.289  0.00  0.00    +0.000 A 
ATOM     15  C   UNL     1       6.913   5.164  16.130  0.00  0.00    +0.000 A 
ATOM     16  C   UNL     1       6.214   5.483  14.979  0.00  0.00    +0.000 A 
ATOM     17  N   UNL     1       5.266   6.429  15.009  0.00  0.00    +0.000 NA
ATOM     18  C   UNL     1       5.048   7.049  16.183  0.00  0.00    +0.000 A 
ATOM     19  N   UNL     1       5.695   6.821  17.337  0.00  0.00    +0.000 NA
BRANCH  16  20
ATOM     20  N   UNL     1       6.462   4.810  13.810  0.00  0.00    +0.000 N 
ATOM     21  C   UNL     1       7.682   4.985  13.045  0.00  0.00    +0.000 C 
ATOM     22  C   UNL     1       7.281   4.378  11.703  0.00  0.00    +0.000 C 
ATOM     23  C   UNL     1       6.415   3.186  12.095  0.00  0.00    +0.000 C 
ATOM     24  C   UNL     1       5.764   3.593  13.416  0.00  0.00    +0.000 C 
ENDBRANCH  16  20
ENDBRANCH  13  14
ENDBRANCH   1  13
TORSDOF 5
ENDMDL
MODEL 3
REMARK VINA RESULT:      -7.6      0.712      1.623
REMARK  Name = 
REMARK  5 active torsions:
REMARK  status: ('A' for Active; 'I' for Inactive)
REMARK    1  A    between atoms: C_2  and  C_17
REMARK    2  A    between atoms: N_3  and  C_4
REMARK    3  A    between atoms: C_4  and  C_5
REMARK    4  A    between atoms: C_5  and  C_6
REMARK    5  A    between atoms: C_8  and  N_9
REMARK                            x       y       z     vdW  Elec       q    Type
REMARK                         _______ _______ _______ _____ _____    ______ ____
ROOT
ATOM      1  C   UNL     1       7.743   8.739  17.808  0.00  0.00    +0.000 C 
ENDROOT
BRANCH   1   4
ATOM      2  O   UNL     1       7.977  11.471  17.484  0.00  0.00    +0.000 OA
ATOM      3  C   UNL     1       8.925  10.876  17.995  0.00  0.00    +0.000 C 
ATOM      4  N   UNL     1       8.936   9.504  18.129  0.00  0.00    +0.000 N 
ATOM      5  H   UNL     1       9.638   9.081  18.721  0.00  0.00    +0.000 HD
BRANCH   3   6
ATOM      6  C   UNL     1      10.218  11.589  18.370  0.00  0.00    +0.000 C 
ATOM      7  C   UNL     1      10.034  13.140  18.433  0.00  0.00    +0.000 C 
ATOM      8  C   UNL     1      10.598  13.496  19.824  0.00  0.00    +0.000 C 
ATOM      9  C   UNL     1       9.683  12.905  20.872  0.00  0.00    +0.000 C 
ATOM     10  C   UNL     1       9.846  11.575  20.842  0.00  0.00    +0.000 C 
ATOM     11  C   UNL     1      10.846  11.276  19.751  0.00  0.00    +0.000 C 
ATOM     12  C   UNL     1      11.755  12.499  19.933  0.00  0.00    +0.000 C 
ENDBRANCH   3   6
ENDBRANCH   1   4
BRANCH   1  13
ATOM     13  C   UNL     1       7.873   7.272  18.198  0.00  0.00    +0.000 C 
BRANCH  13  14
ATOM     14  C   UNL     1       7.036   6.410  17.293  0.00  0.00    +0.000 A 
ATOM     15  C   UNL     1       5.826   5.927  17.749  0.00  0.00    +0.000 A 
ATOM     16  C   UNL     1       5.108   5.064  16.940  0.00  0.00    +0.000 A 
ATOM     17  N   UNL     1       5.573   4.738  15.727  0.00  0.00    +0.000 NA
ATOM     18  C   UNL     1       6.753   5.266  15.355  0.00  0.00    +0.000 A 
ATOM     19  N   UNL     1       7.524   6.088  16.084  0.00  0.00    +0.000 NA
BRANCH  16  20
ATOM     20  N   UNL     1       3.901   4.564  17.359  0.00  0.00    +0.000 N 
ATOM     21  C   UNL     1       3.685   3.157  17.633  0.00  0.00    +0.000 C 
ATOM     22  C   UNL     1       2.160   3.086  17.639  0.00  0.00    +0.000 C 
ATOM     23  C   UNL     1       1.745   4.391  18.308  0.00  0.00    +0.000 C 
ATOM     24  C   UNL     1       2.851   5.382  17.951  0.00  0.00    +0.000 C 
ENDBRANCH  16  20
ENDBRANCH  13  14
ENDBRANCH   1  13
TORSDOF 5
ENDMDL
MODEL 4
REMARK VINA RESULT:      -7.6      5.258      7.433
REMARK  Name = 
REMARK  5 active torsions:
REMARK  status: ('A' for Active; 'I' for Inactive)
REMARK    1  A    between atoms: C_2  and  C_17
REMARK    2  A    between atoms: N_3  and  C_4
REMARK    3  A    between atoms: C_4  and  C_5
REMARK    4  A    between atoms: C_5  and  C_6
REMARK    5  A    between atoms: C_8  and  N_9
REMARK                            x       y       z     vdW  Elec       q    Type
REMARK                         _______ _______ _______ _____ _____    ______ ____
ROOT
ATOM      1  C   UNL     1       3.672   3.812  20.092  0.00  0.00    +0.000 C 
ENDROOT
BRANCH   1   4
ATOM      2  O   UNL     1       6.139   4.995  19.721  0.00  0.00    +0.000 OA
ATOM      3  C   UNL     1       5.661   4.368  18.776  0.00  0.00    +0.000 C 
ATOM      4  N   UNL     1       4.403   3.808  18.837  0.00  0.00    +0.000 N 
ATOM      5  H   UNL     1       4.133   3.147  18.120  0.00  0.00    +0.000 HD
BRANCH   3   6
ATOM      6  C   UNL     1       6.352   4.302  17.420  0.00  0.00    +0.000 C 
ATOM      7  C   UNL     1       5.358   3.918  16.275  0.00  0.00    +0.000 C 
ATOM      8  C   UNL     1       5.593   5.029  15.231  0.00  0.00    +0.000 C 
ATOM      9  C   UNL     1       5.104   6.336  15.812  0.00  0.00    +0.000 C 
ATOM     10  C   UNL     1       5.959   6.688  16.783  0.00  0.00    +0.000 C 
ATOM     11  C   UNL     1       7.001   5.598  16.871  0.00  0.00    +0.000 C 
ATOM     12  C   UNL     1       7.100   5.254  15.378  0.00  0.00    +0.000 C 
ENDBRANCH   3   6
ENDBRANCH   1   4
BRANCH   1  13
ATOM     13  C   UNL     1       2.231   4.278  19.923  0.00  0.00    +0.000 C 
BRANCH  13  14
ATOM     14  C   UNL     1       2.182   5.760  19.675  0.00  0.00    +0.000 A 
ATOM     15  C   UNL     1       1.543   6.577  20.586  0.00  0.00    +0.000 A 
ATOM     16  C   UNL     1       1.428   7.927  20.302  0.00  0.00    +0.000 A 
ATOM     17  N   UNL     1       1.960   8.424  19.177  0.00  0.00    +0.000 NA
ATOM     18  C   UNL     1       2.579   7.560  18.352  0.00  0.00    +0.000 A 
ATOM     19  N   UNL     1       2.713   6.237  18.537  0.00  0.00    +0.000 NA
BRANCH  16  20
ATOM     20  N   UNL     1       0.801   8.770  21.184  0.00  0.00    +0.000 N 
ATOM     21  C   UNL     1       1.329   9.063  22.502  0.00  0.00    +0.000 C 
ATOM     22  C   UNL     1       0.105   9.665  23.186  0.00  0.00    +0.000 C 
ATOM     23  C   UNL     1      -0.554  10.484  22.081  0.00  0.00    +0.000 C 
ATOM     24  C   UNL     1      -0.200   9.752  20.788  0.00  0.00    +0.000 C 
ENDBRANCH  16  20
ENDBRANCH  13  14
ENDBRANCH   1  13
TORSDOF 5
ENDMDL
MODEL 5
REMARK VINA RESULT:      -7.6      5.140      8.596
REMARK  Name = 
REMARK  5 active torsions:
REMARK  status: ('A' for Active; 'I' for Inactive)
REMARK    1  A    between atoms: C_2  and  C_17
REMARK    2  A    between atoms: N_3  and  C_4
REMARK    3  A    between atoms: C_4  and  C_5
REMARK    4  A    between atoms: C_5  and  C_6
REMARK    5  A    between atoms: C_8  and  N_9
REMARK                            x       y       z     vdW  Elec       q    Type
REMARK                         _______ _______ _______ _____ _____    ______ ____
ROOT
ATOM      1  C   UNL     1       3.860   7.153  18.251  0.00  0.00    +0.000 C 
ENDROOT
BRANCH   1   4
ATOM      2  O   UNL     1       4.403   4.784  19.561  0.00  0.00    +0.000 OA
ATOM      3  C   UNL     1       3.440   4.803  18.796  0.00  0.00    +0.000 C 
ATOM      4  N   UNL     1       3.134   5.913  18.038  0.00  0.00    +0.000 N 
ATOM      5  H   UNL     1       2.235   5.951  17.577  0.00  0.00    +0.000 HD
BRANCH   3   6
ATOM      6  C   UNL     1       2.613   3.556  18.508  0.00  0.00    +0.000 C 
ATOM      7  C   UNL     1       3.062   2.341  19.386  0.00  0.00    +0.000 C 
ATOM      8  C   UNL     1       1.737   1.868  20.018  0.00  0.00    +0.000 C 
ATOM      9  C   UNL     1       1.256   2.939  20.970  0.00  0.00    +0.000 C 
ATOM     10  C   UNL     1       0.850   3.980  20.230  0.00  0.00    +0.000 C 
ATOM     11  C   UNL     1       1.090   3.615  18.784  0.00  0.00    +0.000 C 
ATOM     12  C   UNL     1       0.758   2.118  18.868  0.00  0.00    +0.000 C 
ENDBRANCH   3   6
ENDBRANCH   1   4
BRANCH   1  13
ATOM     13  C   UNL     1       4.663   7.573  17.026  0.00  0.00    +0.000 C 
BRANCH  13  14
ATOM     14  C   UNL     1       5.664   6.511  16.662  0.00  0.00    +0.000 A 
ATOM     15  C   UNL     1       5.642   5.969  15.392  0.00  0.00    +0.000 A 
ATOM     16  C   UNL     1       6.508   4.931  15.098  0.00  0.00    +0.000 A 
ATOM     17  N   UNL     1       7.371   4.494  16.025  0.00  0.00    +0.000 NA
ATOM     18  C   UNL     1       7.337   5.089  17.231  0.00  0.00    +0.000 A 
ATOM     19  N   UNL     1       6.514   6.080  17.608  0.00  0.00    +0.000 NA
BRANCH  16  20
ATOM     20  N   UNL     1       6.516   4.368  13.847  0.00  0.00    +0.000 N 
ATOM     21  C   UNL     1       5.362   3.700  13.278  0.00  0.00    +0.000 C 
ATOM     22  C   UNL     1       6.002   2.927  12.129  0.00  0.00    +0.000 C 
ATOM     23  C   UNL     1       7.062   3.886  11.600  0.00  0.00    +0.000 C 
ATOM     24  C   UNL     1       7.490   4.705  12.816  0.00  0.00    +0.000 C 
ENDBRANCH  16  20
ENDBRANCH  13  14
ENDBRANCH   1  13
TORSDOF 5
ENDMDL
MODEL 6
REMARK VINA RESULT:      -7.6      5.251      8.570
REMARK  Name = 
REMARK  5 active torsions:
REMARK  status: ('A' for Active; 'I' for Inactive)
REMARK    1  A    between atoms: C_2  and  C_17
REMARK    2  A    between atoms: N_3  and  C_4
REMARK    3  A    between atoms: C_4  and  C_5
REMARK    4  A    between atoms: C_5  and  C_6
REMARK    5  A    between atoms: C_8  and  N_9
REMARK                            x       y       z     vdW  Elec       q    Type
REMARK                         _______ _______ _______ _____ _____    ______ ____
ROOT
ATOM      1  C   UNL     1       3.661   7.045  18.536  0.00  0.00    +0.000 C 
ENDROOT
BRANCH   1   4
ATOM      2  O   UNL     1       1.925   6.098  20.463  0.00  0.00    +0.000 OA
ATOM      3  C   UNL     1       2.047   5.436  19.433  0.00  0.00    +0.000 C 
ATOM      4  N   UNL     1       2.945   5.784  18.447  0.00  0.00    +0.000 N 
ATOM      5  H   UNL     1       2.874   5.329  17.546  0.00  0.00    +0.000 HD
BRANCH   3   6
ATOM      6  C   UNL     1       1.336   4.102  19.242  0.00  0.00    +0.000 C 
ATOM      7  C   UNL     1       1.600   3.496  17.825  0.00  0.00    +0.000 C 
ATOM      8  C   UNL     1       2.080   2.066  18.147  0.00  0.00    +0.000 C 
ATOM      9  C   UNL     1       3.421   2.161  18.838  0.00  0.00    +0.000 C 
ATOM     10  C   UNL     1       3.207   2.661  20.063  0.00  0.00    +0.000 C 
ATOM     11  C   UNL     1       1.726   2.930  20.178  0.00  0.00    +0.000 C 
ATOM     12  C   UNL     1       1.212   1.735  19.364  0.00  0.00    +0.000 C 
ENDBRANCH   3   6
ENDBRANCH   1   4
BRANCH   1  13
ATOM     13  C   UNL     1       4.310   7.438  17.214  0.00  0.00    +0.000 C 
BRANCH  13  14
ATOM     14  C   UNL     1       5.416   6.482  16.866  0.00  0.00    +0.000 A 
ATOM     15  C   UNL     1       5.512   6.001  15.575  0.00  0.00    +0.000 A 
ATOM     16  C   UNL     1       6.480   5.054  15.288  0.00  0.00    +0.000 A 
ATOM     17  N   UNL     1       7.324   4.646  16.246  0.00  0.00    +0.000 NA
ATOM     18  C   UNL     1       7.171   5.178  17.472  0.00  0.00    +0.000 A 
ATOM     19  N   UNL     1       6.246   6.078  17.841  0.00  0.00    +0.000 NA
BRANCH  16  20
ATOM     20  N   UNL     1       6.606   4.554  14.017  0.00  0.00    +0.000 N 
ATOM     21  C   UNL     1       5.549   3.815  13.355  0.00  0.00    +0.000 C 
ATOM     22  C   UNL     1       6.317   3.156  12.213  0.00  0.00    +0.000 C 
ATOM     23  C   UNL     1       7.313   4.229  11.787  0.00  0.00    +0.000 C 
ATOM     24  C   UNL     1       7.598   5.024  13.060  0.00  0.00    +0.000 C 
ENDBRANCH  16  20
ENDBRANCH  13  14
ENDBRANCH   1  13
TORSDOF 5
ENDMDL
MODEL 7
REMARK VINA RESULT:      -7.5      5.456      8.530
REMARK  Name = 
REMARK  5 active torsions:
REMARK  status: ('A' for Active; 'I' for Inactive)
REMARK    1  A    between atoms: C_2  and  C_17
REMARK    2  A    between atoms: N_3  and  C_4
REMARK    3  A    between atoms: C_4  and  C_5
REMARK    4  A    between atoms: C_5  and  C_6
REMARK    5  A    between atoms: C_8  and  N_9
REMARK                            x       y       z     vdW  Elec       q    Type
REMARK                         _______ _______ _______ _____ _____    ______ ____
ROOT
ATOM      1  C   UNL     1       2.822   6.902  17.811  0.00  0.00    +0.000 C 
ENDROOT
BRANCH   1   4
ATOM      2  O   UNL     1       1.217   4.729  17.237  0.00  0.00    +0.000 OA
ATOM      3  C   UNL     1       2.171   4.548  17.992  0.00  0.00    +0.000 C 
ATOM      4  N   UNL     1       2.984   5.584  18.400  0.00  0.00    +0.000 N 
ATOM      5  H   UNL     1       3.858   5.362  18.857  0.00  0.00    +0.000 HD
BRANCH   3   6
ATOM      6  C   UNL     1       2.429   3.202  18.658  0.00  0.00    +0.000 C 
ATOM      7  C   UNL     1       3.648   3.256  19.635  0.00  0.00    +0.000 C 
ATOM      8  C   UNL     1       3.067   2.672  20.940  0.00  0.00    +0.000 C 
ATOM      9  C   UNL     1       2.036   3.640  21.474  0.00  0.00    +0.000 C 
ATOM     10  C   UNL     1       0.976   3.589  20.655  0.00  0.00    +0.000 C 
ATOM     11  C   UNL     1       1.313   2.610  19.556  0.00  0.00    +0.000 C 
ATOM     12  C   UNL     1       2.122   1.603  20.385  0.00  0.00    +0.000 C 
ENDBRANCH   3   6
ENDBRANCH   1   4
BRANCH   1  13
ATOM     13  C   UNL     1       4.152   7.522  17.401  0.00  0.00    +0.000 C 
BRANCH  13  14
ATOM     14  C   UNL     1       5.157   6.450  17.082  0.00  0.00    +0.000 A 
ATOM     15  C   UNL     1       5.305   6.030  15.775  0.00  0.00    +0.000 A 
ATOM     16  C   UNL     1       6.169   4.983  15.507  0.00  0.00    +0.000 A 
ATOM     17  N   UNL     1       6.867   4.418  16.501  0.00  0.00    +0.000 NA
ATOM     18  C   UNL     1       6.675   4.899  17.743  0.00  0.00    +0.000 A 
ATOM     19  N   UNL     1       5.841   5.891  18.093  0.00  0.00    +0.000 NA
BRANCH  16  20
ATOM     20  N   UNL     1       6.342   4.539  14.221  0.00  0.00    +0.000 N 
ATOM     21  C   UNL     1       5.269   3.958  13.438  0.00  0.00    +0.000 C 
ATOM     22  C   UNL     1       6.052   3.278  12.318  0.00  0.00    +0.000 C 
ATOM     23  C   UNL     1       7.188   4.255  12.034  0.00  0.00    +0.000 C 
ATOM     24  C   UNL     1       7.454   4.945  13.371  0.00  0.00    +0.000 C 
ENDBRANCH  16  20
ENDBRANCH  13  14
ENDBRANCH   1  13
TORSDOF 5
ENDMDL
MODEL 8
REMARK VINA RESULT:      -7.5      5.090      8.400
REMARK  Name = 
REMARK  5 active torsions:
REMARK  status: ('A' for Active; 'I' for Inactive)
REMARK    1  A    between atoms: C_2  and  C_17
REMARK    2  A    between atoms: N_3  and  C_4
REMARK    3  A    between atoms: C_4  and  C_5
REMARK    4  A    between atoms: C_5  and  C_6
REMARK    5  A    between atoms: C_8  and  N_9
REMARK                            x       y       z     vdW  Elec       q    Type
REMARK                         _______ _______ _______ _____ _____    ______ ____
ROOT
ATOM      1  C   UNL     1       3.428   7.266  17.576  0.00  0.00    +0.000 C 
ENDROOT
BRANCH   1   4
ATOM      2  O   UNL     1       1.918   4.964  17.780  0.00  0.00    +0.000 OA
ATOM      3  C   UNL     1       2.517   5.342  18.786  0.00  0.00    +0.000 C 
ATOM      4  N   UNL     1       3.234   6.519  18.806  0.00  0.00    +0.000 N 
ATOM      5  H   UNL     1       3.861   6.690  19.582  0.00  0.00    +0.000 HD
BRANCH   3   6
ATOM      6  C   UNL     1       2.382   4.624  20.123  0.00  0.00    +0.000 C 
ATOM      7  C   UNL     1       0.928   4.102  20.362  0.00  0.00    +0.000 C 
ATOM      8  C   UNL     1       1.151   2.616  20.713  0.00  0.00    +0.000 C 
ATOM      9  C   UNL     1       1.670   1.911  19.480  0.00  0.00    +0.000 C 
ATOM     10  C   UNL     1       2.924   2.336  19.274  0.00  0.00    +0.000 C 
ATOM     11  C   UNL     1       3.231   3.348  20.352  0.00  0.00    +0.000 C 
ATOM     12  C   UNL     1       2.457   2.696  21.506  0.00  0.00    +0.000 C 
ENDBRANCH   3   6
ENDBRANCH   1   4
BRANCH   1  13
ATOM     13  C   UNL     1       4.862   7.758  17.416  0.00  0.00    +0.000 C 
BRANCH  13  14
ATOM     14  C   UNL     1       5.771   6.619  17.044  0.00  0.00    +0.000 A 
ATOM     15  C   UNL     1       5.855   6.225  15.723  0.00  0.00    +0.000 A 
ATOM     16  C   UNL     1       6.626   5.121  15.407  0.00  0.00    +0.000 A 
ATOM     17  N   UNL     1       7.300   4.475  16.368  0.00  0.00    +0.000 NA
ATOM     18  C   UNL     1       7.174   4.934  17.626  0.00  0.00    +0.000 A 
ATOM     19  N   UNL     1       6.430   5.979  18.023  0.00  0.00    +0.000 NA
BRANCH  16  20
ATOM     20  N   UNL     1       6.734   4.700  14.106  0.00  0.00    +0.000 N 
ATOM     21  C   UNL     1       7.865   5.036  13.263  0.00  0.00    +0.000 C 
ATOM     22  C   UNL     1       7.312   4.710  11.878  0.00  0.00    +0.000 C 
ATOM     23  C   UNL     1       6.477   3.457  12.114  0.00  0.00    +0.000 C 
ATOM     24  C   UNL     1       5.980   3.583  13.553  0.00  0.00    +0.000 C 
ENDBRANCH  16  20
ENDBRANCH  13  14
ENDBRANCH   1  13
TORSDOF 5
ENDMDL
MODEL 9
REMARK VINA RESULT:      -7.4      4.849      8.467
REMARK  Name = 
REMARK  5 active torsions:
REMARK  status: ('A' for Active; 'I' for Inactive)
REMARK    1  A    between atoms: C_2  and  C_17
REMARK    2  A    between atoms: N_3  and  C_4
REMARK    3  A    between atoms: C_4  and  C_5
REMARK    4  A    between atoms: C_5  and  C_6
REMARK    5  A    between atoms: C_8  and  N_9
REMARK                            x       y       z     vdW  Elec       q    Type
REMARK                         _______ _______ _______ _____ _____    ______ ____
ROOT
ATOM      1  C   UNL     1       3.699   7.291  18.488  0.00  0.00    +0.000 C 
ENDROOT
BRANCH   1   4
ATOM      2  O   UNL     1       4.701   5.050  19.752  0.00  0.00    +0.000 OA
ATOM      3  C   UNL     1       3.521   5.336  19.951  0.00  0.00    +0.000 C 
ATOM      4  N   UNL     1       2.908   6.389  19.306  0.00  0.00    +0.000 N 
ATOM      5  H   UNL     1       2.007   6.702  19.641  0.00  0.00    +0.000 HD
BRANCH   3   6
ATOM      6  C   UNL     1       2.610   4.455  20.797  0.00  0.00    +0.000 C 
ATOM      7  C   UNL     1       1.105   4.630  20.412  0.00  0.00    +0.000 C 
ATOM      8  C   UNL     1       0.640   3.178  20.178  0.00  0.00    +0.000 C 
ATOM      9  C   UNL     1       1.345   2.646  18.951  0.00  0.00    +0.000 C 
ATOM     10  C   UNL     1       2.635   2.473  19.274  0.00  0.00    +0.000 C 
ATOM     11  C   UNL     1       2.796   2.920  20.707  0.00  0.00    +0.000 C 
ATOM     12  C   UNL     1       1.443   2.438  21.251  0.00  0.00    +0.000 C 
ENDBRANCH   3   6
ENDBRANCH   1   4
BRANCH   1  13
ATOM     13  C   UNL     1       3.681   6.905  17.014  0.00  0.00    +0.000 C 
BRANCH  13  14
ATOM     14  C   UNL     1       5.045   6.455  16.570  0.00  0.00    +0.000 A 
ATOM     15  C   UNL     1       5.180   5.794  15.365  0.00  0.00    +0.000 A 
ATOM     16  C   UNL     1       6.426   5.308  15.010  0.00  0.00    +0.000 A 
ATOM     17  N   UNL     1       7.480   5.510  15.813  0.00  0.00    +0.000 NA
ATOM     18  C   UNL     1       7.263   6.177  16.961  0.00  0.00    +0.000 A 
ATOM     19  N   UNL     1       6.087   6.659  17.393  0.00  0.00    +0.000 NA
BRANCH  16  20
ATOM     20  N   UNL     1       6.599   4.648  13.820  0.00  0.00    +0.000 N 
ATOM     21  C   UNL     1       5.588   3.780  13.248  0.00  0.00    +0.000 C 
ATOM     22  C   UNL     1       6.407   3.009  12.217  0.00  0.00    +0.000 C 
ATOM     23  C   UNL     1       7.365   4.058  11.665  0.00  0.00    +0.000 C 
ATOM     24  C   UNL     1       7.590   5.029  12.823  0.00  0.00    +0.000 C 
ENDBRANCH  16  20
ENDBRANCH  13  14
ENDBRANCH   1  13
TORSDOF 5
ENDMDL
