MODEL 1
REMARK VINA RESULT:      -6.3      0.000      0.000
REMARK  Name = 
REMARK  7 active torsions:
REMARK  status: ('A' for Active; 'I' for Inactive)
REMARK    1  A    between atoms: C_1  and  C_2
REMARK    2  A    between atoms: C_2  and  C_3
REMARK    3  A    between atoms: C_3  and  C_4
REMARK    4  A    between atoms: C_4  and  C_5
REMARK    5  A    between atoms: C_5  and  C_6
REMARK    6  A    between atoms: C_11  and  C_12
REMARK    7  A    between atoms: C_11  and  C_13
REMARK                            x       y       z     vdW  Elec       q    Type
REMARK                         _______ _______ _______ _____ _____    ______ ____
ROOT
ATOM      1  C   UNL     1       6.120   4.895  18.398  0.00  0.00    +0.000 C 
ATOM      2  O   UNL     1       6.650   4.999  19.512  0.00  0.00    +0.000 OA
ATOM      3  N   UNL     1       4.782   5.154  18.178  0.00  0.00    +0.000 N 
ATOM      4  C   UNL     1       3.861   5.633  19.209  0.00  0.00    +0.000 C 
ATOM      5  C   UNL     1       2.971   4.477  18.833  0.00  0.00    +0.000 C 
ATOM      6  C   UNL     1       1.856   3.915  19.326  0.00  0.00    +0.000 C 
ATOM      7  C   UNL     1       1.213   4.392  20.609  0.00  0.00    +0.000 C 
ATOM      8  C   UNL     1       3.891   4.216  17.725  0.00  0.00    +0.000 C 
ATOM      9  O   UNL     1       3.855   3.514  16.736  0.00  0.00    +0.000 OA
ENDROOT
BRANCH   6  10
ATOM     10  C   UNL     1       1.160   2.737  18.689  0.00  0.00    +0.000 C 
ATOM     11  F   UNL     1       1.945   1.629  18.755  0.00  0.00    +0.000 F 
ENDBRANCH   6  10
BRANCH   1  12
ATOM     12  C   UNL     1       6.926   4.484  17.181  0.00  0.00    +0.000 C 
BRANCH  12  13
ATOM     13  C   UNL     1       6.765   5.443  15.997  0.00  0.00    +0.000 C 
BRANCH  13  14
ATOM     14  C   UNL     1       7.127   4.796  14.655  0.00  0.00    +0.000 C 
BRANCH  14  16
ATOM     15  C   UNL     1       6.246   3.577  12.634  0.00  0.00    +0.000 C 
ATOM     16  C   UNL     1       5.950   4.021  14.060  0.00  0.00    +0.000 C 
ENDBRANCH  14  16
ENDBRANCH  13  14
ENDBRANCH  12  13
ENDBRANCH   1  12
TORSDOF 5
ENDMDL
MODEL 2
REMARK VINA RESULT:      -6.1      1.233      1.459
REMARK  Name = 
REMARK  7 active torsions:
REMARK  status: ('A' for Active; 'I' for Inactive)
REMARK    1  A    between atoms: C_1  and  C_2
REMARK    2  A    between atoms: C_2  and  C_3
REMARK    3  A    between atoms: C_3  and  C_4
REMARK    4  A    between atoms: C_4  and  C_5
REMARK    5  A    between atoms: C_5  and  C_6
REMARK    6  A    between atoms: C_11  and  C_12
REMARK    7  A    between atoms: C_11  and  C_13
REMARK                            x       y       z     vdW  Elec       q    Type
REMARK                         _______ _______ _______ _____ _____    ______ ____
ROOT
ATOM      1  C   UNL     1       5.467   4.269  16.999  0.00  0.00    +0.000 C 
ATOM      2  O   UNL     1       6.422   4.441  17.767  0.00  0.00    +0.000 OA
ATOM      3  N   UNL     1       4.193   4.728  17.272  0.00  0.00    +0.000 N 
ATOM      4  C   UNL     1       3.844   5.512  18.457  0.00  0.00    +0.000 C 
ATOM      5  C   UNL     1       2.765   4.491  18.711  0.00  0.00    +0.000 C 
ATOM      6  C   UNL     1       1.909   4.219  19.707  0.00  0.00    +0.000 C 
ATOM      7  C   UNL     1       1.915   4.987  21.009  0.00  0.00    +0.000 C 
ATOM      8  C   UNL     1       3.104   3.909  17.412  0.00  0.00    +0.000 C 
ATOM      9  O   UNL     1       2.586   3.086  16.687  0.00  0.00    +0.000 OA
ENDROOT
BRANCH   6  10
ATOM     10  C   UNL     1       0.893   3.103  19.656  0.00  0.00    +0.000 C 
ATOM     11  F   UNL     1       1.514   1.893  19.689  0.00  0.00    +0.000 F 
ENDBRANCH   6  10
BRANCH   1  12
ATOM     12  C   UNL     1       5.642   3.545  15.678  0.00  0.00    +0.000 C 
BRANCH  12  13
ATOM     13  C   UNL     1       5.394   4.439  14.459  0.00  0.00    +0.000 C 
BRANCH  13  14
ATOM     14  C   UNL     1       6.395   4.189  13.325  0.00  0.00    +0.000 C 
BRANCH  14  16
ATOM     15  C   UNL     1       4.696   3.373  11.652  0.00  0.00    +0.000 C 
ATOM     16  C   UNL     1       5.961   3.029  12.427  0.00  0.00    +0.000 C 
ENDBRANCH  14  16
ENDBRANCH  13  14
ENDBRANCH  12  13
ENDBRANCH   1  12
TORSDOF 5
ENDMDL
MODEL 3
REMARK VINA RESULT:      -6.1      2.406      5.846
REMARK  Name = 
REMARK  7 active torsions:
REMARK  status: ('A' for Active; 'I' for Inactive)
REMARK    1  A    between atoms: C_1  and  C_2
REMARK    2  A    between atoms: C_2  and  C_3
REMARK    3  A    between atoms: C_3  and  C_4
REMARK    4  A    between atoms: C_4  and  C_5
REMARK    5  A    between atoms: C_5  and  C_6
REMARK    6  A    between atoms: C_11  and  C_12
REMARK    7  A    between atoms: C_11  and  C_13
REMARK                            x       y       z     vdW  Elec       q    Type
REMARK                         _______ _______ _______ _____ _____    ______ ____
ROOT
ATOM      1  C   UNL     1       3.842   2.218  19.145  0.00  0.00    +0.000 C 
ATOM      2  O   UNL     1       3.731   1.114  18.596  0.00  0.00    +0.000 OA
ATOM      3  N   UNL     1       3.864   3.406  18.442  0.00  0.00    +0.000 N 
ATOM      4  C   UNL     1       3.702   3.500  16.991  0.00  0.00    +0.000 C 
ATOM      5  C   UNL     1       4.984   4.291  16.983  0.00  0.00    +0.000 C 
ATOM      6  C   UNL     1       5.822   4.764  16.048  0.00  0.00    +0.000 C 
ATOM      7  C   UNL     1       5.626   4.486  14.575  0.00  0.00    +0.000 C 
ATOM      8  C   UNL     1       4.927   4.271  18.445  0.00  0.00    +0.000 C 
ATOM      9  O   UNL     1       5.520   4.853  19.329  0.00  0.00    +0.000 OA
ENDROOT
BRANCH   6  10
ATOM     10  C   UNL     1       7.058   5.572  16.362  0.00  0.00    +0.000 C 
ATOM     11  F   UNL     1       7.868   4.890  17.215  0.00  0.00    +0.000 F 
ENDBRANCH   6  10
BRANCH   1  12
ATOM     12  C   UNL     1       3.945   2.337  20.654  0.00  0.00    +0.000 C 
BRANCH  12  13
ATOM     13  C   UNL     1       2.612   2.679  21.326  0.00  0.00    +0.000 C 
BRANCH  13  14
ATOM     14  C   UNL     1       2.280   4.175  21.261  0.00  0.00    +0.000 C 
BRANCH  14  16
ATOM     15  C   UNL     1       0.511   3.185  19.765  0.00  0.00    +0.000 C 
ATOM     16  C   UNL     1       0.990   4.439  20.482  0.00  0.00    +0.000 C 
ENDBRANCH  14  16
ENDBRANCH  13  14
ENDBRANCH  12  13
ENDBRANCH   1  12
TORSDOF 5
ENDMDL
MODEL 4
REMARK VINA RESULT:      -6.1      2.273      3.650
REMARK  Name = 
REMARK  7 active torsions:
REMARK  status: ('A' for Active; 'I' for Inactive)
REMARK    1  A    between atoms: C_1  and  C_2
REMARK    2  A    between atoms: C_2  and  C_3
REMARK    3  A    between atoms: C_3  and  C_4
REMARK    4  A    between atoms: C_4  and  C_5
REMARK    5  A    between atoms: C_5  and  C_6
REMARK    6  A    between atoms: C_11  and  C_12
REMARK    7  A    between atoms: C_11  and  C_13
REMARK                            x       y       z     vdW  Elec       q    Type
REMARK                         _______ _______ _______ _____ _____    ______ ____
ROOT
ATOM      1  C   UNL     1       5.248   5.272  16.696  0.00  0.00    +0.000 C 
ATOM      2  O   UNL     1       4.882   5.102  15.526  0.00  0.00    +0.000 OA
ATOM      3  N   UNL     1       4.888   4.425  17.725  0.00  0.00    +0.000 N 
ATOM      4  C   UNL     1       4.090   3.212  17.543  0.00  0.00    +0.000 C 
ATOM      5  C   UNL     1       3.179   3.752  18.615  0.00  0.00    +0.000 C 
ATOM      6  C   UNL     1       1.983   3.418  19.124  0.00  0.00    +0.000 C 
ATOM      7  C   UNL     1       1.164   2.272  18.575  0.00  0.00    +0.000 C 
ATOM      8  C   UNL     1       4.157   4.821  18.815  0.00  0.00    +0.000 C 
ATOM      9  O   UNL     1       4.323   5.677  19.658  0.00  0.00    +0.000 OA
ENDROOT
BRANCH   6  10
ATOM     10  C   UNL     1       1.315   4.167  20.252  0.00  0.00    +0.000 C 
ATOM     11  F   UNL     1       0.657   3.304  21.072  0.00  0.00    +0.000 F 
ENDBRANCH   6  10
BRANCH   1  12
ATOM     12  C   UNL     1       6.147   6.433  17.076  0.00  0.00    +0.000 C 
BRANCH  12  13
ATOM     13  C   UNL     1       7.379   6.007  17.881  0.00  0.00    +0.000 C 
BRANCH  13  14
ATOM     14  C   UNL     1       8.137   7.197  18.480  0.00  0.00    +0.000 C 
BRANCH  14  16
ATOM     15  C   UNL     1       8.642   9.659  18.306  0.00  0.00    +0.000 C 
ATOM     16  C   UNL     1       7.875   8.490  17.705  0.00  0.00    +0.000 C 
ENDBRANCH  14  16
ENDBRANCH  13  14
ENDBRANCH  12  13
ENDBRANCH   1  12
TORSDOF 5
ENDMDL
MODEL 5
REMARK VINA RESULT:      -6.1      2.442      5.840
REMARK  Name = 
REMARK  7 active torsions:
REMARK  status: ('A' for Active; 'I' for Inactive)
REMARK    1  A    between atoms: C_1  and  C_2
REMARK    2  A    between atoms: C_2  and  C_3
REMARK    3  A    between atoms: C_3  and  C_4
REMARK    4  A    between atoms: C_4  and  C_5
REMARK    5  A    between atoms: C_5  and  C_6
REMARK    6  A    between atoms: C_11  and  C_12
REMARK    7  A    between atoms: C_11  and  C_13
REMARK                            x       y       z     vdW  Elec       q    Type
REMARK                         _______ _______ _______ _____ _____    ______ ____
ROOT
ATOM      1  C   UNL     1       2.547   5.192  18.513  0.00  0.00    +0.000 C 
ATOM      2  O   UNL     1       2.192   6.291  18.956  0.00  0.00    +0.000 OA
ATOM      3  N   UNL     1       3.860   4.766  18.527  0.00  0.00    +0.000 N 
ATOM      4  C   UNL     1       4.961   5.530  19.116  0.00  0.00    +0.000 C 
ATOM      5  C   UNL     1       5.666   5.371  17.794  0.00  0.00    +0.000 C 
ATOM      6  C   UNL     1       6.776   5.867  17.225  0.00  0.00    +0.000 C 
ATOM      7  C   UNL     1       7.638   6.904  17.909  0.00  0.00    +0.000 C 
ATOM      8  C   UNL     1       4.578   4.476  17.397  0.00  0.00    +0.000 C 
ATOM      9  O   UNL     1       4.403   3.706  16.477  0.00  0.00    +0.000 OA
ENDROOT
BRANCH   6  10
ATOM     10  C   UNL     1       7.252   5.485  15.844  0.00  0.00    +0.000 C 
ATOM     11  F   UNL     1       7.485   4.147  15.776  0.00  0.00    +0.000 F 
ENDBRANCH   6  10
BRANCH   1  12
ATOM     12  C   UNL     1       1.541   4.218  17.930  0.00  0.00    +0.000 C 
BRANCH  12  13
ATOM     13  C   UNL     1       1.184   3.073  18.883  0.00  0.00    +0.000 C 
BRANCH  13  14
ATOM     14  C   UNL     1       0.758   3.565  20.271  0.00  0.00    +0.000 C 
BRANCH  14  16
ATOM     15  C   UNL     1       2.875   2.688  21.318  0.00  0.00    +0.000 C 
ATOM     16  C   UNL     1       1.354   2.708  21.388  0.00  0.00    +0.000 C 
ENDBRANCH  14  16
ENDBRANCH  13  14
ENDBRANCH  12  13
ENDBRANCH   1  12
TORSDOF 5
ENDMDL
MODEL 6
REMARK VINA RESULT:      -6.1      2.373      5.964
REMARK  Name = 
REMARK  7 active torsions:
REMARK  status: ('A' for Active; 'I' for Inactive)
REMARK    1  A    between atoms: C_1  and  C_2
REMARK    2  A    between atoms: C_2  and  C_3
REMARK    3  A    between atoms: C_3  and  C_4
REMARK    4  A    between atoms: C_4  and  C_5
REMARK    5  A    between atoms: C_5  and  C_6
REMARK    6  A    between atoms: C_11  and  C_12
REMARK    7  A    between atoms: C_11  and  C_13
REMARK                            x       y       z     vdW  Elec       q    Type
REMARK                         _______ _______ _______ _____ _____    ______ ____
ROOT
ATOM      1  C   UNL     1       3.516   2.438  18.912  0.00  0.00    +0.000 C 
ATOM      2  O   UNL     1       3.658   1.313  18.415  0.00  0.00    +0.000 OA
ATOM      3  N   UNL     1       3.707   3.603  18.196  0.00  0.00    +0.000 N 
ATOM      4  C   UNL     1       4.038   3.642  16.771  0.00  0.00    +0.000 C 
ATOM      5  C   UNL     1       5.202   4.521  17.151  0.00  0.00    +0.000 C 
ATOM      6  C   UNL     1       6.278   5.022  16.526  0.00  0.00    +0.000 C 
ATOM      7  C   UNL     1       6.605   4.687  15.089  0.00  0.00    +0.000 C 
ATOM      8  C   UNL     1       4.657   4.540  18.509  0.00  0.00    +0.000 C 
ATOM      9  O   UNL     1       4.885   5.189  19.509  0.00  0.00    +0.000 OA
ENDROOT
BRANCH   6  10
ATOM     10  C   UNL     1       7.288   5.924  17.193  0.00  0.00    +0.000 C 
ATOM     11  F   UNL     1       7.948   5.255  18.176  0.00  0.00    +0.000 F 
ENDBRANCH   6  10
BRANCH   1  12
ATOM     12  C   UNL     1       3.098   2.610  20.359  0.00  0.00    +0.000 C 
BRANCH  12  13
ATOM     13  C   UNL     1       1.579   2.652  20.550  0.00  0.00    +0.000 C 
BRANCH  13  14
ATOM     14  C   UNL     1       1.000   4.063  20.397  0.00  0.00    +0.000 C 
BRANCH  14  16
ATOM     15  C   UNL     1       1.697   6.484  20.392  0.00  0.00    +0.000 C 
ATOM     16  C   UNL     1       1.899   5.121  21.040  0.00  0.00    +0.000 C 
ENDBRANCH  14  16
ENDBRANCH  13  14
ENDBRANCH  12  13
ENDBRANCH   1  12
TORSDOF 5
ENDMDL
MODEL 7
REMARK VINA RESULT:      -6.1      1.645      2.251
REMARK  Name = 
REMARK  7 active torsions:
REMARK  status: ('A' for Active; 'I' for Inactive)
REMARK    1  A    between atoms: C_1  and  C_2
REMARK    2  A    between atoms: C_2  and  C_3
REMARK    3  A    between atoms: C_3  and  C_4
REMARK    4  A    between atoms: C_4  and  C_5
REMARK    5  A    between atoms: C_5  and  C_6
REMARK    6  A    between atoms: C_11  and  C_12
REMARK    7  A    between atoms: C_11  and  C_13
REMARK                            x       y       z     vdW  Elec       q    Type
REMARK                         _______ _______ _______ _____ _____    ______ ____
ROOT
ATOM      1  C   UNL     1       6.114   5.587  16.149  0.00  0.00    +0.000 C 
ATOM      2  O   UNL     1       6.938   6.415  16.559  0.00  0.00    +0.000 OA
ATOM      3  N   UNL     1       4.757   5.704  16.376  0.00  0.00    +0.000 N 
ATOM      4  C   UNL     1       4.139   6.835  17.067  0.00  0.00    +0.000 C 
ATOM      5  C   UNL     1       3.484   5.819  17.967  0.00  0.00    +0.000 C 
ATOM      6  C   UNL     1       2.764   5.852  19.099  0.00  0.00    +0.000 C 
ATOM      7  C   UNL     1       2.482   7.141  19.837  0.00  0.00    +0.000 C 
ATOM      8  C   UNL     1       4.023   4.787  17.081  0.00  0.00    +0.000 C 
ATOM      9  O   UNL     1       3.837   3.595  16.950  0.00  0.00    +0.000 OA
ENDROOT
BRANCH   6  10
ATOM     10  C   UNL     1       2.206   4.622  19.773  0.00  0.00    +0.000 C 
ATOM     11  F   UNL     1       1.265   4.035  18.986  0.00  0.00    +0.000 F 
ENDBRANCH   6  10
BRANCH   1  12
ATOM     12  C   UNL     1       6.550   4.380  15.341  0.00  0.00    +0.000 C 
BRANCH  12  13
ATOM     13  C   UNL     1       5.726   4.174  14.067  0.00  0.00    +0.000 C 
BRANCH  13  14
ATOM     14  C   UNL     1       6.583   3.756  12.866  0.00  0.00    +0.000 C 
BRANCH  14  16
ATOM     15  C   UNL     1       4.481   3.291  11.558  0.00  0.00    +0.000 C 
ATOM     16  C   UNL     1       5.851   2.763  11.961  0.00  0.00    +0.000 C 
ENDBRANCH  14  16
ENDBRANCH  13  14
ENDBRANCH  12  13
ENDBRANCH   1  12
TORSDOF 5
ENDMDL
MODEL 8
REMARK VINA RESULT:      -6.0      2.366      3.541
REMARK  Name = 
REMARK  7 active torsions:
REMARK  status: ('A' for Active; 'I' for Inactive)
REMARK    1  A    between atoms: C_1  and  C_2
REMARK    2  A    between atoms: C_2  and  C_3
REMARK    3  A    between atoms: C_3  and  C_4
REMARK    4  A    between atoms: C_4  and  C_5
REMARK    5  A    between atoms: C_5  and  C_6
REMARK    6  A    between atoms: C_11  and  C_12
REMARK    7  A    between atoms: C_11  and  C_13
REMARK                            x       y       z     vdW  Elec       q    Type
REMARK                         _______ _______ _______ _____ _____    ______ ____
ROOT
ATOM      1  C   UNL     1       5.086   4.591  17.141  0.00  0.00    +0.000 C 
ATOM      2  O   UNL     1       4.522   5.476  16.485  0.00  0.00    +0.000 OA
ATOM      3  N   UNL     1       4.416   3.504  17.667  0.00  0.00    +0.000 N 
ATOM      4  C   UNL     1       2.991   3.246  17.460  0.00  0.00    +0.000 C 
ATOM      5  C   UNL     1       2.878   3.143  18.960  0.00  0.00    +0.000 C 
ATOM      6  C   UNL     1       1.878   3.051  19.850  0.00  0.00    +0.000 C 
ATOM      7  C   UNL     1       0.425   3.104  19.437  0.00  0.00    +0.000 C 
ATOM      8  C   UNL     1       4.338   3.235  19.008  0.00  0.00    +0.000 C 
ATOM      9  O   UNL     1       5.174   3.059  19.869  0.00  0.00    +0.000 OA
ENDROOT
BRANCH   6  10
ATOM     10  C   UNL     1       2.091   2.934  21.339  0.00  0.00    +0.000 C 
ATOM     11  F   UNL     1       2.514   4.120  21.853  0.00  0.00    +0.000 F 
ENDBRANCH   6  10
BRANCH   1  12
ATOM     12  C   UNL     1       6.580   4.637  17.399  0.00  0.00    +0.000 C 
BRANCH  12  13
ATOM     13  C   UNL     1       6.996   5.763  18.351  0.00  0.00    +0.000 C 
BRANCH  13  14
ATOM     14  C   UNL     1       7.357   7.059  17.616  0.00  0.00    +0.000 C 
BRANCH  14  16
ATOM     15  C   UNL     1       8.270   9.372  18.021  0.00  0.00    +0.000 C 
ATOM     16  C   UNL     1       8.360   7.902  18.405  0.00  0.00    +0.000 C 
ENDBRANCH  14  16
ENDBRANCH  13  14
ENDBRANCH  12  13
ENDBRANCH   1  12
TORSDOF 5
ENDMDL
MODEL 9
REMARK VINA RESULT:      -6.0      1.145      1.318
REMARK  Name = 
REMARK  7 active torsions:
REMARK  status: ('A' for Active; 'I' for Inactive)
REMARK    1  A    between atoms: C_1  and  C_2
REMARK    2  A    between atoms: C_2  and  C_3
REMARK    3  A    between atoms: C_3  and  C_4
REMARK    4  A    between atoms: C_4  and  C_5
REMARK    5  A    between atoms: C_5  and  C_6
REMARK    6  A    between atoms: C_11  and  C_12
REMARK    7  A    between atoms: C_11  and  C_13
REMARK                            x       y       z     vdW  Elec       q    Type
REMARK                         _______ _______ _______ _____ _____    ______ ____
ROOT
ATOM      1  C   UNL     1       5.886   5.311  17.311  0.00  0.00    +0.000 C 
ATOM      2  O   UNL     1       6.443   6.209  17.956  0.00  0.00    +0.000 OA
ATOM      3  N   UNL     1       4.523   5.098  17.347  0.00  0.00    +0.000 N 
ATOM      4  C   UNL     1       3.584   5.935  18.094  0.00  0.00    +0.000 C 
ATOM      5  C   UNL     1       3.085   4.663  18.728  0.00  0.00    +0.000 C 
ATOM      6  C   UNL     1       2.253   4.345  19.732  0.00  0.00    +0.000 C 
ATOM      7  C   UNL     1       1.597   5.396  20.598  0.00  0.00    +0.000 C 
ATOM      8  C   UNL     1       3.946   3.938  17.793  0.00  0.00    +0.000 C 
ATOM      9  O   UNL     1       4.058   2.776  17.465  0.00  0.00    +0.000 OA
ENDROOT
BRANCH   6  10
ATOM     10  C   UNL     1       1.922   2.927  20.129  0.00  0.00    +0.000 C 
ATOM     11  F   UNL     1       2.995   2.337  20.722  0.00  0.00    +0.000 F 
ENDBRANCH   6  10
BRANCH   1  12
ATOM     12  C   UNL     1       6.680   4.383  16.412  0.00  0.00    +0.000 C 
BRANCH  12  13
ATOM     13  C   UNL     1       6.695   4.826  14.946  0.00  0.00    +0.000 C 
BRANCH  13  14
ATOM     14  C   UNL     1       5.624   4.125  14.103  0.00  0.00    +0.000 C 
BRANCH  14  16
ATOM     15  C   UNL     1       5.087   3.139  11.847  0.00  0.00    +0.000 C 
ATOM     16  C   UNL     1       6.196   3.580  12.792  0.00  0.00    +0.000 C 
ENDBRANCH  14  16
ENDBRANCH  13  14
ENDBRANCH  12  13
ENDBRANCH   1  12
TORSDOF 5
ENDMDL
