MODEL 1
REMARK VINA RESULT:      -7.9      0.000      0.000
REMARK  Name = 
REMARK  13 active torsions:
REMARK  status: ('A' for Active; 'I' for Inactive)
REMARK    1  A    between atoms: C_1  and  C_2
REMARK    2  A    between atoms: C_2  and  N_3
REMARK    3  A    between atoms: N_3  and  C_4
REMARK    4  A    between atoms: N_3  and  C_9
REMARK    5  A    between atoms: C_4  and  C_5
REMARK    6  A    between atoms: C_5  and  N_6
REMARK    7  A    between atoms: N_6  and  C_7
REMARK    8  A    between atoms: N_6  and  C_8
REMARK    9  A    between atoms: C_9  and  C_10
REMARK   10  A    between atoms: C_13  and  C_14
REMARK   11  A    between atoms: C_17  and  N_18
REMARK   12  A    between atoms: N_18  and  S_19
REMARK   13  A    between atoms: S_19  and  C_22
REMARK                            x       y       z     vdW  Elec       q    Type
REMARK                         _______ _______ _______ _____ _____    ______ ____
ROOT
ATOM      1  C   UNL     1       0.193  10.202  20.961  0.00  0.00    +0.000 A 
ATOM      2  C   UNL     1      -0.214  11.411  20.357  0.00  0.00    +0.000 A 
ATOM      3  C   UNL     1      -1.005  12.337  21.035  0.00  0.00    +0.000 A 
ATOM      4  C   UNL     1      -1.427  12.065  22.331  0.00  0.00    +0.000 A 
ATOM      5  C   UNL     1      -1.036  10.893  22.962  0.00  0.00    +0.000 A 
ATOM      6  C   UNL     1      -0.235   9.971  22.283  0.00  0.00    +0.000 A 
ENDROOT
BRANCH   1  10
ATOM      7  C   UNL     1       2.454   7.227  18.789  0.00  0.00    +0.000 A 
ATOM      8  C   UNL     1       2.089   8.428  18.174  0.00  0.00    +0.000 A 
ATOM      9  C   UNL     1       1.388   9.405  18.886  0.00  0.00    +0.000 A 
ATOM     10  C   UNL     1       1.008   9.205  20.225  0.00  0.00    +0.000 A 
ATOM     11  C   UNL     1       1.407   8.001  20.833  0.00  0.00    +0.000 A 
ATOM     12  C   UNL     1       2.122   7.028  20.132  0.00  0.00    +0.000 A 
BRANCH   7  13
ATOM     13  C   UNL     1       3.140   6.133  18.004  0.00  0.00    +0.000 C 
BRANCH  13  14
ATOM     14  N   UNL     1       3.431   4.904  18.777  0.00  0.00    +0.000 NA
BRANCH  14  16
ATOM     15  C   UNL     1       1.261   3.745  18.125  0.00  0.00    +0.000 C 
ATOM     16  C   UNL     1       2.785   3.749  18.113  0.00  0.00    +0.000 C 
ENDBRANCH  14  16
BRANCH  14  17
ATOM     17  C   UNL     1       4.903   4.720  18.905  0.00  0.00    +0.000 C 
BRANCH  17  18
ATOM     18  C   UNL     1       5.737   5.523  17.859  0.00  0.00    +0.000 C 
BRANCH  18  19
ATOM     19  N   UNL     1       6.761   6.445  18.404  0.00  0.00    +0.000 NA
ATOM     20  C   UNL     1       7.801   5.734  19.149  0.00  0.00    +0.000 C 
ATOM     21  C   UNL     1       7.382   7.177  17.290  0.00  0.00    +0.000 C 
ENDBRANCH  18  19
ENDBRANCH  17  18
ENDBRANCH  14  17
ENDBRANCH  13  14
ENDBRANCH   7  13
ENDBRANCH   1  10
BRANCH   4  22
ATOM     22  N   UNL     1      -2.215  13.000  23.040  0.00  0.00    +0.000 N 
ATOM     23  H   UNL     1      -1.880  13.933  23.235  0.00  0.00    +0.000 HD
BRANCH  22  24
ATOM     24  S   UNL     1      -3.836  12.692  23.325  0.00  0.00    +0.000 S 
ATOM     25  O   UNL     1      -4.424  12.341  22.045  0.00  0.00    +0.000 OA
ATOM     26  O   UNL     1      -3.919  11.743  24.421  0.00  0.00    +0.000 OA
BRANCH  24  27
ATOM     27  C   UNL     1      -4.538  14.216  23.866  0.00  0.00    +0.000 A 
ATOM     28  C   UNL     1      -5.821  14.553  23.397  0.00  0.00    +0.000 A 
ATOM     29  C   UNL     1      -6.327  15.827  23.629  0.00  0.00    +0.000 A 
ATOM     30  C   UNL     1      -5.523  16.773  24.252  0.00  0.00    +0.000 A 
ATOM     31  C   UNL     1      -4.229  16.436  24.688  0.00  0.00    +0.000 A 
ATOM     32  C   UNL     1      -3.379  17.422  25.206  0.00  0.00    +0.000 A 
ATOM     33  C   UNL     1      -2.117  17.080  25.666  0.00  0.00    +0.000 A 
ATOM     34  C   UNL     1      -1.772  15.747  25.657  0.00  0.00    +0.000 A 
ATOM     35  N   UNL     1      -2.546  14.777  25.121  0.00  0.00    +0.000 NA
ATOM     36  C   UNL     1      -3.738  15.113  24.574  0.00  0.00    +0.000 A 
ENDBRANCH  24  27
ENDBRANCH  22  24
ENDBRANCH   4  22
TORSDOF 10
ENDMDL
MODEL 2
REMARK VINA RESULT:      -7.7      1.042      1.131
REMARK  Name = 
REMARK  13 active torsions:
REMARK  status: ('A' for Active; 'I' for Inactive)
REMARK    1  A    between atoms: C_1  and  C_2
REMARK    2  A    between atoms: C_2  and  N_3
REMARK    3  A    between atoms: N_3  and  C_4
REMARK    4  A    between atoms: N_3  and  C_9
REMARK    5  A    between atoms: C_4  and  C_5
REMARK    6  A    between atoms: C_5  and  N_6
REMARK    7  A    between atoms: N_6  and  C_7
REMARK    8  A    between atoms: N_6  and  C_8
REMARK    9  A    between atoms: C_9  and  C_10
REMARK   10  A    between atoms: C_13  and  C_14
REMARK   11  A    between atoms: C_17  and  N_18
REMARK   12  A    between atoms: N_18  and  S_19
REMARK   13  A    between atoms: S_19  and  C_22
REMARK                            x       y       z     vdW  Elec       q    Type
REMARK                         _______ _______ _______ _____ _____    ______ ____
ROOT
ATOM      1  C   UNL     1       0.124  10.562  20.123  0.00  0.00    +0.000 A 
ATOM      2  C   UNL     1      -1.086  10.920  19.490  0.00  0.00    +0.000 A 
ATOM      3  C   UNL     1      -1.955  11.855  20.050  0.00  0.00    +0.000 A 
ATOM      4  C   UNL     1      -1.643  12.442  21.271  0.00  0.00    +0.000 A 
ATOM      5  C   UNL     1      -0.457  12.125  21.917  0.00  0.00    +0.000 A 
ATOM      6  C   UNL     1       0.417  11.194  21.348  0.00  0.00    +0.000 A 
ENDROOT
BRANCH   1  10
ATOM      7  C   UNL     1       2.657   7.517  18.394  0.00  0.00    +0.000 A 
ATOM      8  C   UNL     1       2.307   8.651  17.656  0.00  0.00    +0.000 A 
ATOM      9  C   UNL     1       1.517   9.653  18.226  0.00  0.00    +0.000 A 
ATOM     10  C   UNL     1       1.030   9.543  19.540  0.00  0.00    +0.000 A 
ATOM     11  C   UNL     1       1.414   8.406  20.274  0.00  0.00    +0.000 A 
ATOM     12  C   UNL     1       2.218   7.410  19.716  0.00  0.00    +0.000 A 
BRANCH   7  13
ATOM     13  C   UNL     1       3.442   6.392  17.760  0.00  0.00    +0.000 C 
BRANCH  13  14
ATOM     14  N   UNL     1       3.288   5.077  18.422  0.00  0.00    +0.000 NA
BRANCH  14  16
ATOM     15  C   UNL     1       1.370   3.407  18.524  0.00  0.00    +0.000 C 
ATOM     16  C   UNL     1       2.295   4.271  17.676  0.00  0.00    +0.000 C 
ENDBRANCH  14  16
BRANCH  14  17
ATOM     17  C   UNL     1       4.607   4.393  18.509  0.00  0.00    +0.000 C 
BRANCH  17  18
ATOM     18  C   UNL     1       5.258   4.090  17.124  0.00  0.00    +0.000 C 
BRANCH  18  19
ATOM     19  N   UNL     1       6.464   4.877  16.778  0.00  0.00    +0.000 NA
ATOM     20  C   UNL     1       7.566   4.635  17.710  0.00  0.00    +0.000 C 
ATOM     21  C   UNL     1       6.894   4.515  15.419  0.00  0.00    +0.000 C 
ENDBRANCH  18  19
ENDBRANCH  17  18
ENDBRANCH  14  17
ENDBRANCH  13  14
ENDBRANCH   7  13
ENDBRANCH   1  10
BRANCH   4  22
ATOM     22  N   UNL     1      -2.504  13.404  21.845  0.00  0.00    +0.000 N 
ATOM     23  H   UNL     1      -2.418  14.387  21.626  0.00  0.00    +0.000 HD
BRANCH  22  24
ATOM     24  S   UNL     1      -3.873  12.921  22.678  0.00  0.00    +0.000 S 
ATOM     25  O   UNL     1      -4.890  12.640  21.680  0.00  0.00    +0.000 OA
ATOM     26  O   UNL     1      -3.482  11.868  23.599  0.00  0.00    +0.000 OA
BRANCH  24  27
ATOM     27  C   UNL     1      -4.388  14.314  23.628  0.00  0.00    +0.000 A 
ATOM     28  C   UNL     1      -5.726  14.735  23.508  0.00  0.00    +0.000 A 
ATOM     29  C   UNL     1      -6.122  15.941  24.074  0.00  0.00    +0.000 A 
ATOM     30  C   UNL     1      -5.170  16.751  24.680  0.00  0.00    +0.000 A 
ATOM     31  C   UNL     1      -3.829  16.337  24.766  0.00  0.00    +0.000 A 
ATOM     32  C   UNL     1      -2.853  17.206  25.270  0.00  0.00    +0.000 A 
ATOM     33  C   UNL     1      -1.537  16.783  25.385  0.00  0.00    +0.000 A 
ATOM     34  C   UNL     1      -1.256  15.475  25.055  0.00  0.00    +0.000 A 
ATOM     35  N   UNL     1      -2.160  14.626  24.522  0.00  0.00    +0.000 NA
ATOM     36  C   UNL     1      -3.426  15.060  24.308  0.00  0.00    +0.000 A 
ENDBRANCH  24  27
ENDBRANCH  22  24
ENDBRANCH   4  22
TORSDOF 10
ENDMDL
MODEL 3
REMARK VINA RESULT:      -7.7      2.943      4.576
REMARK  Name = 
REMARK  13 active torsions:
REMARK  status: ('A' for Active; 'I' for Inactive)
REMARK    1  A    between atoms: C_1  and  C_2
REMARK    2  A    between atoms: C_2  and  N_3
REMARK    3  A    between atoms: N_3  and  C_4
REMARK    4  A    between atoms: N_3  and  C_9
REMARK    5  A    between atoms: C_4  and  C_5
REMARK    6  A    between atoms: C_5  and  N_6
REMARK    7  A    between atoms: N_6  and  C_7
REMARK    8  A    between atoms: N_6  and  C_8
REMARK    9  A    between atoms: C_9  and  C_10
REMARK   10  A    between atoms: C_13  and  C_14
REMARK   11  A    between atoms: C_17  and  N_18
REMARK   12  A    between atoms: N_18  and  S_19
REMARK   13  A    between atoms: S_19  and  C_22
REMARK                            x       y       z     vdW  Elec       q    Type
REMARK                         _______ _______ _______ _____ _____    ______ ____
ROOT
ATOM      1  C   UNL     1       1.633   8.468  18.838  0.00  0.00    +0.000 A 
ATOM      2  C   UNL     1       0.999   9.467  18.069  0.00  0.00    +0.000 A 
ATOM      3  C   UNL     1       0.150  10.408  18.650  0.00  0.00    +0.000 A 
ATOM      4  C   UNL     1      -0.103  10.358  20.016  0.00  0.00    +0.000 A 
ATOM      5  C   UNL     1       0.512   9.398  20.806  0.00  0.00    +0.000 A 
ATOM      6  C   UNL     1       1.370   8.463  20.222  0.00  0.00    +0.000 A 
ENDROOT
BRANCH   1  10
ATOM      7  C   UNL     1       4.273   5.508  17.121  0.00  0.00    +0.000 A 
ATOM      8  C   UNL     1       3.112   5.117  17.796  0.00  0.00    +0.000 A 
ATOM      9  C   UNL     1       2.240   6.074  18.321  0.00  0.00    +0.000 A 
ATOM     10  C   UNL     1       2.511   7.450  18.212  0.00  0.00    +0.000 A 
ATOM     11  C   UNL     1       3.670   7.823  17.509  0.00  0.00    +0.000 A 
ATOM     12  C   UNL     1       4.536   6.871  16.966  0.00  0.00    +0.000 A 
BRANCH   7  13
ATOM     13  C   UNL     1       5.261   4.480  16.622  0.00  0.00    +0.000 C 
BRANCH  13  14
ATOM     14  N   UNL     1       6.601   5.016  16.291  0.00  0.00    +0.000 NA
BRANCH  14  16
ATOM     15  C   UNL     1       7.709   5.353  18.557  0.00  0.00    +0.000 C 
ATOM     16  C   UNL     1       7.581   4.523  17.286  0.00  0.00    +0.000 C 
ENDBRANCH  14  16
BRANCH  14  17
ATOM     17  C   UNL     1       6.976   4.630  14.903  0.00  0.00    +0.000 C 
BRANCH  17  18
ATOM     18  C   UNL     1       5.836   3.913  14.114  0.00  0.00    +0.000 C 
BRANCH  18  19
ATOM     19  N   UNL     1       5.883   4.032  12.639  0.00  0.00    +0.000 NA
ATOM     20  C   UNL     1       7.161   3.577  12.089  0.00  0.00    +0.000 C 
ATOM     21  C   UNL     1       4.797   3.225  12.062  0.00  0.00    +0.000 C 
ENDBRANCH  18  19
ENDBRANCH  17  18
ENDBRANCH  14  17
ENDBRANCH  13  14
ENDBRANCH   7  13
ENDBRANCH   1  10
BRANCH   4  22
ATOM     22  N   UNL     1      -0.948  11.313  20.624  0.00  0.00    +0.000 N 
ATOM     23  H   UNL     1      -1.829  11.048  21.044  0.00  0.00    +0.000 HD
BRANCH  22  24
ATOM     24  S   UNL     1      -0.390  12.862  20.926  0.00  0.00    +0.000 S 
ATOM     25  O   UNL     1       0.905  12.720  21.566  0.00  0.00    +0.000 OA
ATOM     26  O   UNL     1      -0.485  13.616  19.688  0.00  0.00    +0.000 OA
BRANCH  24  27
ATOM     27  C   UNL     1      -1.515  13.572  22.085  0.00  0.00    +0.000 A 
ATOM     28  C   UNL     1      -0.982  14.129  23.263  0.00  0.00    +0.000 A 
ATOM     29  C   UNL     1      -1.836  14.512  24.290  0.00  0.00    +0.000 A 
ATOM     30  C   UNL     1      -3.197  14.264  24.170  0.00  0.00    +0.000 A 
ATOM     31  C   UNL     1      -3.716  13.678  23.002  0.00  0.00    +0.000 A 
ATOM     32  C   UNL     1      -5.069  13.321  22.932  0.00  0.00    +0.000 A 
ATOM     33  C   UNL     1      -5.585  12.774  21.767  0.00  0.00    +0.000 A 
ATOM     34  C   UNL     1      -4.741  12.666  20.683  0.00  0.00    +0.000 A 
ATOM     35  N   UNL     1      -3.423  12.955  20.729  0.00  0.00    +0.000 NA
ATOM     36  C   UNL     1      -2.884  13.393  21.893  0.00  0.00    +0.000 A 
ENDBRANCH  24  27
ENDBRANCH  22  24
ENDBRANCH   4  22
TORSDOF 10
ENDMDL
MODEL 4
REMARK VINA RESULT:      -7.7      2.896      4.505
REMARK  Name = 
REMARK  13 active torsions:
REMARK  status: ('A' for Active; 'I' for Inactive)
REMARK    1  A    between atoms: C_1  and  C_2
REMARK    2  A    between atoms: C_2  and  N_3
REMARK    3  A    between atoms: N_3  and  C_4
REMARK    4  A    between atoms: N_3  and  C_9
REMARK    5  A    between atoms: C_4  and  C_5
REMARK    6  A    between atoms: C_5  and  N_6
REMARK    7  A    between atoms: N_6  and  C_7
REMARK    8  A    between atoms: N_6  and  C_8
REMARK    9  A    between atoms: C_9  and  C_10
REMARK   10  A    between atoms: C_13  and  C_14
REMARK   11  A    between atoms: C_17  and  N_18
REMARK   12  A    between atoms: N_18  and  S_19
REMARK   13  A    between atoms: S_19  and  C_22
REMARK                            x       y       z     vdW  Elec       q    Type
REMARK                         _______ _______ _______ _____ _____    ______ ____
ROOT
ATOM      1  C   UNL     1       1.641   8.602  18.991  0.00  0.00    +0.000 A 
ATOM      2  C   UNL     1       1.351   8.593  20.373  0.00  0.00    +0.000 A 
ATOM      3  C   UNL     1       0.484   9.523  20.944  0.00  0.00    +0.000 A 
ATOM      4  C   UNL     1      -0.098  10.502  20.148  0.00  0.00    +0.000 A 
ATOM      5  C   UNL     1       0.153  10.536  18.784  0.00  0.00    +0.000 A 
ATOM      6  C   UNL     1       1.015   9.595  18.213  0.00  0.00    +0.000 A 
ENDROOT
BRANCH   1  10
ATOM      7  C   UNL     1       4.309   5.744  17.151  0.00  0.00    +0.000 A 
ATOM      8  C   UNL     1       4.454   7.111  16.901  0.00  0.00    +0.000 A 
ATOM      9  C   UNL     1       3.614   8.039  17.523  0.00  0.00    +0.000 A 
ATOM     10  C   UNL     1       2.588   7.630  18.393  0.00  0.00    +0.000 A 
ATOM     11  C   UNL     1       2.475   6.252  18.650  0.00  0.00    +0.000 A 
ATOM     12  C   UNL     1       3.322   5.321  18.046  0.00  0.00    +0.000 A 
BRANCH   7  13
ATOM     13  C   UNL     1       5.159   4.729  16.421  0.00  0.00    +0.000 C 
BRANCH  13  14
ATOM     14  N   UNL     1       6.562   5.144  16.193  0.00  0.00    +0.000 NA
BRANCH  14  16
ATOM     15  C   UNL     1       7.709   5.738  18.387  0.00  0.00    +0.000 C 
ATOM     16  C   UNL     1       7.394   4.686  17.330  0.00  0.00    +0.000 C 
ENDBRANCH  14  16
BRANCH  14  17
ATOM     17  C   UNL     1       7.049   4.603  14.894  0.00  0.00    +0.000 C 
BRANCH  17  18
ATOM     18  C   UNL     1       6.032   3.661  14.178  0.00  0.00    +0.000 C 
BRANCH  18  19
ATOM     19  N   UNL     1       6.268   3.414  12.737  0.00  0.00    +0.000 NA
ATOM     20  C   UNL     1       5.024   3.431  11.964  0.00  0.00    +0.000 C 
ATOM     21  C   UNL     1       7.171   4.451  12.218  0.00  0.00    +0.000 C 
ENDBRANCH  18  19
ENDBRANCH  17  18
ENDBRANCH  14  17
ENDBRANCH  13  14
ENDBRANCH   7  13
ENDBRANCH   1  10
BRANCH   4  22
ATOM     22  N   UNL     1      -0.992  11.444  20.707  0.00  0.00    +0.000 N 
ATOM     23  H   UNL     1      -1.890  11.165  21.077  0.00  0.00    +0.000 HD
BRANCH  22  24
ATOM     24  S   UNL     1      -0.477  13.002  21.039  0.00  0.00    +0.000 S 
ATOM     25  O   UNL     1       0.814  12.883  21.692  0.00  0.00    +0.000 OA
ATOM     26  O   UNL     1      -0.576  13.770  19.811  0.00  0.00    +0.000 OA
BRANCH  24  27
ATOM     27  C   UNL     1      -1.632  13.666  22.193  0.00  0.00    +0.000 A 
ATOM     28  C   UNL     1      -1.129  14.200  23.395  0.00  0.00    +0.000 A 
ATOM     29  C   UNL     1      -2.006  14.544  24.416  0.00  0.00    +0.000 A 
ATOM     30  C   UNL     1      -3.362  14.280  24.264  0.00  0.00    +0.000 A 
ATOM     31  C   UNL     1      -3.851  13.717  23.072  0.00  0.00    +0.000 A 
ATOM     32  C   UNL     1      -5.198  13.343  22.968  0.00  0.00    +0.000 A 
ATOM     33  C   UNL     1      -5.684  12.819  21.780  0.00  0.00    +0.000 A 
ATOM     34  C   UNL     1      -4.819  12.751  20.710  0.00  0.00    +0.000 A 
ATOM     35  N   UNL     1      -3.506  13.056  20.788  0.00  0.00    +0.000 NA
ATOM     36  C   UNL     1      -2.995  13.472  21.972  0.00  0.00    +0.000 A 
ENDBRANCH  24  27
ENDBRANCH  22  24
ENDBRANCH   4  22
TORSDOF 10
ENDMDL
MODEL 5
REMARK VINA RESULT:      -7.6      2.824      4.381
REMARK  Name = 
REMARK  13 active torsions:
REMARK  status: ('A' for Active; 'I' for Inactive)
REMARK    1  A    between atoms: C_1  and  C_2
REMARK    2  A    between atoms: C_2  and  N_3
REMARK    3  A    between atoms: N_3  and  C_4
REMARK    4  A    between atoms: N_3  and  C_9
REMARK    5  A    between atoms: C_4  and  C_5
REMARK    6  A    between atoms: C_5  and  N_6
REMARK    7  A    between atoms: N_6  and  C_7
REMARK    8  A    between atoms: N_6  and  C_8
REMARK    9  A    between atoms: C_9  and  C_10
REMARK   10  A    between atoms: C_13  and  C_14
REMARK   11  A    between atoms: C_17  and  N_18
REMARK   12  A    between atoms: N_18  and  S_19
REMARK   13  A    between atoms: S_19  and  C_22
REMARK                            x       y       z     vdW  Elec       q    Type
REMARK                         _______ _______ _______ _____ _____    ______ ____
ROOT
ATOM      1  C   UNL     1       0.409   9.972  19.303  0.00  0.00    +0.000 A 
ATOM      2  C   UNL     1       0.586  10.893  20.358  0.00  0.00    +0.000 A 
ATOM      3  C   UNL     1      -0.232  12.013  20.496  0.00  0.00    +0.000 A 
ATOM      4  C   UNL     1      -1.237  12.252  19.567  0.00  0.00    +0.000 A 
ATOM      5  C   UNL     1      -1.450  11.362  18.523  0.00  0.00    +0.000 A 
ATOM      6  C   UNL     1      -0.634  10.235  18.393  0.00  0.00    +0.000 A 
ENDROOT
BRANCH   1  10
ATOM      7  C   UNL     1       3.117   6.635  18.855  0.00  0.00    +0.000 A 
ATOM      8  C   UNL     1       2.446   6.846  20.063  0.00  0.00    +0.000 A 
ATOM      9  C   UNL     1       1.544   7.904  20.198  0.00  0.00    +0.000 A 
ATOM     10  C   UNL     1       1.301   8.800  19.141  0.00  0.00    +0.000 A 
ATOM     11  C   UNL     1       1.967   8.555  17.926  0.00  0.00    +0.000 A 
ATOM     12  C   UNL     1       2.857   7.488  17.780  0.00  0.00    +0.000 A 
BRANCH   7  13
ATOM     13  C   UNL     1       4.154   5.543  18.726  0.00  0.00    +0.000 C 
BRANCH  13  14
ATOM     14  N   UNL     1       3.981   4.658  17.552  0.00  0.00    +0.000 NA
BRANCH  14  16
ATOM     15  C   UNL     1       6.494   5.058  17.610  0.00  0.00    +0.000 C 
ATOM     16  C   UNL     1       5.286   4.491  16.873  0.00  0.00    +0.000 C 
ENDBRANCH  14  16
BRANCH  14  17
ATOM     17  C   UNL     1       3.405   3.352  17.978  0.00  0.00    +0.000 C 
BRANCH  17  18
ATOM     18  C   UNL     1       3.559   3.059  19.503  0.00  0.00    +0.000 C 
BRANCH  18  19
ATOM     19  N   UNL     1       2.366   2.511  20.189  0.00  0.00    +0.000 NA
ATOM     20  C   UNL     1       2.021   3.275  21.389  0.00  0.00    +0.000 C 
ATOM     21  C   UNL     1       1.228   2.536  19.259  0.00  0.00    +0.000 C 
ENDBRANCH  18  19
ENDBRANCH  17  18
ENDBRANCH  14  17
ENDBRANCH  13  14
ENDBRANCH   7  13
ENDBRANCH   1  10
BRANCH   4  22
ATOM     22  N   UNL     1      -2.087  13.373  19.700  0.00  0.00    +0.000 N 
ATOM     23  H   UNL     1      -2.237  14.016  18.935  0.00  0.00    +0.000 HD
BRANCH  22  24
ATOM     24  S   UNL     1      -3.096  13.513  21.029  0.00  0.00    +0.000 S 
ATOM     25  O   UNL     1      -2.442  12.819  22.123  0.00  0.00    +0.000 OA
ATOM     26  O   UNL     1      -3.427  14.919  21.185  0.00  0.00    +0.000 OA
BRANCH  24  27
ATOM     27  C   UNL     1      -4.575  12.646  20.616  0.00  0.00    +0.000 A 
ATOM     28  C   UNL     1      -4.784  12.306  19.266  0.00  0.00    +0.000 A 
ATOM     29  C   UNL     1      -6.018  11.809  18.865  0.00  0.00    +0.000 A 
ATOM     30  C   UNL     1      -7.053  11.732  19.789  0.00  0.00    +0.000 A 
ATOM     31  C   UNL     1      -6.843  12.105  21.129  0.00  0.00    +0.000 A 
ATOM     32  C   UNL     1      -7.917  12.140  22.029  0.00  0.00    +0.000 A 
ATOM     33  C   UNL     1      -7.701  12.476  23.356  0.00  0.00    +0.000 A 
ATOM     34  C   UNL     1      -6.401  12.699  23.756  0.00  0.00    +0.000 A 
ATOM     35  N   UNL     1      -5.350  12.721  22.908  0.00  0.00    +0.000 NA
ATOM     36  C   UNL     1      -5.563  12.497  21.589  0.00  0.00    +0.000 A 
ENDBRANCH  24  27
ENDBRANCH  22  24
ENDBRANCH   4  22
TORSDOF 10
ENDMDL
MODEL 6
REMARK VINA RESULT:      -7.6      2.620      3.773
REMARK  Name = 
REMARK  13 active torsions:
REMARK  status: ('A' for Active; 'I' for Inactive)
REMARK    1  A    between atoms: C_1  and  C_2
REMARK    2  A    between atoms: C_2  and  N_3
REMARK    3  A    between atoms: N_3  and  C_4
REMARK    4  A    between atoms: N_3  and  C_9
REMARK    5  A    between atoms: C_4  and  C_5
REMARK    6  A    between atoms: C_5  and  N_6
REMARK    7  A    between atoms: N_6  and  C_7
REMARK    8  A    between atoms: N_6  and  C_8
REMARK    9  A    between atoms: C_9  and  C_10
REMARK   10  A    between atoms: C_13  and  C_14
REMARK   11  A    between atoms: C_17  and  N_18
REMARK   12  A    between atoms: N_18  and  S_19
REMARK   13  A    between atoms: S_19  and  C_22
REMARK                            x       y       z     vdW  Elec       q    Type
REMARK                         _______ _______ _______ _____ _____    ______ ____
ROOT
ATOM      1  C   UNL     1       1.430   8.818  19.300  0.00  0.00    +0.000 A 
ATOM      2  C   UNL     1       1.159   9.871  18.401  0.00  0.00    +0.000 A 
ATOM      3  C   UNL     1       0.310  10.923  18.741  0.00  0.00    +0.000 A 
ATOM      4  C   UNL     1      -0.309  10.935  19.986  0.00  0.00    +0.000 A 
ATOM      5  C   UNL     1      -0.058   9.923  20.901  0.00  0.00    +0.000 A 
ATOM      6  C   UNL     1       0.803   8.875  20.560  0.00  0.00    +0.000 A 
ENDROOT
BRANCH   1  10
ATOM      7  C   UNL     1       4.097   5.583  18.253  0.00  0.00    +0.000 A 
ATOM      8  C   UNL     1       3.323   5.515  19.415  0.00  0.00    +0.000 A 
ATOM      9  C   UNL     1       2.435   6.545  19.737  0.00  0.00    +0.000 A 
ATOM     10  C   UNL     1       2.309   7.685  18.923  0.00  0.00    +0.000 A 
ATOM     11  C   UNL     1       3.077   7.722  17.745  0.00  0.00    +0.000 A 
ATOM     12  C   UNL     1       3.954   6.688  17.410  0.00  0.00    +0.000 A 
BRANCH   7  13
ATOM     13  C   UNL     1       5.118   4.514  17.940  0.00  0.00    +0.000 C 
BRANCH  13  14
ATOM     14  N   UNL     1       6.097   4.878  16.890  0.00  0.00    +0.000 NA
BRANCH  14  16
ATOM     15  C   UNL     1       7.760   5.497  18.714  0.00  0.00    +0.000 C 
ATOM     16  C   UNL     1       7.467   4.729  17.431  0.00  0.00    +0.000 C 
ENDBRANCH  14  16
BRANCH  14  17
ATOM     17  C   UNL     1       5.882   4.038  15.680  0.00  0.00    +0.000 C 
BRANCH  17  18
ATOM     18  C   UNL     1       6.792   4.421  14.472  0.00  0.00    +0.000 C 
BRANCH  18  19
ATOM     19  N   UNL     1       6.550   3.686  13.209  0.00  0.00    +0.000 NA
ATOM     20  C   UNL     1       5.123   3.570  12.903  0.00  0.00    +0.000 C 
ATOM     21  C   UNL     1       7.222   4.395  12.110  0.00  0.00    +0.000 C 
ENDBRANCH  18  19
ENDBRANCH  17  18
ENDBRANCH  14  17
ENDBRANCH  13  14
ENDBRANCH   7  13
ENDBRANCH   1  10
BRANCH   4  22
ATOM     22  N   UNL     1      -1.160  12.001  20.354  0.00  0.00    +0.000 N 
ATOM     23  H   UNL     1      -2.156  11.966  20.181  0.00  0.00    +0.000 HD
BRANCH  22  24
ATOM     24  S   UNL     1      -0.597  13.227  21.345  0.00  0.00    +0.000 S 
ATOM     25  O   UNL     1       0.731  12.833  21.780  0.00  0.00    +0.000 OA
ATOM     26  O   UNL     1      -0.760  14.481  20.632  0.00  0.00    +0.000 OA
BRANCH  24  27
ATOM     27  C   UNL     1      -1.664  13.253  22.749  0.00  0.00    +0.000 A 
ATOM     28  C   UNL     1      -2.725  12.329  22.786  0.00  0.00    +0.000 A 
ATOM     29  C   UNL     1      -3.706  12.447  23.764  0.00  0.00    +0.000 A 
ATOM     30  C   UNL     1      -3.665  13.524  24.640  0.00  0.00    +0.000 A 
ATOM     31  C   UNL     1      -2.618  14.461  24.574  0.00  0.00    +0.000 A 
ATOM     32  C   UNL     1      -2.644  15.607  25.378  0.00  0.00    +0.000 A 
ATOM     33  C   UNL     1      -1.593  16.511  25.334  0.00  0.00    +0.000 A 
ATOM     34  C   UNL     1      -0.515  16.200  24.536  0.00  0.00    +0.000 A 
ATOM     35  N   UNL     1      -0.477  15.130  23.713  0.00  0.00    +0.000 NA
ATOM     36  C   UNL     1      -1.542  14.294  23.669  0.00  0.00    +0.000 A 
ENDBRANCH  24  27
ENDBRANCH  22  24
ENDBRANCH   4  22
TORSDOF 10
ENDMDL
MODEL 7
REMARK VINA RESULT:      -7.5      1.097      1.589
REMARK  Name = 
REMARK  13 active torsions:
REMARK  status: ('A' for Active; 'I' for Inactive)
REMARK    1  A    between atoms: C_1  and  C_2
REMARK    2  A    between atoms: C_2  and  N_3
REMARK    3  A    between atoms: N_3  and  C_4
REMARK    4  A    between atoms: N_3  and  C_9
REMARK    5  A    between atoms: C_4  and  C_5
REMARK    6  A    between atoms: C_5  and  N_6
REMARK    7  A    between atoms: N_6  and  C_7
REMARK    8  A    between atoms: N_6  and  C_8
REMARK    9  A    between atoms: C_9  and  C_10
REMARK   10  A    between atoms: C_13  and  C_14
REMARK   11  A    between atoms: C_17  and  N_18
REMARK   12  A    between atoms: N_18  and  S_19
REMARK   13  A    between atoms: S_19  and  C_22
REMARK                            x       y       z     vdW  Elec       q    Type
REMARK                         _______ _______ _______ _____ _____    ______ ____
ROOT
ATOM      1  C   UNL     1       0.311   9.641  21.246  0.00  0.00    +0.000 A 
ATOM      2  C   UNL     1      -0.337   9.471  22.489  0.00  0.00    +0.000 A 
ATOM      3  C   UNL     1      -1.009  10.520  23.113  0.00  0.00    +0.000 A 
ATOM      4  C   UNL     1      -1.032  11.776  22.518  0.00  0.00    +0.000 A 
ATOM      5  C   UNL     1      -0.418  11.979  21.291  0.00  0.00    +0.000 A 
ATOM      6  C   UNL     1       0.247  10.922  20.663  0.00  0.00    +0.000 A 
ENDROOT
BRANCH   1  10
ATOM      7  C   UNL     1       2.353   6.357  19.319  0.00  0.00    +0.000 A 
ATOM      8  C   UNL     1       2.289   7.611  18.704  0.00  0.00    +0.000 A 
ATOM      9  C   UNL     1       1.659   8.682  19.342  0.00  0.00    +0.000 A 
ATOM     10  C   UNL     1       1.052   8.531  20.601  0.00  0.00    +0.000 A 
ATOM     11  C   UNL     1       1.149   7.269  21.213  0.00  0.00    +0.000 A 
ATOM     12  C   UNL     1       1.793   6.199  20.589  0.00  0.00    +0.000 A 
BRANCH   7  13
ATOM     13  C   UNL     1       2.960   5.173  18.602  0.00  0.00    +0.000 C 
BRANCH  13  14
ATOM     14  N   UNL     1       4.402   5.308  18.292  0.00  0.00    +0.000 NA
BRANCH  14  16
ATOM     15  C   UNL     1       4.348   3.080  19.520  0.00  0.00    +0.000 C 
ATOM     16  C   UNL     1       5.158   4.279  19.041  0.00  0.00    +0.000 C 
ENDBRANCH  14  16
BRANCH  14  17
ATOM     17  C   UNL     1       4.620   5.199  16.823  0.00  0.00    +0.000 C 
BRANCH  17  18
ATOM     18  C   UNL     1       5.361   6.421  16.198  0.00  0.00    +0.000 C 
BRANCH  18  19
ATOM     19  N   UNL     1       6.841   6.350  16.176  0.00  0.00    +0.000 NA
ATOM     20  C   UNL     1       7.436   6.860  17.412  0.00  0.00    +0.000 C 
ATOM     21  C   UNL     1       7.247   4.949  15.988  0.00  0.00    +0.000 C 
ENDBRANCH  18  19
ENDBRANCH  17  18
ENDBRANCH  14  17
ENDBRANCH  13  14
ENDBRANCH   7  13
ENDBRANCH   1  10
BRANCH   4  22
ATOM     22  N   UNL     1      -1.723  12.847  23.128  0.00  0.00    +0.000 N 
ATOM     23  H   UNL     1      -1.243  13.688  23.417  0.00  0.00    +0.000 HD
BRANCH  22  24
ATOM     24  S   UNL     1      -3.396  12.880  23.130  0.00  0.00    +0.000 S 
ATOM     25  O   UNL     1      -3.821  12.513  21.791  0.00  0.00    +0.000 OA
ATOM     26  O   UNL     1      -3.853  12.084  24.255  0.00  0.00    +0.000 OA
BRANCH  24  27
ATOM     27  C   UNL     1      -3.855  14.557  23.425  0.00  0.00    +0.000 A 
ATOM     28  C   UNL     1      -4.804  15.141  22.565  0.00  0.00    +0.000 A 
ATOM     29  C   UNL     1      -5.042  16.509  22.630  0.00  0.00    +0.000 A 
ATOM     30  C   UNL     1      -4.279  17.291  23.489  0.00  0.00    +0.000 A 
ATOM     31  C   UNL     1      -3.311  16.702  24.321  0.00  0.00    +0.000 A 
ATOM     32  C   UNL     1      -2.464  17.505  25.096  0.00  0.00    +0.000 A 
ATOM     33  C   UNL     1      -1.532  16.920  25.941  0.00  0.00    +0.000 A 
ATOM     34  C   UNL     1      -1.527  15.546  26.033  0.00  0.00    +0.000 A 
ATOM     35  N   UNL     1      -2.295  14.741  25.266  0.00  0.00    +0.000 NA
ATOM     36  C   UNL     1      -3.136  15.298  24.363  0.00  0.00    +0.000 A 
ENDBRANCH  24  27
ENDBRANCH  22  24
ENDBRANCH   4  22
TORSDOF 10
ENDMDL
MODEL 8
REMARK VINA RESULT:      -7.4      4.214      5.427
REMARK  Name = 
REMARK  13 active torsions:
REMARK  status: ('A' for Active; 'I' for Inactive)
REMARK    1  A    between atoms: C_1  and  C_2
REMARK    2  A    between atoms: C_2  and  N_3
REMARK    3  A    between atoms: N_3  and  C_4
REMARK    4  A    between atoms: N_3  and  C_9
REMARK    5  A    between atoms: C_4  and  C_5
REMARK    6  A    between atoms: C_5  and  N_6
REMARK    7  A    between atoms: N_6  and  C_7
REMARK    8  A    between atoms: N_6  and  C_8
REMARK    9  A    between atoms: C_9  and  C_10
REMARK   10  A    between atoms: C_13  and  C_14
REMARK   11  A    between atoms: C_17  and  N_18
REMARK   12  A    between atoms: N_18  and  S_19
REMARK   13  A    between atoms: S_19  and  C_22
REMARK                            x       y       z     vdW  Elec       q    Type
REMARK                         _______ _______ _______ _____ _____    ______ ____
ROOT
ATOM      1  C   UNL     1       1.066  10.088  19.939  0.00  0.00    +0.000 A 
ATOM      2  C   UNL     1       1.074  11.062  18.918  0.00  0.00    +0.000 A 
ATOM      3  C   UNL     1       0.610  12.358  19.140  0.00  0.00    +0.000 A 
ATOM      4  C   UNL     1       0.106  12.705  20.388  0.00  0.00    +0.000 A 
ATOM      5  C   UNL     1       0.093  11.778  21.420  0.00  0.00    +0.000 A 
ATOM      6  C   UNL     1       0.568  10.482  21.196  0.00  0.00    +0.000 A 
ENDROOT
BRANCH   1  10
ATOM      7  C   UNL     1       2.292   6.014  19.181  0.00  0.00    +0.000 A 
ATOM      8  C   UNL     1       2.451   6.996  18.199  0.00  0.00    +0.000 A 
ATOM      9  C   UNL     1       2.087   8.320  18.455  0.00  0.00    +0.000 A 
ATOM     10  C   UNL     1       1.530   8.702  19.689  0.00  0.00    +0.000 A 
ATOM     11  C   UNL     1       1.402   7.704  20.672  0.00  0.00    +0.000 A 
ATOM     12  C   UNL     1       1.781   6.382  20.428  0.00  0.00    +0.000 A 
BRANCH   7  13
ATOM     13  C   UNL     1       2.607   4.565  18.885  0.00  0.00    +0.000 C 
BRANCH  13  14
ATOM     14  N   UNL     1       3.603   3.949  19.791  0.00  0.00    +0.000 NA
BRANCH  14  16
ATOM     15  C   UNL     1       1.497   2.650  20.386  0.00  0.00    +0.000 C 
ATOM     16  C   UNL     1       3.019   2.732  20.399  0.00  0.00    +0.000 C 
ENDBRANCH  14  16
BRANCH  14  17
ATOM     17  C   UNL     1       4.855   3.650  19.043  0.00  0.00    +0.000 C 
BRANCH  17  18
ATOM     18  C   UNL     1       4.784   3.994  17.523  0.00  0.00    +0.000 C 
BRANCH  18  19
ATOM     19  N   UNL     1       5.798   4.947  17.017  0.00  0.00    +0.000 NA
ATOM     20  C   UNL     1       5.319   5.694  15.852  0.00  0.00    +0.000 C 
ATOM     21  C   UNL     1       6.139   5.893  18.089  0.00  0.00    +0.000 C 
ENDBRANCH  18  19
ENDBRANCH  17  18
ENDBRANCH  14  17
ENDBRANCH  13  14
ENDBRANCH   7  13
ENDBRANCH   1  10
BRANCH   4  22
ATOM     22  N   UNL     1      -0.354  14.018  20.636  0.00  0.00    +0.000 N 
ATOM     23  H   UNL     1      -1.340  14.235  20.669  0.00  0.00    +0.000 HD
BRANCH  22  24
ATOM     24  S   UNL     1       0.709  15.196  21.171  0.00  0.00    +0.000 S 
ATOM     25  O   UNL     1      -0.100  16.329  21.583  0.00  0.00    +0.000 OA
ATOM     26  O   UNL     1       1.601  14.580  22.138  0.00  0.00    +0.000 OA
BRANCH  24  27
ATOM     27  C   UNL     1       1.666  15.668  19.768  0.00  0.00    +0.000 A 
ATOM     28  C   UNL     1       3.050  15.409  19.797  0.00  0.00    +0.000 A 
ATOM     29  C   UNL     1       3.871  15.944  18.812  0.00  0.00    +0.000 A 
ATOM     30  C   UNL     1       3.324  16.793  17.859  0.00  0.00    +0.000 A 
ATOM     31  C   UNL     1       1.945  17.072  17.857  0.00  0.00    +0.000 A 
ATOM     32  C   UNL     1       1.417  18.019  16.970  0.00  0.00    +0.000 A 
ATOM     33  C   UNL     1       0.053  18.267  16.948  0.00  0.00    +0.000 A 
ATOM     34  C   UNL     1      -0.748  17.505  17.769  0.00  0.00    +0.000 A 
ATOM     35  N   UNL     1      -0.270  16.619  18.669  0.00  0.00    +0.000 NA
ATOM     36  C   UNL     1       1.069  16.442  18.773  0.00  0.00    +0.000 A 
ENDBRANCH  24  27
ENDBRANCH  22  24
ENDBRANCH   4  22
TORSDOF 10
ENDMDL
MODEL 9
REMARK VINA RESULT:      -7.4      2.409      3.372
REMARK  Name = 
REMARK  13 active torsions:
REMARK  status: ('A' for Active; 'I' for Inactive)
REMARK    1  A    between atoms: C_1  and  C_2
REMARK    2  A    between atoms: C_2  and  N_3
REMARK    3  A    between atoms: N_3  and  C_4
REMARK    4  A    between atoms: N_3  and  C_9
REMARK    5  A    between atoms: C_4  and  C_5
REMARK    6  A    between atoms: C_5  and  N_6
REMARK    7  A    between atoms: N_6  and  C_7
REMARK    8  A    between atoms: N_6  and  C_8
REMARK    9  A    between atoms: C_9  and  C_10
REMARK   10  A    between atoms: C_13  and  C_14
REMARK   11  A    between atoms: C_17  and  N_18
REMARK   12  A    between atoms: N_18  and  S_19
REMARK   13  A    between atoms: S_19  and  C_22
REMARK                            x       y       z     vdW  Elec       q    Type
REMARK                         _______ _______ _______ _____ _____    ______ ____
ROOT
ATOM      1  C   UNL     1       0.735   9.555  20.411  0.00  0.00    +0.000 A 
ATOM      2  C   UNL     1      -0.073   9.526  21.568  0.00  0.00    +0.000 A 
ATOM      3  C   UNL     1      -0.714  10.671  22.041  0.00  0.00    +0.000 A 
ATOM      4  C   UNL     1      -0.544  11.880  21.377  0.00  0.00    +0.000 A 
ATOM      5  C   UNL     1       0.232  11.945  20.229  0.00  0.00    +0.000 A 
ATOM      6  C   UNL     1       0.865  10.793  19.753  0.00  0.00    +0.000 A 
ENDROOT
BRANCH   1  10
ATOM      7  C   UNL     1       2.672   5.972  18.966  0.00  0.00    +0.000 A 
ATOM      8  C   UNL     1       2.661   7.134  18.189  0.00  0.00    +0.000 A 
ATOM      9  C   UNL     1       2.065   8.303  18.670  0.00  0.00    +0.000 A 
ATOM     10  C   UNL     1       1.440   8.343  19.930  0.00  0.00    +0.000 A 
ATOM     11  C   UNL     1       1.485   7.171  20.706  0.00  0.00    +0.000 A 
ATOM     12  C   UNL     1       2.094   6.005  20.238  0.00  0.00    +0.000 A 
BRANCH   7  13
ATOM     13  C   UNL     1       3.242   4.683  18.422  0.00  0.00    +0.000 C 
BRANCH  13  14
ATOM     14  N   UNL     1       4.430   4.174  19.145  0.00  0.00    +0.000 NA
BRANCH  14  16
ATOM     15  C   UNL     1       2.915   2.131  19.050  0.00  0.00    +0.000 C 
ATOM     16  C   UNL     1       4.151   2.805  19.635  0.00  0.00    +0.000 C 
ENDBRANCH  14  16
BRANCH  14  17
ATOM     17  C   UNL     1       5.623   4.214  18.256  0.00  0.00    +0.000 C 
BRANCH  17  18
ATOM     18  C   UNL     1       5.283   4.155  16.735  0.00  0.00    +0.000 C 
BRANCH  18  19
ATOM     19  N   UNL     1       5.761   5.289  15.910  0.00  0.00    +0.000 NA
ATOM     20  C   UNL     1       6.428   6.314  16.715  0.00  0.00    +0.000 C 
ATOM     21  C   UNL     1       6.703   4.781  14.902  0.00  0.00    +0.000 C 
ENDBRANCH  18  19
ENDBRANCH  17  18
ENDBRANCH  14  17
ENDBRANCH  13  14
ENDBRANCH   7  13
ENDBRANCH   1  10
BRANCH   4  22
ATOM     22  N   UNL     1      -1.199  13.046  21.833  0.00  0.00    +0.000 N 
ATOM     23  H   UNL     1      -0.729  13.720  22.423  0.00  0.00    +0.000 HD
BRANCH  22  24
ATOM     24  S   UNL     1      -2.672  13.496  21.178  0.00  0.00    +0.000 S 
ATOM     25  O   UNL     1      -2.573  14.909  20.861  0.00  0.00    +0.000 OA
ATOM     26  O   UNL     1      -2.989  12.558  20.117  0.00  0.00    +0.000 OA
BRANCH  24  27
ATOM     27  C   UNL     1      -3.864  13.292  22.462  0.00  0.00    +0.000 A 
ATOM     28  C   UNL     1      -3.407  12.856  23.720  0.00  0.00    +0.000 A 
ATOM     29  C   UNL     1      -4.326  12.485  24.695  0.00  0.00    +0.000 A 
ATOM     30  C   UNL     1      -5.680  12.475  24.384  0.00  0.00    +0.000 A 
ATOM     31  C   UNL     1      -6.124  12.881  23.113  0.00  0.00    +0.000 A 
ATOM     32  C   UNL     1      -7.475  12.756  22.764  0.00  0.00    +0.000 A 
ATOM     33  C   UNL     1      -7.915  13.188  21.522  0.00  0.00    +0.000 A 
ATOM     34  C   UNL     1      -6.997  13.798  20.695  0.00  0.00    +0.000 A 
ATOM     35  N   UNL     1      -5.680  13.892  20.979  0.00  0.00    +0.000 NA
ATOM     36  C   UNL     1      -5.219  13.380  22.145  0.00  0.00    +0.000 A 
ENDBRANCH  24  27
ENDBRANCH  22  24
ENDBRANCH   4  22
TORSDOF 10
ENDMDL
