MODEL 1
REMARK VINA RESULT:      -8.5      0.000      0.000
REMARK  Name = 
REMARK  2 active torsions:
REMARK  status: ('A' for Active; 'I' for Inactive)
REMARK    1  A    between atoms: C_1  and  C_2
REMARK    2  A    between atoms: C_12  and  O_13
REMARK                            x       y       z     vdW  Elec       q    Type
REMARK                         _______ _______ _______ _____ _____    ______ ____
ROOT
ATOM      1  C   UNL     1       3.819   2.511  20.469  0.00  0.00    +0.000 C 
ATOM      2  C   UNL     1       2.562   2.787  19.613  0.00  0.00    +0.000 C 
ATOM      3  C   UNL     1       1.354   2.664  20.510  0.00  0.00    +0.000 C 
ATOM      4  C   UNL     1       0.994   3.872  20.978  0.00  0.00    +0.000 C 
ATOM      5  C   UNL     1       1.863   4.969  20.413  0.00  0.00    +0.000 C 
ATOM      6  C   UNL     1       2.369   4.255  19.164  0.00  0.00    +0.000 C 
ATOM      7  C   UNL     1       3.572   4.769  18.376  0.00  0.00    +0.000 C 
ATOM      8  C   UNL     1       3.440   6.237  17.968  0.00  0.00    +0.000 C 
ATOM      9  C   UNL     1       4.720   6.709  17.275  0.00  0.00    +0.000 C 
ATOM     10  C   UNL     1       5.321   5.711  16.310  0.00  0.00    +0.000 A 
ATOM     11  C   UNL     1       6.402   6.133  15.513  0.00  0.00    +0.000 A 
ATOM     12  C   UNL     1       7.003   5.247  14.624  0.00  0.00    +0.000 A 
ATOM     13  C   UNL     1       6.542   3.949  14.501  0.00  0.00    +0.000 A 
ATOM     14  C   UNL     1       5.478   3.518  15.292  0.00  0.00    +0.000 A 
ATOM     15  C   UNL     1       4.869   4.376  16.228  0.00  0.00    +0.000 A 
ATOM     16  C   UNL     1       3.698   3.903  17.082  0.00  0.00    +0.000 C 
ATOM     17  C   UNL     1       3.693   2.380  17.389  0.00  0.00    +0.000 C 
ATOM     18  C   UNL     1       2.576   1.931  18.347  0.00  0.00    +0.000 C 
ENDROOT
BRANCH  12  19
ATOM     19  O   UNL     1       8.056   5.621  13.848  0.00  0.00    +0.000 OA
ATOM     20  H   UNL     1       8.834   5.739  14.415  0.00  0.00    +0.000 HD
ENDBRANCH  12  19
TORSDOF 1
ENDMDL
MODEL 2
REMARK VINA RESULT:      -8.3      3.491      5.681
REMARK  Name = 
REMARK  2 active torsions:
REMARK  status: ('A' for Active; 'I' for Inactive)
REMARK    1  A    between atoms: C_1  and  C_2
REMARK    2  A    between atoms: C_12  and  O_13
REMARK                            x       y       z     vdW  Elec       q    Type
REMARK                         _______ _______ _______ _____ _____    ______ ____
ROOT
ATOM      1  C   UNL     1       0.768   2.998  18.706  0.00  0.00    +0.000 C 
ATOM      2  C   UNL     1       2.187   3.131  19.305  0.00  0.00    +0.000 C 
ATOM      3  C   UNL     1       2.930   1.847  19.027  0.00  0.00    +0.000 C 
ATOM      4  C   UNL     1       3.664   1.963  17.906  0.00  0.00    +0.000 C 
ATOM      5  C   UNL     1       3.565   3.349  17.318  0.00  0.00    +0.000 C 
ATOM      6  C   UNL     1       3.133   4.110  18.568  0.00  0.00    +0.000 C 
ATOM      7  C   UNL     1       2.544   5.516  18.490  0.00  0.00    +0.000 C 
ATOM      8  C   UNL     1       3.427   6.496  17.714  0.00  0.00    +0.000 C 
ATOM      9  C   UNL     1       2.729   7.851  17.590  0.00  0.00    +0.000 C 
ATOM     10  C   UNL     1       2.013   8.311  18.840  0.00  0.00    +0.000 A 
ATOM     11  C   UNL     1       1.489   9.617  18.858  0.00  0.00    +0.000 A 
ATOM     12  C   UNL     1       0.805  10.081  19.977  0.00  0.00    +0.000 A 
ATOM     13  C   UNL     1       0.642   9.275  21.089  0.00  0.00    +0.000 A 
ATOM     14  C   UNL     1       1.149   7.977  21.079  0.00  0.00    +0.000 A 
ATOM     15  C   UNL     1       1.815   7.462  19.951  0.00  0.00    +0.000 A 
ATOM     16  C   UNL     1       2.379   6.045  19.950  0.00  0.00    +0.000 C 
ATOM     17  C   UNL     1       1.613   5.042  20.857  0.00  0.00    +0.000 C 
ATOM     18  C   UNL     1       2.115   3.591  20.760  0.00  0.00    +0.000 C 
ENDROOT
BRANCH  12  19
ATOM     19  O   UNL     1       0.277  11.335  20.021  0.00  0.00    +0.000 OA
ATOM     20  H   UNL     1      -0.458  11.340  20.654  0.00  0.00    +0.000 HD
ENDBRANCH  12  19
TORSDOF 1
ENDMDL
MODEL 3
REMARK VINA RESULT:      -8.3      3.986      6.296
REMARK  Name = 
REMARK  2 active torsions:
REMARK  status: ('A' for Active; 'I' for Inactive)
REMARK    1  A    between atoms: C_1  and  C_2
REMARK    2  A    between atoms: C_12  and  O_13
REMARK                            x       y       z     vdW  Elec       q    Type
REMARK                         _______ _______ _______ _____ _____    ______ ____
ROOT
ATOM      1  C   UNL     1       1.430   3.667  18.208  0.00  0.00    +0.000 C 
ATOM      2  C   UNL     1       2.805   4.038  18.810  0.00  0.00    +0.000 C 
ATOM      3  C   UNL     1       3.809   3.015  18.337  0.00  0.00    +0.000 C 
ATOM      4  C   UNL     1       4.450   3.459  17.241  0.00  0.00    +0.000 C 
ATOM      5  C   UNL     1       4.013   4.854  16.869  0.00  0.00    +0.000 C 
ATOM      6  C   UNL     1       3.471   5.305  18.222  0.00  0.00    +0.000 C 
ATOM      7  C   UNL     1       2.573   6.533  18.360  0.00  0.00    +0.000 C 
ATOM      8  C   UNL     1       3.177   7.792  17.734  0.00  0.00    +0.000 C 
ATOM      9  C   UNL     1       2.182   8.952  17.819  0.00  0.00    +0.000 C 
ATOM     10  C   UNL     1       1.434   9.048  19.130  0.00  0.00    +0.000 A 
ATOM     11  C   UNL     1       0.626  10.179  19.347  0.00  0.00    +0.000 A 
ATOM     12  C   UNL     1      -0.099  10.305  20.528  0.00  0.00    +0.000 A 
ATOM     13  C   UNL     1      -0.027   9.332  21.507  0.00  0.00    +0.000 A 
ATOM     14  C   UNL     1       0.762   8.202  21.299  0.00  0.00    +0.000 A 
ATOM     15  C   UNL     1       1.481   8.025  20.102  0.00  0.00    +0.000 A 
ATOM     16  C   UNL     1       2.353   6.792  19.884  0.00  0.00    +0.000 C 
ATOM     17  C   UNL     1       1.875   5.519  20.635  0.00  0.00    +0.000 C 
ATOM     18  C   UNL     1       2.690   4.254  20.318  0.00  0.00    +0.000 C 
ENDROOT
BRANCH  12  19
ATOM     19  O   UNL     1      -0.897  11.383  20.763  0.00  0.00    +0.000 OA
ATOM     20  H   UNL     1      -1.326  11.639  19.932  0.00  0.00    +0.000 HD
ENDBRANCH  12  19
TORSDOF 1
ENDMDL
MODEL 4
REMARK VINA RESULT:      -8.2      2.825      6.362
REMARK  Name = 
REMARK  2 active torsions:
REMARK  status: ('A' for Active; 'I' for Inactive)
REMARK    1  A    between atoms: C_1  and  C_2
REMARK    2  A    between atoms: C_12  and  O_13
REMARK                            x       y       z     vdW  Elec       q    Type
REMARK                         _______ _______ _______ _____ _____    ______ ____
ROOT
ATOM      1  C   UNL     1       7.399   4.559  17.337  0.00  0.00    +0.000 C 
ATOM      2  C   UNL     1       6.336   5.290  16.485  0.00  0.00    +0.000 C 
ATOM      3  C   UNL     1       6.967   5.643  15.160  0.00  0.00    +0.000 C 
ATOM      4  C   UNL     1       6.689   4.699  14.243  0.00  0.00    +0.000 C 
ATOM      5  C   UNL     1       5.790   3.626  14.805  0.00  0.00    +0.000 C 
ATOM      6  C   UNL     1       5.178   4.408  15.963  0.00  0.00    +0.000 C 
ATOM      7  C   UNL     1       4.438   3.710  17.103  0.00  0.00    +0.000 C 
ATOM      8  C   UNL     1       3.324   2.782  16.617  0.00  0.00    +0.000 C 
ATOM      9  C   UNL     1       2.699   2.043  17.802  0.00  0.00    +0.000 C 
ATOM     10  C   UNL     1       2.487   2.892  19.036  0.00  0.00    +0.000 A 
ATOM     11  C   UNL     1       1.768   2.330  20.107  0.00  0.00    +0.000 A 
ATOM     12  C   UNL     1       1.563   3.063  21.272  0.00  0.00    +0.000 A 
ATOM     13  C   UNL     1       2.048   4.352  21.390  0.00  0.00    +0.000 A 
ATOM     14  C   UNL     1       2.769   4.915  20.338  0.00  0.00    +0.000 A 
ATOM     15  C   UNL     1       3.026   4.190  19.159  0.00  0.00    +0.000 A 
ATOM     16  C   UNL     1       3.806   4.815  18.007  0.00  0.00    +0.000 C 
ATOM     17  C   UNL     1       4.842   5.892  18.433  0.00  0.00    +0.000 C 
ATOM     18  C   UNL     1       5.704   6.433  17.280  0.00  0.00    +0.000 C 
ENDROOT
BRANCH  12  19
ATOM     19  O   UNL     1       0.881   2.544  22.330  0.00  0.00    +0.000 OA
ATOM     20  H   UNL     1       0.545   3.276  22.872  0.00  0.00    +0.000 HD
ENDBRANCH  12  19
TORSDOF 1
ENDMDL
MODEL 5
REMARK VINA RESULT:      -7.8      1.143      1.218
REMARK  Name = 
REMARK  2 active torsions:
REMARK  status: ('A' for Active; 'I' for Inactive)
REMARK    1  A    between atoms: C_1  and  C_2
REMARK    2  A    between atoms: C_12  and  O_13
REMARK                            x       y       z     vdW  Elec       q    Type
REMARK                         _______ _______ _______ _____ _____    ______ ____
ROOT
ATOM      1  C   UNL     1       2.920   1.429  19.431  0.00  0.00    +0.000 C 
ATOM      2  C   UNL     1       2.085   2.727  19.340  0.00  0.00    +0.000 C 
ATOM      3  C   UNL     1       1.046   2.687  20.434  0.00  0.00    +0.000 C 
ATOM      4  C   UNL     1       1.485   3.344  21.522  0.00  0.00    +0.000 C 
ATOM      5  C   UNL     1       2.841   3.963  21.287  0.00  0.00    +0.000 C 
ATOM      6  C   UNL     1       2.817   4.022  19.763  0.00  0.00    +0.000 C 
ATOM      7  C   UNL     1       4.088   4.247  18.947  0.00  0.00    +0.000 C 
ATOM      8  C   UNL     1       4.869   5.489  19.381  0.00  0.00    +0.000 C 
ATOM      9  C   UNL     1       6.176   5.592  18.592  0.00  0.00    +0.000 C 
ATOM     10  C   UNL     1       6.057   5.254  17.123  0.00  0.00    +0.000 A 
ATOM     11  C   UNL     1       7.175   5.484  16.300  0.00  0.00    +0.000 A 
ATOM     12  C   UNL     1       7.123   5.171  14.946  0.00  0.00    +0.000 A 
ATOM     13  C   UNL     1       5.973   4.644  14.387  0.00  0.00    +0.000 A 
ATOM     14  C   UNL     1       4.862   4.403  15.195  0.00  0.00    +0.000 A 
ATOM     15  C   UNL     1       4.892   4.675  16.576  0.00  0.00    +0.000 A 
ATOM     16  C   UNL     1       3.671   4.420  17.453  0.00  0.00    +0.000 C 
ATOM     17  C   UNL     1       2.748   3.270  16.962  0.00  0.00    +0.000 C 
ATOM     18  C   UNL     1       1.584   2.943  17.913  0.00  0.00    +0.000 C 
ENDROOT
BRANCH  12  19
ATOM     19  O   UNL     1       8.190   5.372  14.125  0.00  0.00    +0.000 OA
ATOM     20  H   UNL     1       8.597   6.224  14.348  0.00  0.00    +0.000 HD
ENDBRANCH  12  19
TORSDOF 1
ENDMDL
MODEL 6
REMARK VINA RESULT:      -7.1      3.712      5.726
REMARK  Name = 
REMARK  2 active torsions:
REMARK  status: ('A' for Active; 'I' for Inactive)
REMARK    1  A    between atoms: C_1  and  C_2
REMARK    2  A    between atoms: C_12  and  O_13
REMARK                            x       y       z     vdW  Elec       q    Type
REMARK                         _______ _______ _______ _____ _____    ______ ____
ROOT
ATOM      1  C   UNL     1       5.589   5.213  19.238  0.00  0.00    +0.000 C 
ATOM      2  C   UNL     1       4.353   4.577  18.562  0.00  0.00    +0.000 C 
ATOM      3  C   UNL     1       4.562   3.083  18.527  0.00  0.00    +0.000 C 
ATOM      4  C   UNL     1       3.969   2.502  19.586  0.00  0.00    +0.000 C 
ATOM      5  C   UNL     1       3.235   3.511  20.435  0.00  0.00    +0.000 C 
ATOM      6  C   UNL     1       3.048   4.610  19.393  0.00  0.00    +0.000 C 
ATOM      7  C   UNL     1       2.662   6.034  19.787  0.00  0.00    +0.000 C 
ATOM      8  C   UNL     1       1.409   6.097  20.662  0.00  0.00    +0.000 C 
ATOM      9  C   UNL     1       1.143   7.539  21.100  0.00  0.00    +0.000 C 
ATOM     10  C   UNL     1       1.363   8.578  20.023  0.00  0.00    +0.000 A 
ATOM     11  C   UNL     1       0.983   9.904  20.299  0.00  0.00    +0.000 A 
ATOM     12  C   UNL     1       1.182  10.901  19.349  0.00  0.00    +0.000 A 
ATOM     13  C   UNL     1       1.743  10.603  18.121  0.00  0.00    +0.000 A 
ATOM     14  C   UNL     1       2.132   9.295  17.840  0.00  0.00    +0.000 A 
ATOM     15  C   UNL     1       1.977   8.268  18.791  0.00  0.00    +0.000 A 
ATOM     16  C   UNL     1       2.394   6.835  18.474  0.00  0.00    +0.000 C 
ATOM     17  C   UNL     1       3.562   6.709  17.457  0.00  0.00    +0.000 C 
ATOM     18  C   UNL     1       4.053   5.269  17.233  0.00  0.00    +0.000 C 
ENDROOT
BRANCH  12  19
ATOM     19  O   UNL     1       0.835  12.195  19.590  0.00  0.00    +0.000 OA
ATOM     20  H   UNL     1       1.456  12.775  19.121  0.00  0.00    +0.000 HD
ENDBRANCH  12  19
TORSDOF 1
ENDMDL
MODEL 7
REMARK VINA RESULT:      -6.9      3.654      5.792
REMARK  Name = 
REMARK  2 active torsions:
REMARK  status: ('A' for Active; 'I' for Inactive)
REMARK    1  A    between atoms: C_1  and  C_2
REMARK    2  A    between atoms: C_12  and  O_13
REMARK                            x       y       z     vdW  Elec       q    Type
REMARK                         _______ _______ _______ _____ _____    ______ ____
ROOT
ATOM      1  C   UNL     1      -0.383   9.453  17.829  0.00  0.00    +0.000 C 
ATOM      2  C   UNL     1       0.770   9.984  18.711  0.00  0.00    +0.000 C 
ATOM      3  C   UNL     1       0.317  11.282  19.334  0.00  0.00    +0.000 C 
ATOM      4  C   UNL     1      -0.185  11.062  20.561  0.00  0.00    +0.000 C 
ATOM      5  C   UNL     1      -0.082   9.609  20.952  0.00  0.00    +0.000 C 
ATOM      6  C   UNL     1       1.039   9.186  20.008  0.00  0.00    +0.000 C 
ATOM      7  C   UNL     1       1.335   7.716  19.719  0.00  0.00    +0.000 C 
ATOM      8  C   UNL     1       1.546   6.884  20.985  0.00  0.00    +0.000 C 
ATOM      9  C   UNL     1       1.735   5.410  20.622  0.00  0.00    +0.000 C 
ATOM     10  C   UNL     1       2.600   5.163  19.407  0.00  0.00    +0.000 A 
ATOM     11  C   UNL     1       2.954   3.834  19.108  0.00  0.00    +0.000 A 
ATOM     12  C   UNL     1       3.732   3.552  17.989  0.00  0.00    +0.000 A 
ATOM     13  C   UNL     1       4.178   4.569  17.165  0.00  0.00    +0.000 A 
ATOM     14  C   UNL     1       3.825   5.888  17.446  0.00  0.00    +0.000 A 
ATOM     15  C   UNL     1       3.010   6.206  18.549  0.00  0.00    +0.000 A 
ATOM     16  C   UNL     1       2.637   7.652  18.859  0.00  0.00    +0.000 C 
ATOM     17  C   UNL     1       2.570   8.585  17.618  0.00  0.00    +0.000 C 
ATOM     18  C   UNL     1       2.080  10.011  17.924  0.00  0.00    +0.000 C 
ENDROOT
BRANCH  12  19
ATOM     19  O   UNL     1       4.083   2.277  17.668  0.00  0.00    +0.000 OA
ATOM     20  H   UNL     1       3.296   1.714  17.729  0.00  0.00    +0.000 HD
ENDBRANCH  12  19
TORSDOF 1
ENDMDL
MODEL 8
REMARK VINA RESULT:      -6.8      9.705     11.600
REMARK  Name = 
REMARK  2 active torsions:
REMARK  status: ('A' for Active; 'I' for Inactive)
REMARK    1  A    between atoms: C_1  and  C_2
REMARK    2  A    between atoms: C_12  and  O_13
REMARK                            x       y       z     vdW  Elec       q    Type
REMARK                         _______ _______ _______ _____ _____    ______ ____
ROOT
ATOM      1  C   UNL     1       7.549  15.012  22.154  0.00  0.00    +0.000 C 
ATOM      2  C   UNL     1       8.716  14.421  22.979  0.00  0.00    +0.000 C 
ATOM      3  C   UNL     1       8.232  14.230  24.395  0.00  0.00    +0.000 C 
ATOM      4  C   UNL     1       7.797  12.970  24.576  0.00  0.00    +0.000 C 
ATOM      5  C   UNL     1       7.986  12.133  23.335  0.00  0.00    +0.000 C 
ATOM      6  C   UNL     1       9.081  12.952  22.658  0.00  0.00    +0.000 C 
ATOM      7  C   UNL     1       9.431  12.763  21.184  0.00  0.00    +0.000 C 
ATOM      8  C   UNL     1       9.739  11.310  20.820  0.00  0.00    +0.000 C 
ATOM      9  C   UNL     1       9.979  11.182  19.314  0.00  0.00    +0.000 C 
ATOM     10  C   UNL     1      10.798  12.300  18.708  0.00  0.00    +0.000 A 
ATOM     11  C   UNL     1      11.200  12.169  17.365  0.00  0.00    +0.000 A 
ATOM     12  C   UNL     1      11.938  13.178  16.755  0.00  0.00    +0.000 A 
ATOM     13  C   UNL     1      12.298  14.314  17.458  0.00  0.00    +0.000 A 
ATOM     14  C   UNL     1      11.897  14.458  18.785  0.00  0.00    +0.000 A 
ATOM     15  C   UNL     1      11.119  13.473  19.424  0.00  0.00    +0.000 A 
ATOM     16  C   UNL     1      10.694  13.630  20.879  0.00  0.00    +0.000 C 
ATOM     17  C   UNL     1      10.526  15.101  21.351  0.00  0.00    +0.000 C 
ATOM     18  C   UNL     1       9.985  15.249  22.783  0.00  0.00    +0.000 C 
ENDROOT
BRANCH  12  19
ATOM     19  O   UNL     1      12.333  13.087  15.455  0.00  0.00    +0.000 OA
ATOM     20  H   UNL     1      11.995  12.256  15.086  0.00  0.00    +0.000 HD
ENDBRANCH  12  19
TORSDOF 1
ENDMDL
MODEL 9
REMARK VINA RESULT:      -6.8      2.213      2.893
REMARK  Name = 
REMARK  2 active torsions:
REMARK  status: ('A' for Active; 'I' for Inactive)
REMARK    1  A    between atoms: C_1  and  C_2
REMARK    2  A    between atoms: C_12  and  O_13
REMARK                            x       y       z     vdW  Elec       q    Type
REMARK                         _______ _______ _______ _____ _____    ______ ____
ROOT
ATOM      1  C   UNL     1       2.301   4.081  20.891  0.00  0.00    +0.000 C 
ATOM      2  C   UNL     1       2.739   3.059  19.817  0.00  0.00    +0.000 C 
ATOM      3  C   UNL     1       1.644   2.029  19.684  0.00  0.00    +0.000 C 
ATOM      4  C   UNL     1       0.815   2.354  18.677  0.00  0.00    +0.000 C 
ATOM      5  C   UNL     1       1.272   3.602  17.962  0.00  0.00    +0.000 C 
ATOM      6  C   UNL     1       2.744   3.582  18.361  0.00  0.00    +0.000 C 
ATOM      7  C   UNL     1       3.637   4.811  18.203  0.00  0.00    +0.000 C 
ATOM      8  C   UNL     1       3.617   5.390  16.787  0.00  0.00    +0.000 C 
ATOM      9  C   UNL     1       4.450   6.672  16.730  0.00  0.00    +0.000 C 
ATOM     10  C   UNL     1       5.749   6.618  17.503  0.00  0.00    +0.000 A 
ATOM     11  C   UNL     1       6.644   7.694  17.365  0.00  0.00    +0.000 A 
ATOM     12  C   UNL     1       7.844   7.702  18.069  0.00  0.00    +0.000 A 
ATOM     13  C   UNL     1       8.179   6.650  18.903  0.00  0.00    +0.000 A 
ATOM     14  C   UNL     1       7.295   5.583  19.055  0.00  0.00    +0.000 A 
ATOM     15  C   UNL     1       6.057   5.559  18.384  0.00  0.00    +0.000 A 
ATOM     16  C   UNL     1       5.099   4.384  18.545  0.00  0.00    +0.000 C 
ATOM     17  C   UNL     1       5.195   3.651  19.912  0.00  0.00    +0.000 C 
ATOM     18  C   UNL     1       4.147   2.542  20.110  0.00  0.00    +0.000 C 
ENDROOT
BRANCH  12  19
ATOM     19  O   UNL     1       8.726   8.733  17.965  0.00  0.00    +0.000 OA
ATOM     20  H   UNL     1       9.135   8.704  17.086  0.00  0.00    +0.000 HD
ENDBRANCH  12  19
TORSDOF 1
ENDMDL
