MODEL 1
REMARK VINA RESULT:      -6.8      0.000      0.000
REMARK  Name = 
REMARK  6 active torsions:
REMARK  status: ('A' for Active; 'I' for Inactive)
REMARK    1  A    between atoms: C_1  and  C_2
REMARK    2  A    between atoms: C_4  and  C_5
REMARK    3  A    between atoms: N_6  and  C_7
REMARK    4  A    between atoms: C_7  and  C_8
REMARK    5  A    between atoms: N_12  and  C_13
REMARK    6  A    between atoms: C_13  and  C_14
REMARK                            x       y       z     vdW  Elec       q    Type
REMARK                         _______ _______ _______ _____ _____    ______ ____
ROOT
ATOM      1  C   UNL     1       2.208   4.966  19.282  0.00  0.00    +0.000 C 
ATOM      2  C   UNL     1       1.280   4.332  20.318  0.00  0.00    +0.000 C 
ATOM      3  C   UNL     1       0.914   3.007  19.695  0.00  0.00    +0.000 C 
ATOM      4  C   UNL     1       2.161   2.603  18.929  0.00  0.00    +0.000 C 
ATOM      5  N   UNL     1       2.962   3.825  18.704  0.00  0.00    +0.000 NA
ENDROOT
BRANCH   1   6
ATOM      6  C   UNL     1       2.869   6.217  19.899  0.00  0.00    +0.000 C 
BRANCH   6  12
ATOM      7  C   UNL     1       0.243   9.651  21.935  0.00  0.00    +0.000 C 
ATOM      8  C   UNL     1       0.878   8.863  20.869  0.00  0.00    +0.000 A 
ATOM      9  N   UNL     1       1.147   9.357  19.621  0.00  0.00    +0.000 NA
ATOM     10  C   UNL     1       1.852   8.399  19.049  0.00  0.00    +0.000 A 
ATOM     11  C   UNL     1       2.386   8.401  17.669  0.00  0.00    +0.000 C 
ATOM     12  N   UNL     1       2.040   7.397  19.962  0.00  0.00    +0.000 N 
ATOM     13  N   UNL     1       1.327   7.622  21.081  0.00  0.00    +0.000 NA
ENDBRANCH   6  12
ENDBRANCH   1   6
BRANCH   5  14
ATOM     14  C   UNL     1       4.350   3.651  19.167  0.00  0.00    +0.000 C 
BRANCH  14  15
ATOM     15  C   UNL     1       5.351   4.019  18.096  0.00  0.00    +0.000 A 
ATOM     16  C   UNL     1       5.141   4.023  16.725  0.00  0.00    +0.000 A 
ATOM     17  S   UNL     1       6.549   4.561  15.907  0.00  0.00    +0.000 S 
ATOM     18  C   UNL     1       7.333   4.753  17.419  0.00  0.00    +0.000 A 
ATOM     19  N   UNL     1       6.625   4.435  18.482  0.00  0.00    +0.000 NA
ENDBRANCH  14  15
ENDBRANCH   5  14
TORSDOF 4
ENDMDL
MODEL 2
REMARK VINA RESULT:      -6.7      1.126      1.340
REMARK  Name = 
REMARK  6 active torsions:
REMARK  status: ('A' for Active; 'I' for Inactive)
REMARK    1  A    between atoms: C_1  and  C_2
REMARK    2  A    between atoms: C_4  and  C_5
REMARK    3  A    between atoms: N_6  and  C_7
REMARK    4  A    between atoms: C_7  and  C_8
REMARK    5  A    between atoms: N_12  and  C_13
REMARK    6  A    between atoms: C_13  and  C_14
REMARK                            x       y       z     vdW  Elec       q    Type
REMARK                         _______ _______ _______ _____ _____    ______ ____
ROOT
ATOM      1  C   UNL     1       2.145   4.949  19.301  0.00  0.00    +0.000 C 
ATOM      2  C   UNL     1       1.227   4.393  20.389  0.00  0.00    +0.000 C 
ATOM      3  C   UNL     1       0.927   2.993  19.911  0.00  0.00    +0.000 C 
ATOM      4  C   UNL     1       2.203   2.562  19.209  0.00  0.00    +0.000 C 
ATOM      5  N   UNL     1       2.956   3.786  18.861  0.00  0.00    +0.000 NA
ENDROOT
BRANCH   1   6
ATOM      6  C   UNL     1       2.743   6.288  19.785  0.00  0.00    +0.000 C 
BRANCH   6  12
ATOM      7  C   UNL     1       0.808  10.553  18.835  0.00  0.00    +0.000 C 
ATOM      8  C   UNL     1       1.525   9.291  18.600  0.00  0.00    +0.000 A 
ATOM      9  N   UNL     1       2.428   9.110  17.586  0.00  0.00    +0.000 NA
ATOM     10  C   UNL     1       2.945   7.922  17.835  0.00  0.00    +0.000 A 
ATOM     11  C   UNL     1       3.965   7.218  17.025  0.00  0.00    +0.000 C 
ATOM     12  N   UNL     1       2.401   7.447  18.997  0.00  0.00    +0.000 N 
ATOM     13  N   UNL     1       1.410   8.250  19.430  0.00  0.00    +0.000 NA
ENDBRANCH   6  12
ENDBRANCH   1   6
BRANCH   5  14
ATOM     14  C   UNL     1       4.342   3.723  19.358  0.00  0.00    +0.000 C 
BRANCH  14  15
ATOM     15  C   UNL     1       5.345   4.024  18.267  0.00  0.00    +0.000 A 
ATOM     16  C   UNL     1       5.149   3.906  16.900  0.00  0.00    +0.000 A 
ATOM     17  S   UNL     1       6.552   4.407  16.050  0.00  0.00    +0.000 S 
ATOM     18  C   UNL     1       7.315   4.746  17.546  0.00  0.00    +0.000 A 
ATOM     19  N   UNL     1       6.605   4.502  18.627  0.00  0.00    +0.000 NA
ENDBRANCH  14  15
ENDBRANCH   5  14
TORSDOF 4
ENDMDL
MODEL 3
REMARK VINA RESULT:      -6.6      2.329      4.403
REMARK  Name = 
REMARK  6 active torsions:
REMARK  status: ('A' for Active; 'I' for Inactive)
REMARK    1  A    between atoms: C_1  and  C_2
REMARK    2  A    between atoms: C_4  and  C_5
REMARK    3  A    between atoms: N_6  and  C_7
REMARK    4  A    between atoms: C_7  and  C_8
REMARK    5  A    between atoms: N_12  and  C_13
REMARK    6  A    between atoms: C_13  and  C_14
REMARK                            x       y       z     vdW  Elec       q    Type
REMARK                         _______ _______ _______ _____ _____    ______ ____
ROOT
ATOM      1  C   UNL     1       5.228   4.588  18.151  0.00  0.00    +0.000 C 
ATOM      2  C   UNL     1       5.768   5.427  19.308  0.00  0.00    +0.000 C 
ATOM      3  C   UNL     1       7.257   5.184  19.252  0.00  0.00    +0.000 C 
ATOM      4  C   UNL     1       7.547   5.020  17.770  0.00  0.00    +0.000 C 
ATOM      5  N   UNL     1       6.274   4.677  17.101  0.00  0.00    +0.000 NA
ENDROOT
BRANCH   1   6
ATOM      6  C   UNL     1       3.742   4.942  17.924  0.00  0.00    +0.000 C 
BRANCH   6  12
ATOM      7  C   UNL     1       1.692   2.731  21.630  0.00  0.00    +0.000 C 
ATOM      8  C   UNL     1       1.979   3.797  20.660  0.00  0.00    +0.000 A 
ATOM      9  N   UNL     1       1.738   5.123  20.899  0.00  0.00    +0.000 NA
ATOM     10  C   UNL     1       2.284   5.733  19.864  0.00  0.00    +0.000 A 
ATOM     11  C   UNL     1       2.289   7.190  19.601  0.00  0.00    +0.000 C 
ATOM     12  N   UNL     1       2.880   4.790  19.071  0.00  0.00    +0.000 N 
ATOM     13  N   UNL     1       2.592   3.547  19.499  0.00  0.00    +0.000 NA
ENDBRANCH   6  12
ENDBRANCH   1   6
BRANCH   5  14
ATOM     14  C   UNL     1       6.000   5.582  15.971  0.00  0.00    +0.000 C 
BRANCH  14  15
ATOM     15  C   UNL     1       6.393   4.966  14.648  0.00  0.00    +0.000 A 
ATOM     16  C   UNL     1       5.750   3.932  13.986  0.00  0.00    +0.000 A 
ATOM     17  S   UNL     1       6.526   3.603  12.493  0.00  0.00    +0.000 S 
ATOM     18  C   UNL     1       7.653   4.851  12.826  0.00  0.00    +0.000 A 
ATOM     19  N   UNL     1       7.497   5.483  13.970  0.00  0.00    +0.000 NA
ENDBRANCH  14  15
ENDBRANCH   5  14
TORSDOF 4
ENDMDL
MODEL 4
REMARK VINA RESULT:      -6.6      2.664      6.382
REMARK  Name = 
REMARK  6 active torsions:
REMARK  status: ('A' for Active; 'I' for Inactive)
REMARK    1  A    between atoms: C_1  and  C_2
REMARK    2  A    between atoms: C_4  and  C_5
REMARK    3  A    between atoms: N_6  and  C_7
REMARK    4  A    between atoms: C_7  and  C_8
REMARK    5  A    between atoms: N_12  and  C_13
REMARK    6  A    between atoms: C_13  and  C_14
REMARK                            x       y       z     vdW  Elec       q    Type
REMARK                         _______ _______ _______ _____ _____    ______ ____
ROOT
ATOM      1  C   UNL     1       3.552   5.982  17.752  0.00  0.00    +0.000 C 
ATOM      2  C   UNL     1       4.286   7.287  17.448  0.00  0.00    +0.000 C 
ATOM      3  C   UNL     1       3.173   8.303  17.359  0.00  0.00    +0.000 C 
ATOM      4  C   UNL     1       2.149   7.815  18.369  0.00  0.00    +0.000 C 
ATOM      5  N   UNL     1       2.415   6.383  18.619  0.00  0.00    +0.000 NA
ENDROOT
BRANCH   1   6
ATOM      6  C   UNL     1       4.586   4.899  18.127  0.00  0.00    +0.000 C 
BRANCH   6  12
ATOM      7  C   UNL     1       6.277   3.898  13.771  0.00  0.00    +0.000 C 
ATOM      8  C   UNL     1       6.285   4.139  15.221  0.00  0.00    +0.000 A 
ATOM      9  N   UNL     1       7.393   4.544  15.915  0.00  0.00    +0.000 NA
ATOM     10  C   UNL     1       6.931   4.798  17.125  0.00  0.00    +0.000 A 
ATOM     11  C   UNL     1       7.720   5.248  18.294  0.00  0.00    +0.000 C 
ATOM     12  N   UNL     1       5.576   4.604  17.121  0.00  0.00    +0.000 N 
ATOM     13  N   UNL     1       5.169   4.070  15.954  0.00  0.00    +0.000 NA
ENDBRANCH   6  12
ENDBRANCH   1   6
BRANCH   5  14
ATOM     14  C   UNL     1       2.554   6.105  20.059  0.00  0.00    +0.000 C 
BRANCH  14  15
ATOM     15  C   UNL     1       2.058   4.723  20.417  0.00  0.00    +0.000 A 
ATOM     16  C   UNL     1       2.372   3.994  21.554  0.00  0.00    +0.000 A 
ATOM     17  S   UNL     1       1.533   2.498  21.554  0.00  0.00    +0.000 S 
ATOM     18  C   UNL     1       0.814   2.922  20.058  0.00  0.00    +0.000 A 
ATOM     19  N   UNL     1       1.162   4.088  19.557  0.00  0.00    +0.000 NA
ENDBRANCH  14  15
ENDBRANCH   5  14
TORSDOF 4
ENDMDL
MODEL 5
REMARK VINA RESULT:      -6.5      1.085      1.221
REMARK  Name = 
REMARK  6 active torsions:
REMARK  status: ('A' for Active; 'I' for Inactive)
REMARK    1  A    between atoms: C_1  and  C_2
REMARK    2  A    between atoms: C_4  and  C_5
REMARK    3  A    between atoms: N_6  and  C_7
REMARK    4  A    between atoms: C_7  and  C_8
REMARK    5  A    between atoms: N_12  and  C_13
REMARK    6  A    between atoms: C_13  and  C_14
REMARK                            x       y       z     vdW  Elec       q    Type
REMARK                         _______ _______ _______ _____ _____    ______ ____
ROOT
ATOM      1  C   UNL     1       1.897   4.486  19.225  0.00  0.00    +0.000 C 
ATOM      2  C   UNL     1       1.087   3.438  19.987  0.00  0.00    +0.000 C 
ATOM      3  C   UNL     1       0.812   2.382  18.945  0.00  0.00    +0.000 C 
ATOM      4  C   UNL     1       2.049   2.402  18.065  0.00  0.00    +0.000 C 
ATOM      5  N   UNL     1       2.722   3.703  18.271  0.00  0.00    +0.000 NA
ENDROOT
BRANCH   1   6
ATOM      6  C   UNL     1       2.471   5.506  20.231  0.00  0.00    +0.000 C 
BRANCH   6  12
ATOM      7  C   UNL     1       0.534   9.630  21.671  0.00  0.00    +0.000 C 
ATOM      8  C   UNL     1       1.099   8.628  20.755  0.00  0.00    +0.000 A 
ATOM      9  N   UNL     1       1.670   8.940  19.551  0.00  0.00    +0.000 NA
ATOM     10  C   UNL     1       2.185   7.797  19.141  0.00  0.00    +0.000 A 
ATOM     11  C   UNL     1       2.903   7.557  17.869  0.00  0.00    +0.000 C 
ATOM     12  N   UNL     1       1.972   6.854  20.111  0.00  0.00    +0.000 N 
ATOM     13  N   UNL     1       1.179   7.336  21.086  0.00  0.00    +0.000 NA
ENDBRANCH   6  12
ENDBRANCH   1   6
BRANCH   5  14
ATOM     14  C   UNL     1       4.142   3.524  18.620  0.00  0.00    +0.000 C 
BRANCH  14  15
ATOM     15  C   UNL     1       5.040   4.433  17.812  0.00  0.00    +0.000 A 
ATOM     16  C   UNL     1       6.184   5.081  18.253  0.00  0.00    +0.000 A 
ATOM     17  S   UNL     1       6.902   5.963  16.970  0.00  0.00    +0.000 S 
ATOM     18  C   UNL     1       5.655   5.425  15.925  0.00  0.00    +0.000 A 
ATOM     19  N   UNL     1       4.741   4.648  16.466  0.00  0.00    +0.000 NA
ENDBRANCH  14  15
ENDBRANCH   5  14
TORSDOF 4
ENDMDL
MODEL 6
REMARK VINA RESULT:      -6.4      2.767      6.134
REMARK  Name = 
REMARK  6 active torsions:
REMARK  status: ('A' for Active; 'I' for Inactive)
REMARK    1  A    between atoms: C_1  and  C_2
REMARK    2  A    between atoms: C_4  and  C_5
REMARK    3  A    between atoms: N_6  and  C_7
REMARK    4  A    between atoms: C_7  and  C_8
REMARK    5  A    between atoms: N_12  and  C_13
REMARK    6  A    between atoms: C_13  and  C_14
REMARK                            x       y       z     vdW  Elec       q    Type
REMARK                         _______ _______ _______ _____ _____    ______ ____
ROOT
ATOM      1  C   UNL     1       4.203   4.261  18.594  0.00  0.00    +0.000 C 
ATOM      2  C   UNL     1       3.858   3.308  17.450  0.00  0.00    +0.000 C 
ATOM      3  C   UNL     1       2.349   3.321  17.425  0.00  0.00    +0.000 C 
ATOM      4  C   UNL     1       1.987   4.737  17.836  0.00  0.00    +0.000 C 
ATOM      5  N   UNL     1       3.156   5.312  18.536  0.00  0.00    +0.000 NA
ENDROOT
BRANCH   1   6
ATOM      6  C   UNL     1       5.720   4.547  18.570  0.00  0.00    +0.000 C 
BRANCH   6  12
ATOM      7  C   UNL     1       6.353   4.063  13.858  0.00  0.00    +0.000 C 
ATOM      8  C   UNL     1       6.565   4.563  15.224  0.00  0.00    +0.000 A 
ATOM      9  N   UNL     1       7.139   5.773  15.507  0.00  0.00    +0.000 NA
ATOM     10  C   UNL     1       6.986   5.897  16.811  0.00  0.00    +0.000 A 
ATOM     11  C   UNL     1       7.454   7.022  17.652  0.00  0.00    +0.000 C 
ATOM     12  N   UNL     1       6.286   4.813  17.270  0.00  0.00    +0.000 N 
ATOM     13  N   UNL     1       6.117   3.900  16.295  0.00  0.00    +0.000 NA
ENDBRANCH   6  12
ENDBRANCH   1   6
BRANCH   5  14
ATOM     14  C   UNL     1       3.552   6.605  17.949  0.00  0.00    +0.000 C 
BRANCH  14  15
ATOM     15  C   UNL     1       2.614   7.719  18.357  0.00  0.00    +0.000 A 
ATOM     16  C   UNL     1       2.010   7.888  19.593  0.00  0.00    +0.000 A 
ATOM     17  S   UNL     1       1.072   9.323  19.607  0.00  0.00    +0.000 S 
ATOM     18  C   UNL     1       1.532   9.619  17.983  0.00  0.00    +0.000 A 
ATOM     19  N   UNL     1       2.323   8.722  17.433  0.00  0.00    +0.000 NA
ENDBRANCH  14  15
ENDBRANCH   5  14
TORSDOF 4
ENDMDL
MODEL 7
REMARK VINA RESULT:      -6.4      3.213      6.267
REMARK  Name = 
REMARK  6 active torsions:
REMARK  status: ('A' for Active; 'I' for Inactive)
REMARK    1  A    between atoms: C_1  and  C_2
REMARK    2  A    between atoms: C_4  and  C_5
REMARK    3  A    between atoms: N_6  and  C_7
REMARK    4  A    between atoms: C_7  and  C_8
REMARK    5  A    between atoms: N_12  and  C_13
REMARK    6  A    between atoms: C_13  and  C_14
REMARK                            x       y       z     vdW  Elec       q    Type
REMARK                         _______ _______ _______ _____ _____    ______ ____
ROOT
ATOM      1  C   UNL     1       3.994   5.093  17.565  0.00  0.00    +0.000 C 
ATOM      2  C   UNL     1       4.157   5.842  18.887  0.00  0.00    +0.000 C 
ATOM      3  C   UNL     1       2.819   6.514  19.075  0.00  0.00    +0.000 C 
ATOM      4  C   UNL     1       1.828   5.536  18.470  0.00  0.00    +0.000 C 
ATOM      5  N   UNL     1       2.578   4.648  17.557  0.00  0.00    +0.000 NA
ENDROOT
BRANCH   1   6
ATOM      6  C   UNL     1       5.199   4.147  17.372  0.00  0.00    +0.000 C 
BRANCH   6  12
ATOM      7  C   UNL     1       6.697   3.958  12.838  0.00  0.00    +0.000 C 
ATOM      8  C   UNL     1       6.693   4.310  14.265  0.00  0.00    +0.000 A 
ATOM      9  N   UNL     1       7.347   5.397  14.779  0.00  0.00    +0.000 NA
ATOM     10  C   UNL     1       6.953   5.436  16.037  0.00  0.00    +0.000 A 
ATOM     11  C   UNL     1       7.382   6.409  17.067  0.00  0.00    +0.000 C 
ATOM     12  N   UNL     1       6.044   4.432  16.237  0.00  0.00    +0.000 N 
ATOM     13  N   UNL     1       5.959   3.635  15.156  0.00  0.00    +0.000 NA
ENDBRANCH   6  12
ENDBRANCH   1   6
BRANCH   5  14
ATOM     14  C   UNL     1       2.330   3.228  17.865  0.00  0.00    +0.000 C 
BRANCH  14  15
ATOM     15  C   UNL     1       2.214   2.987  19.352  0.00  0.00    +0.000 A 
ATOM     16  C   UNL     1       1.054   3.010  20.112  0.00  0.00    +0.000 A 
ATOM     17  S   UNL     1       1.403   2.627  21.746  0.00  0.00    +0.000 S 
ATOM     18  C   UNL     1       3.058   2.455  21.334  0.00  0.00    +0.000 A 
ATOM     19  N   UNL     1       3.366   2.673  20.073  0.00  0.00    +0.000 NA
ENDBRANCH  14  15
ENDBRANCH   5  14
TORSDOF 4
ENDMDL
MODEL 8
REMARK VINA RESULT:      -6.3      2.612      6.197
REMARK  Name = 
REMARK  6 active torsions:
REMARK  status: ('A' for Active; 'I' for Inactive)
REMARK    1  A    between atoms: C_1  and  C_2
REMARK    2  A    between atoms: C_4  and  C_5
REMARK    3  A    between atoms: N_6  and  C_7
REMARK    4  A    between atoms: C_7  and  C_8
REMARK    5  A    between atoms: N_12  and  C_13
REMARK    6  A    between atoms: C_13  and  C_14
REMARK                            x       y       z     vdW  Elec       q    Type
REMARK                         _______ _______ _______ _____ _____    ______ ____
ROOT
ATOM      1  C   UNL     1       3.585   6.286  17.723  0.00  0.00    +0.000 C 
ATOM      2  C   UNL     1       4.066   7.731  17.590  0.00  0.00    +0.000 C 
ATOM      3  C   UNL     1       2.783   8.527  17.573  0.00  0.00    +0.000 C 
ATOM      4  C   UNL     1       1.854   7.746  18.487  0.00  0.00    +0.000 C 
ATOM      5  N   UNL     1       2.381   6.369  18.588  0.00  0.00    +0.000 NA
ENDROOT
BRANCH   1   6
ATOM      6  C   UNL     1       4.799   5.378  18.014  0.00  0.00    +0.000 C 
BRANCH   6  12
ATOM      7  C   UNL     1       6.281   3.956  13.700  0.00  0.00    +0.000 C 
ATOM      8  C   UNL     1       6.349   4.537  15.048  0.00  0.00    +0.000 A 
ATOM      9  N   UNL     1       7.295   5.450  15.433  0.00  0.00    +0.000 NA
ATOM     10  C   UNL     1       6.899   5.825  16.634  0.00  0.00    +0.000 A 
ATOM     11  C   UNL     1       7.582   6.789  17.526  0.00  0.00    +0.000 C 
ATOM     12  N   UNL     1       5.719   5.193  16.919  0.00  0.00    +0.000 N 
ATOM     13  N   UNL     1       5.420   4.281  15.974  0.00  0.00    +0.000 NA
ENDBRANCH   6  12
ENDBRANCH   1   6
BRANCH   5  14
ATOM     14  C   UNL     1       2.550   5.960  19.994  0.00  0.00    +0.000 C 
BRANCH  14  15
ATOM     15  C   UNL     1       2.059   4.550  20.233  0.00  0.00    +0.000 A 
ATOM     16  C   UNL     1       1.523   3.684  19.293  0.00  0.00    +0.000 A 
ATOM     17  S   UNL     1       1.156   2.173  20.014  0.00  0.00    +0.000 S 
ATOM     18  C   UNL     1       1.733   2.768  21.514  0.00  0.00    +0.000 A 
ATOM     19  N   UNL     1       2.167   4.011  21.515  0.00  0.00    +0.000 NA
ENDBRANCH  14  15
ENDBRANCH   5  14
TORSDOF 4
ENDMDL
MODEL 9
REMARK VINA RESULT:      -6.3      1.110      2.030
REMARK  Name = 
REMARK  6 active torsions:
REMARK  status: ('A' for Active; 'I' for Inactive)
REMARK    1  A    between atoms: C_1  and  C_2
REMARK    2  A    between atoms: C_4  and  C_5
REMARK    3  A    between atoms: N_6  and  C_7
REMARK    4  A    between atoms: C_7  and  C_8
REMARK    5  A    between atoms: N_12  and  C_13
REMARK    6  A    between atoms: C_13  and  C_14
REMARK                            x       y       z     vdW  Elec       q    Type
REMARK                         _______ _______ _______ _____ _____    ______ ____
ROOT
ATOM      1  C   UNL     1       1.786   4.688  19.488  0.00  0.00    +0.000 C 
ATOM      2  C   UNL     1       0.897   3.562  20.015  0.00  0.00    +0.000 C 
ATOM      3  C   UNL     1       1.039   2.484  18.969  0.00  0.00    +0.000 C 
ATOM      4  C   UNL     1       2.470   2.631  18.482  0.00  0.00    +0.000 C 
ATOM      5  N   UNL     1       2.924   3.993  18.835  0.00  0.00    +0.000 NA
ENDROOT
BRANCH   1   6
ATOM      6  C   UNL     1       1.943   5.761  20.587  0.00  0.00    +0.000 C 
BRANCH   6  12
ATOM      7  C   UNL     1       2.073   9.404  17.499  0.00  0.00    +0.000 C 
ATOM      8  C   UNL     1       1.949   8.703  18.785  0.00  0.00    +0.000 A 
ATOM      9  N   UNL     1       1.288   9.218  19.867  0.00  0.00    +0.000 NA
ATOM     10  C   UNL     1       1.272   8.220  20.730  0.00  0.00    +0.000 A 
ATOM     11  C   UNL     1       0.697   8.241  22.094  0.00  0.00    +0.000 C 
ATOM     12  N   UNL     1       1.857   7.130  20.142  0.00  0.00    +0.000 N 
ATOM     13  N   UNL     1       2.399   7.456  18.954  0.00  0.00    +0.000 NA
ENDBRANCH   6  12
ENDBRANCH   1   6
BRANCH   5  14
ATOM     14  C   UNL     1       4.193   3.960  19.582  0.00  0.00    +0.000 C 
BRANCH  14  15
ATOM     15  C   UNL     1       5.263   4.793  18.913  0.00  0.00    +0.000 A 
ATOM     16  C   UNL     1       5.202   5.372  17.655  0.00  0.00    +0.000 A 
ATOM     17  S   UNL     1       6.630   6.267  17.340  0.00  0.00    +0.000 S 
ATOM     18  C   UNL     1       7.224   5.830  18.887  0.00  0.00    +0.000 A 
ATOM     19  N   UNL     1       6.441   5.059  19.611  0.00  0.00    +0.000 NA
ENDBRANCH  14  15
ENDBRANCH   5  14
TORSDOF 4
ENDMDL
