MODEL 1
REMARK VINA RESULT:      -9.8      0.000      0.000
REMARK  Name = 
REMARK  3 active torsions:
REMARK  status: ('A' for Active; 'I' for Inactive)
REMARK    1  A    between atoms: C_7  and  S_8
REMARK    2  A    between atoms: S_8  and  C_11
REMARK    3  A    between atoms: N_23  and  C_24
REMARK                            x       y       z     vdW  Elec       q    Type
REMARK                         _______ _______ _______ _____ _____    ______ ____
ROOT
ATOM      1  O   UNL     1       2.550   4.270  21.272  0.00  0.00    +0.000 OA
ATOM      2  C   UNL     1       2.435   5.163  20.442  0.00  0.00    +0.000 A 
ATOM      3  N   UNL     1       1.907   6.383  20.813  0.00  0.00    +0.000 N 
ATOM      4  C   UNL     1       1.834   7.476  19.994  0.00  0.00    +0.000 A 
ATOM      5  C   UNL     1       2.270   7.379  18.721  0.00  0.00    +0.000 A 
ATOM      6  C   UNL     1       2.764   6.110  18.227  0.00  0.00    +0.000 A 
ATOM      7  C   UNL     1       2.832   5.028  19.024  0.00  0.00    +0.000 A 
ATOM      8  C   UNL     1       2.304   8.549  17.758  0.00  0.00    +0.000 C 
ATOM      9  C   UNL     1       1.708   9.886  18.256  0.00  0.00    +0.000 C 
ATOM     10  C   UNL     1       1.253   9.818  19.672  0.00  0.00    +0.000 A 
ATOM     11  C   UNL     1       1.343   8.715  20.495  0.00  0.00    +0.000 A 
ATOM     12  C   UNL     1       0.940   9.165  21.755  0.00  0.00    +0.000 A 
ATOM     13  N   UNL     1       0.682  10.477  21.759  0.00  0.00    +0.000 NA
ATOM     14  N   UNL     1       0.796  10.860  20.457  0.00  0.00    +0.000 N 
ATOM     15  H   UNL     1       1.634   6.453  21.787  0.00  0.00    +0.000 HD
ENDROOT
BRANCH  14  16
ATOM     16  C   UNL     1       0.466  12.187  20.078  0.00  0.00    +0.000 A 
ATOM     17  C   UNL     1      -0.870  12.608  20.143  0.00  0.00    +0.000 A 
ATOM     18  C   UNL     1      -1.212  13.914  19.783  0.00  0.00    +0.000 A 
ATOM     19  C   UNL     1      -0.230  14.790  19.318  0.00  0.00    +0.000 A 
ATOM     20  C   UNL     1       1.091  14.358  19.221  0.00  0.00    +0.000 A 
ATOM     21 CL   UNL     1       2.295  15.418  18.596  0.00  0.00    +0.000 Cl
ATOM     22  C   UNL     1       1.446  13.065  19.605  0.00  0.00    +0.000 A 
ENDBRANCH  14  16
BRANCH   7  23
ATOM     23  S   UNL     1       3.485   3.572  18.376  0.00  0.00    +0.000 S 
ATOM     24  O   UNL     1       3.997   2.758  19.471  0.00  0.00    +0.000 OA
ATOM     25  O   UNL     1       2.518   2.978  17.468  0.00  0.00    +0.000 OA
BRANCH  23  26
ATOM     26  C   UNL     1       4.909   4.034  17.421  0.00  0.00    +0.000 A 
ATOM     27  C   UNL     1       4.844   4.018  16.024  0.00  0.00    +0.000 A 
ATOM     28  C   UNL     1       5.973   4.367  15.283  0.00  0.00    +0.000 A 
ATOM     29  C   UNL     1       7.150   4.741  15.935  0.00  0.00    +0.000 A 
ATOM     30  C   UNL     1       7.195   4.798  17.328  0.00  0.00    +0.000 A 
ATOM     31  C   UNL     1       6.069   4.463  18.075  0.00  0.00    +0.000 A 
ENDBRANCH  23  26
ENDBRANCH   7  23
TORSDOF 3
ENDMDL
MODEL 2
REMARK VINA RESULT:      -9.7      1.092      1.403
REMARK  Name = 
REMARK  3 active torsions:
REMARK  status: ('A' for Active; 'I' for Inactive)
REMARK    1  A    between atoms: C_7  and  S_8
REMARK    2  A    between atoms: S_8  and  C_11
REMARK    3  A    between atoms: N_23  and  C_24
REMARK                            x       y       z     vdW  Elec       q    Type
REMARK                         _______ _______ _______ _____ _____    ______ ____
ROOT
ATOM      1  O   UNL     1       2.680   4.077  21.091  0.00  0.00    +0.000 OA
ATOM      2  C   UNL     1       2.488   5.010  20.321  0.00  0.00    +0.000 A 
ATOM      3  N   UNL     1       1.973   6.199  20.796  0.00  0.00    +0.000 N 
ATOM      4  C   UNL     1       1.821   7.332  20.044  0.00  0.00    +0.000 A 
ATOM      5  C   UNL     1       2.157   7.309  18.738  0.00  0.00    +0.000 A 
ATOM      6  C   UNL     1       2.629   6.076  18.140  0.00  0.00    +0.000 A 
ATOM      7  C   UNL     1       2.774   4.956  18.871  0.00  0.00    +0.000 A 
ATOM      8  C   UNL     1       2.099   8.527  17.839  0.00  0.00    +0.000 C 
ATOM      9  C   UNL     1       1.526   9.826  18.451  0.00  0.00    +0.000 C 
ATOM     10  C   UNL     1       1.184   9.676  19.893  0.00  0.00    +0.000 A 
ATOM     11  C   UNL     1       1.353   8.534  20.647  0.00  0.00    +0.000 A 
ATOM     12  C   UNL     1       1.043   8.911  21.956  0.00  0.00    +0.000 A 
ATOM     13  N   UNL     1       0.768  10.216  22.050  0.00  0.00    +0.000 NA
ATOM     14  N   UNL     1       0.775  10.668  20.765  0.00  0.00    +0.000 N 
ATOM     15  H   UNL     1       1.777   6.214  21.790  0.00  0.00    +0.000 HD
ENDROOT
BRANCH  14  16
ATOM     16  C   UNL     1       0.397  12.007  20.483  0.00  0.00    +0.000 A 
ATOM     17  C   UNL     1       1.359  12.904  19.998  0.00  0.00    +0.000 A 
ATOM     18  C   UNL     1       1.002  14.223  19.706  0.00  0.00    +0.000 A 
ATOM     19  C   UNL     1      -0.303  14.661  19.936  0.00  0.00    +0.000 A 
ATOM     20  C   UNL     1      -1.247  13.777  20.451  0.00  0.00    +0.000 A 
ATOM     21 CL   UNL     1      -2.843  14.327  20.787  0.00  0.00    +0.000 Cl
ATOM     22  C   UNL     1      -0.908  12.451  20.719  0.00  0.00    +0.000 A 
ENDBRANCH  14  16
BRANCH   7  23
ATOM     23  S   UNL     1       3.395   3.548  18.098  0.00  0.00    +0.000 S 
ATOM     24  O   UNL     1       3.805   2.593  19.120  0.00  0.00    +0.000 OA
ATOM     25  O   UNL     1       2.456   3.108  17.080  0.00  0.00    +0.000 OA
BRANCH  23  26
ATOM     26  C   UNL     1       4.892   4.036  17.277  0.00  0.00    +0.000 A 
ATOM     27  C   UNL     1       4.917   4.141  15.882  0.00  0.00    +0.000 A 
ATOM     28  C   UNL     1       6.102   4.510  15.245  0.00  0.00    +0.000 A 
ATOM     29  C   UNL     1       7.245   4.784  15.998  0.00  0.00    +0.000 A 
ATOM     30  C   UNL     1       7.202   4.721  17.391  0.00  0.00    +0.000 A 
ATOM     31  C   UNL     1       6.019   4.366  18.035  0.00  0.00    +0.000 A 
ENDBRANCH  23  26
ENDBRANCH   7  23
TORSDOF 3
ENDMDL
MODEL 3
REMARK VINA RESULT:      -9.4      3.408      4.875
REMARK  Name = 
REMARK  3 active torsions:
REMARK  status: ('A' for Active; 'I' for Inactive)
REMARK    1  A    between atoms: C_7  and  S_8
REMARK    2  A    between atoms: S_8  and  C_11
REMARK    3  A    between atoms: N_23  and  C_24
REMARK                            x       y       z     vdW  Elec       q    Type
REMARK                         _______ _______ _______ _____ _____    ______ ____
ROOT
ATOM      1  O   UNL     1       2.501   8.455  17.110  0.00  0.00    +0.000 OA
ATOM      2  C   UNL     1       2.121   8.508  18.273  0.00  0.00    +0.000 A 
ATOM      3  N   UNL     1       1.437   9.620  18.723  0.00  0.00    +0.000 N 
ATOM      4  C   UNL     1       0.879   9.734  19.966  0.00  0.00    +0.000 A 
ATOM      5  C   UNL     1       1.015   8.721  20.848  0.00  0.00    +0.000 A 
ATOM      6  C   UNL     1       1.788   7.552  20.483  0.00  0.00    +0.000 A 
ATOM      7  C   UNL     1       2.346   7.435  19.265  0.00  0.00    +0.000 A 
ATOM      8  C   UNL     1       0.371   8.717  22.220  0.00  0.00    +0.000 C 
ATOM      9  C   UNL     1      -0.392   9.993  22.643  0.00  0.00    +0.000 C 
ATOM     10  C   UNL     1      -0.431  11.021  21.565  0.00  0.00    +0.000 A 
ATOM     11  C   UNL     1       0.124  10.891  20.309  0.00  0.00    +0.000 A 
ATOM     12  C   UNL     1      -0.293  12.026  19.608  0.00  0.00    +0.000 A 
ATOM     13  N   UNL     1      -1.115  12.789  20.334  0.00  0.00    +0.000 NA
ATOM     14  N   UNL     1      -1.133  12.211  21.567  0.00  0.00    +0.000 N 
ATOM     15  H   UNL     1       1.298  10.346  18.030  0.00  0.00    +0.000 HD
ENDROOT
BRANCH  14  16
ATOM     16  C   UNL     1      -1.822  12.842  22.635  0.00  0.00    +0.000 A 
ATOM     17  C   UNL     1      -1.248  13.958  23.259  0.00  0.00    +0.000 A 
ATOM     18  C   UNL     1      -1.918  14.597  24.305  0.00  0.00    +0.000 A 
ATOM     19  C   UNL     1      -3.140  14.100  24.760  0.00  0.00    +0.000 A 
ATOM     20  C   UNL     1      -3.691  12.970  24.161  0.00  0.00    +0.000 A 
ATOM     21 CL   UNL     1      -5.172  12.321  24.753  0.00  0.00    +0.000 Cl
ATOM     22  C   UNL     1      -3.044  12.342  23.097  0.00  0.00    +0.000 A 
ENDBRANCH  14  16
BRANCH   7  23
ATOM     23  S   UNL     1       3.202   5.988  18.890  0.00  0.00    +0.000 S 
ATOM     24  O   UNL     1       3.023   5.689  17.476  0.00  0.00    +0.000 OA
ATOM     25  O   UNL     1       4.556   6.086  19.410  0.00  0.00    +0.000 OA
BRANCH  23  26
ATOM     26  C   UNL     1       2.384   4.674  19.761  0.00  0.00    +0.000 A 
ATOM     27  C   UNL     1       1.378   3.939  19.124  0.00  0.00    +0.000 A 
ATOM     28  C   UNL     1       0.730   2.919  19.821  0.00  0.00    +0.000 A 
ATOM     29  C   UNL     1       1.096   2.630  21.138  0.00  0.00    +0.000 A 
ATOM     30  C   UNL     1       2.130   3.336  21.752  0.00  0.00    +0.000 A 
ATOM     31  C   UNL     1       2.790   4.348  21.058  0.00  0.00    +0.000 A 
ENDBRANCH  23  26
ENDBRANCH   7  23
TORSDOF 3
ENDMDL
MODEL 4
REMARK VINA RESULT:      -9.2      3.181      4.654
REMARK  Name = 
REMARK  3 active torsions:
REMARK  status: ('A' for Active; 'I' for Inactive)
REMARK    1  A    between atoms: C_7  and  S_8
REMARK    2  A    between atoms: S_8  and  C_11
REMARK    3  A    between atoms: N_23  and  C_24
REMARK                            x       y       z     vdW  Elec       q    Type
REMARK                         _______ _______ _______ _____ _____    ______ ____
ROOT
ATOM      1  O   UNL     1       2.563   8.466  17.140  0.00  0.00    +0.000 OA
ATOM      2  C   UNL     1       2.151   8.506  18.292  0.00  0.00    +0.000 A 
ATOM      3  N   UNL     1       1.461   9.616  18.737  0.00  0.00    +0.000 N 
ATOM      4  C   UNL     1       0.868   9.718  19.966  0.00  0.00    +0.000 A 
ATOM      5  C   UNL     1       0.974   8.694  20.838  0.00  0.00    +0.000 A 
ATOM      6  C   UNL     1       1.751   7.524  20.480  0.00  0.00    +0.000 A 
ATOM      7  C   UNL     1       2.343   7.420  19.277  0.00  0.00    +0.000 A 
ATOM      8  C   UNL     1       0.292   8.675  22.191  0.00  0.00    +0.000 C 
ATOM      9  C   UNL     1      -0.475   9.950  22.609  0.00  0.00    +0.000 C 
ATOM     10  C   UNL     1      -0.478  10.991  21.544  0.00  0.00    +0.000 A 
ATOM     11  C   UNL     1       0.110  10.875  20.302  0.00  0.00    +0.000 A 
ATOM     12  C   UNL     1      -0.280  12.021  19.604  0.00  0.00    +0.000 A 
ATOM     13  N   UNL     1      -1.119  12.780  20.317  0.00  0.00    +0.000 NA
ATOM     14  N   UNL     1      -1.174  12.186  21.541  0.00  0.00    +0.000 N 
ATOM     15  H   UNL     1       1.345  10.352  18.050  0.00  0.00    +0.000 HD
ENDROOT
BRANCH  14  16
ATOM     16  C   UNL     1      -1.890  12.807  22.598  0.00  0.00    +0.000 A 
ATOM     17  C   UNL     1      -3.209  12.410  22.858  0.00  0.00    +0.000 A 
ATOM     18  C   UNL     1      -3.925  13.003  23.902  0.00  0.00    +0.000 A 
ATOM     19  C   UNL     1      -3.344  14.021  24.659  0.00  0.00    +0.000 A 
ATOM     20  C   UNL     1      -2.045  14.437  24.374  0.00  0.00    +0.000 A 
ATOM     21 CL   UNL     1      -1.343  15.729  25.269  0.00  0.00    +0.000 Cl
ATOM     22  C   UNL     1      -1.312  13.831  23.354  0.00  0.00    +0.000 A 
ENDBRANCH  14  16
BRANCH   7  23
ATOM     23  S   UNL     1       3.201   5.973  18.908  0.00  0.00    +0.000 S 
ATOM     24  O   UNL     1       3.032   5.674  17.491  0.00  0.00    +0.000 OA
ATOM     25  O   UNL     1       4.551   6.070  19.436  0.00  0.00    +0.000 OA
BRANCH  23  26
ATOM     26  C   UNL     1       2.377   4.658  19.772  0.00  0.00    +0.000 A 
ATOM     27  C   UNL     1       1.367   3.932  19.132  0.00  0.00    +0.000 A 
ATOM     28  C   UNL     1       0.714   2.912  19.824  0.00  0.00    +0.000 A 
ATOM     29  C   UNL     1       1.079   2.614  21.139  0.00  0.00    +0.000 A 
ATOM     30  C   UNL     1       2.117   3.313  21.757  0.00  0.00    +0.000 A 
ATOM     31  C   UNL     1       2.782   4.324  21.068  0.00  0.00    +0.000 A 
ENDBRANCH  23  26
ENDBRANCH   7  23
TORSDOF 3
ENDMDL
MODEL 5
REMARK VINA RESULT:      -8.9      1.515      1.825
REMARK  Name = 
REMARK  3 active torsions:
REMARK  status: ('A' for Active; 'I' for Inactive)
REMARK    1  A    between atoms: C_7  and  S_8
REMARK    2  A    between atoms: S_8  and  C_11
REMARK    3  A    between atoms: N_23  and  C_24
REMARK                            x       y       z     vdW  Elec       q    Type
REMARK                         _______ _______ _______ _____ _____    ______ ____
ROOT
ATOM      1  O   UNL     1       2.461   4.563  21.362  0.00  0.00    +0.000 OA
ATOM      2  C   UNL     1       2.255   5.526  20.636  0.00  0.00    +0.000 A 
ATOM      3  N   UNL     1       1.685   6.670  21.157  0.00  0.00    +0.000 N 
ATOM      4  C   UNL     1       1.510   7.834  20.461  0.00  0.00    +0.000 A 
ATOM      5  C   UNL     1       1.880   7.892  19.164  0.00  0.00    +0.000 A 
ATOM      6  C   UNL     1       2.412   6.709  18.517  0.00  0.00    +0.000 A 
ATOM      7  C   UNL     1       2.579   5.558  19.194  0.00  0.00    +0.000 A 
ATOM      8  C   UNL     1       1.799   9.152  18.328  0.00  0.00    +0.000 C 
ATOM      9  C   UNL     1       1.163  10.396  18.990  0.00  0.00    +0.000 C 
ATOM     10  C   UNL     1       0.791  10.160  20.412  0.00  0.00    +0.000 A 
ATOM     11  C   UNL     1       0.984   8.986  21.111  0.00  0.00    +0.000 A 
ATOM     12  C   UNL     1       0.627   9.284  22.429  0.00  0.00    +0.000 A 
ATOM     13  N   UNL     1       0.302  10.571  22.582  0.00  0.00    +0.000 NA
ATOM     14  N   UNL     1       0.324  11.090  21.323  0.00  0.00    +0.000 N 
ATOM     15  H   UNL     1       1.463   6.626  22.145  0.00  0.00    +0.000 HD
ENDROOT
BRANCH  14  16
ATOM     16  C   UNL     1      -0.095  12.427  21.100  0.00  0.00    +0.000 A 
ATOM     17  C   UNL     1       0.869  13.437  20.974  0.00  0.00    +0.000 A 
ATOM     18  C   UNL     1       0.474  14.757  20.744  0.00  0.00    +0.000 A 
ATOM     19  C   UNL     1      -0.882  15.081  20.681  0.00  0.00    +0.000 A 
ATOM     20  C   UNL     1      -1.838  14.080  20.841  0.00  0.00    +0.000 A 
ATOM     21 CL   UNL     1      -3.512  14.482  20.818  0.00  0.00    +0.000 Cl
ATOM     22  C   UNL     1      -1.453  12.755  21.043  0.00  0.00    +0.000 A 
ENDBRANCH  14  16
BRANCH   7  23
ATOM     23  S   UNL     1       3.270   4.215  18.367  0.00  0.00    +0.000 S 
ATOM     24  O   UNL     1       3.231   3.052  19.244  0.00  0.00    +0.000 OA
ATOM     25  O   UNL     1       2.671   4.106  17.048  0.00  0.00    +0.000 OA
BRANCH  23  26
ATOM     26  C   UNL     1       4.994   4.585  18.147  0.00  0.00    +0.000 A 
ATOM     27  C   UNL     1       5.610   4.321  16.919  0.00  0.00    +0.000 A 
ATOM     28  C   UNL     1       6.967   4.601  16.761  0.00  0.00    +0.000 A 
ATOM     29  C   UNL     1       7.696   5.150  17.818  0.00  0.00    +0.000 A 
ATOM     30  C   UNL     1       7.066   5.452  19.026  0.00  0.00    +0.000 A 
ATOM     31  C   UNL     1       5.708   5.188  19.187  0.00  0.00    +0.000 A 
ENDBRANCH  23  26
ENDBRANCH   7  23
TORSDOF 3
ENDMDL
MODEL 6
REMARK VINA RESULT:      -8.9      3.296      4.783
REMARK  Name = 
REMARK  3 active torsions:
REMARK  status: ('A' for Active; 'I' for Inactive)
REMARK    1  A    between atoms: C_7  and  S_8
REMARK    2  A    between atoms: S_8  and  C_11
REMARK    3  A    between atoms: N_23  and  C_24
REMARK                            x       y       z     vdW  Elec       q    Type
REMARK                         _______ _______ _______ _____ _____    ______ ____
ROOT
ATOM      1  O   UNL     1       2.656   8.379  16.934  0.00  0.00    +0.000 OA
ATOM      2  C   UNL     1       2.252   8.454  18.087  0.00  0.00    +0.000 A 
ATOM      3  N   UNL     1       1.525   9.557  18.489  0.00  0.00    +0.000 N 
ATOM      4  C   UNL     1       0.939   9.691  19.718  0.00  0.00    +0.000 A 
ATOM      5  C   UNL     1       1.089   8.711  20.633  0.00  0.00    +0.000 A 
ATOM      6  C   UNL     1       1.906   7.556  20.319  0.00  0.00    +0.000 A 
ATOM      7  C   UNL     1       2.492   7.420  19.116  0.00  0.00    +0.000 A 
ATOM      8  C   UNL     1       0.419   8.727  21.992  0.00  0.00    +0.000 C 
ATOM      9  C   UNL     1      -0.392   9.990  22.362  0.00  0.00    +0.000 C 
ATOM     10  C   UNL     1      -0.441  10.983  21.252  0.00  0.00    +0.000 A 
ATOM     11  C   UNL     1       0.141  10.833  20.011  0.00  0.00    +0.000 A 
ATOM     12  C   UNL     1      -0.297  11.932  19.267  0.00  0.00    +0.000 A 
ATOM     13  N   UNL     1      -1.157  12.691  19.954  0.00  0.00    +0.000 NA
ATOM     14  N   UNL     1      -1.181  12.150  21.203  0.00  0.00    +0.000 N 
ATOM     15  H   UNL     1       1.377  10.257  17.772  0.00  0.00    +0.000 HD
ENDROOT
BRANCH  14  16
ATOM     16  C   UNL     1      -1.911  12.790  22.239  0.00  0.00    +0.000 A 
ATOM     17  C   UNL     1      -1.224  13.563  23.186  0.00  0.00    +0.000 A 
ATOM     18  C   UNL     1      -1.928  14.209  24.205  0.00  0.00    +0.000 A 
ATOM     19  C   UNL     1      -3.311  14.051  24.308  0.00  0.00    +0.000 A 
ATOM     20  C   UNL     1      -3.985  13.254  23.386  0.00  0.00    +0.000 A 
ATOM     21 CL   UNL     1      -5.682  13.012  23.542  0.00  0.00    +0.000 Cl
ATOM     22  C   UNL     1      -3.295  12.628  22.348  0.00  0.00    +0.000 A 
ENDBRANCH  14  16
BRANCH   7  23
ATOM     23  S   UNL     1       3.400   5.991  18.802  0.00  0.00    +0.000 S 
ATOM     24  O   UNL     1       3.569   5.848  17.362  0.00  0.00    +0.000 OA
ATOM     25  O   UNL     1       4.587   5.985  19.641  0.00  0.00    +0.000 OA
BRANCH  23  26
ATOM     26  C   UNL     1       2.381   4.623  19.299  0.00  0.00    +0.000 A 
ATOM     27  C   UNL     1       2.390   4.197  20.631  0.00  0.00    +0.000 A 
ATOM     28  C   UNL     1       1.599   3.112  21.009  0.00  0.00    +0.000 A 
ATOM     29  C   UNL     1       0.798   2.468  20.063  0.00  0.00    +0.000 A 
ATOM     30  C   UNL     1       0.760   2.925  18.745  0.00  0.00    +0.000 A 
ATOM     31  C   UNL     1       1.537   4.016  18.364  0.00  0.00    +0.000 A 
ENDBRANCH  23  26
ENDBRANCH   7  23
TORSDOF 3
ENDMDL
MODEL 7
REMARK VINA RESULT:      -8.8      3.007      3.949
REMARK  Name = 
REMARK  3 active torsions:
REMARK  status: ('A' for Active; 'I' for Inactive)
REMARK    1  A    between atoms: C_7  and  S_8
REMARK    2  A    between atoms: S_8  and  C_11
REMARK    3  A    between atoms: N_23  and  C_24
REMARK                            x       y       z     vdW  Elec       q    Type
REMARK                         _______ _______ _______ _____ _____    ______ ____
ROOT
ATOM      1  O   UNL     1       2.687   8.051  16.965  0.00  0.00    +0.000 OA
ATOM      2  C   UNL     1       2.303   8.145  18.124  0.00  0.00    +0.000 A 
ATOM      3  N   UNL     1       1.687   9.304  18.552  0.00  0.00    +0.000 N 
ATOM      4  C   UNL     1       1.129   9.471  19.789  0.00  0.00    +0.000 A 
ATOM      5  C   UNL     1       1.195   8.466  20.687  0.00  0.00    +0.000 A 
ATOM      6  C   UNL     1       1.895   7.244  20.345  0.00  0.00    +0.000 A 
ATOM      7  C   UNL     1       2.454   7.075  19.133  0.00  0.00    +0.000 A 
ATOM      8  C   UNL     1       0.542   8.522  22.053  0.00  0.00    +0.000 C 
ATOM      9  C   UNL     1      -0.142   9.850  22.452  0.00  0.00    +0.000 C 
ATOM     10  C   UNL     1      -0.108  10.862  21.359  0.00  0.00    +0.000 A 
ATOM     11  C   UNL     1       0.446  10.679  20.109  0.00  0.00    +0.000 A 
ATOM     12  C   UNL     1       0.107  11.827  19.388  0.00  0.00    +0.000 A 
ATOM     13  N   UNL     1      -0.671  12.652  20.097  0.00  0.00    +0.000 NA
ATOM     14  N   UNL     1      -0.734  12.094  21.338  0.00  0.00    +0.000 N 
ATOM     15  H   UNL     1       1.600  10.027  17.848  0.00  0.00    +0.000 HD
ENDROOT
BRANCH  14  16
ATOM     16  C   UNL     1      -1.390  12.783  22.391  0.00  0.00    +0.000 A 
ATOM     17  C   UNL     1      -0.815  13.952  22.910  0.00  0.00    +0.000 A 
ATOM     18  C   UNL     1      -1.453  14.648  23.940  0.00  0.00    +0.000 A 
ATOM     19  C   UNL     1      -2.641  14.158  24.484  0.00  0.00    +0.000 A 
ATOM     20  C   UNL     1      -3.191  12.977  23.990  0.00  0.00    +0.000 A 
ATOM     21 CL   UNL     1      -4.626  12.339  24.694  0.00  0.00    +0.000 Cl
ATOM     22  C   UNL     1      -2.576  12.290  22.943  0.00  0.00    +0.000 A 
ENDBRANCH  14  16
BRANCH   7  23
ATOM     23  S   UNL     1       3.219   5.572  18.786  0.00  0.00    +0.000 S 
ATOM     24  O   UNL     1       3.179   4.737  19.980  0.00  0.00    +0.000 OA
ATOM     25  O   UNL     1       2.678   5.034  17.549  0.00  0.00    +0.000 OA
BRANCH  23  26
ATOM     26  C   UNL     1       4.938   5.927  18.514  0.00  0.00    +0.000 A 
ATOM     27  C   UNL     1       5.902   5.401  19.380  0.00  0.00    +0.000 A 
ATOM     28  C   UNL     1       7.248   5.698  19.167  0.00  0.00    +0.000 A 
ATOM     29  C   UNL     1       7.625   6.503  18.089  0.00  0.00    +0.000 A 
ATOM     30  C   UNL     1       6.663   6.988  17.203  0.00  0.00    +0.000 A 
ATOM     31  C   UNL     1       5.318   6.685  17.402  0.00  0.00    +0.000 A 
ENDBRANCH  23  26
ENDBRANCH   7  23
TORSDOF 3
ENDMDL
MODEL 8
REMARK VINA RESULT:      -8.8      4.493      9.182
REMARK  Name = 
REMARK  3 active torsions:
REMARK  status: ('A' for Active; 'I' for Inactive)
REMARK    1  A    between atoms: C_7  and  S_8
REMARK    2  A    between atoms: S_8  and  C_11
REMARK    3  A    between atoms: N_23  and  C_24
REMARK                            x       y       z     vdW  Elec       q    Type
REMARK                         _______ _______ _______ _____ _____    ______ ____
ROOT
ATOM      1  O   UNL     1      -1.054  10.493  22.594  0.00  0.00    +0.000 OA
ATOM      2  C   UNL     1      -0.362  10.360  21.593  0.00  0.00    +0.000 A 
ATOM      3  N   UNL     1       0.368   9.203  21.409  0.00  0.00    +0.000 N 
ATOM      4  C   UNL     1       1.085   8.911  20.282  0.00  0.00    +0.000 A 
ATOM      5  C   UNL     1       1.129   9.808  19.275  0.00  0.00    +0.000 A 
ATOM      6  C   UNL     1       0.457  11.083  19.421  0.00  0.00    +0.000 A 
ATOM      7  C   UNL     1      -0.244  11.381  20.530  0.00  0.00    +0.000 A 
ATOM      8  C   UNL     1       1.830   9.550  17.956  0.00  0.00    +0.000 C 
ATOM      9  C   UNL     1       2.611   8.222  17.823  0.00  0.00    +0.000 C 
ATOM     10  C   UNL     1       2.478   7.357  19.028  0.00  0.00    +0.000 A 
ATOM     11  C   UNL     1       1.741   7.653  20.156  0.00  0.00    +0.000 A 
ATOM     12  C   UNL     1       1.789   6.497  20.938  0.00  0.00    +0.000 A 
ATOM     13  N   UNL     1       2.444   5.505  20.326  0.00  0.00    +0.000 NA
ATOM     14  N   UNL     1       2.938   6.063  19.186  0.00  0.00    +0.000 N 
ATOM     15  H   UNL     1       0.279   8.519  22.152  0.00  0.00    +0.000 HD
ENDROOT
BRANCH  14  16
ATOM     16  C   UNL     1       3.799   5.311  18.345  0.00  0.00    +0.000 A 
ATOM     17  C   UNL     1       3.244   4.425  17.411  0.00  0.00    +0.000 A 
ATOM     18  C   UNL     1       4.078   3.685  16.568  0.00  0.00    +0.000 A 
ATOM     19  C   UNL     1       5.464   3.794  16.683  0.00  0.00    +0.000 A 
ATOM     20  C   UNL     1       6.012   4.649  17.636  0.00  0.00    +0.000 A 
ATOM     21 CL   UNL     1       7.721   4.747  17.819  0.00  0.00    +0.000 Cl
ATOM     22  C   UNL     1       5.189   5.413  18.463  0.00  0.00    +0.000 A 
ENDBRANCH  14  16
BRANCH   7  23
ATOM     23  S   UNL     1      -1.060  12.896  20.602  0.00  0.00    +0.000 S 
ATOM     24  O   UNL     1      -1.107  13.340  21.989  0.00  0.00    +0.000 OA
ATOM     25  O   UNL     1      -0.493  13.792  19.608  0.00  0.00    +0.000 OA
BRANCH  23  26
ATOM     26  C   UNL     1      -2.749  12.585  20.146  0.00  0.00    +0.000 A 
ATOM     27  C   UNL     1      -3.035  11.931  18.943  0.00  0.00    +0.000 A 
ATOM     28  C   UNL     1      -4.365  11.706  18.586  0.00  0.00    +0.000 A 
ATOM     29  C   UNL     1      -5.396  12.119  19.433  0.00  0.00    +0.000 A 
ATOM     30  C   UNL     1      -5.103  12.731  20.652  0.00  0.00    +0.000 A 
ATOM     31  C   UNL     1      -3.778  12.948  21.021  0.00  0.00    +0.000 A 
ENDBRANCH  23  26
ENDBRANCH   7  23
TORSDOF 3
ENDMDL
MODEL 9
REMARK VINA RESULT:      -8.8      4.543      9.375
REMARK  Name = 
REMARK  3 active torsions:
REMARK  status: ('A' for Active; 'I' for Inactive)
REMARK    1  A    between atoms: C_7  and  S_8
REMARK    2  A    between atoms: S_8  and  C_11
REMARK    3  A    between atoms: N_23  and  C_24
REMARK                            x       y       z     vdW  Elec       q    Type
REMARK                         _______ _______ _______ _____ _____    ______ ____
ROOT
ATOM      1  O   UNL     1      -0.847  10.862  23.203  0.00  0.00    +0.000 OA
ATOM      2  C   UNL     1      -0.273  10.738  22.129  0.00  0.00    +0.000 A 
ATOM      3  N   UNL     1       0.374   9.556  21.828  0.00  0.00    +0.000 N 
ATOM      4  C   UNL     1       0.953   9.277  20.620  0.00  0.00    +0.000 A 
ATOM      5  C   UNL     1       0.935  10.211  19.646  0.00  0.00    +0.000 A 
ATOM      6  C   UNL     1       0.348  11.510  19.908  0.00  0.00    +0.000 A 
ATOM      7  C   UNL     1      -0.216  11.794  21.096  0.00  0.00    +0.000 A 
ATOM      8  C   UNL     1       1.479   9.974  18.252  0.00  0.00    +0.000 C 
ATOM      9  C   UNL     1       2.174   8.619  17.989  0.00  0.00    +0.000 C 
ATOM     10  C   UNL     1       2.125   7.712  19.170  0.00  0.00    +0.000 A 
ATOM     11  C   UNL     1       1.527   7.997  20.380  0.00  0.00    +0.000 A 
ATOM     12  C   UNL     1       1.600   6.809  21.112  0.00  0.00    +0.000 A 
ATOM     13  N   UNL     1       2.136   5.813  20.398  0.00  0.00    +0.000 NA
ATOM     14  N   UNL     1       2.534   6.393  19.232  0.00  0.00    +0.000 N 
ATOM     15  H   UNL     1       0.330   8.848  22.550  0.00  0.00    +0.000 HD
ENDROOT
BRANCH  14  16
ATOM     16  C   UNL     1       3.262   5.637  18.277  0.00  0.00    +0.000 A 
ATOM     17  C   UNL     1       2.726   4.431  17.803  0.00  0.00    +0.000 A 
ATOM     18  C   UNL     1       3.425   3.679  16.855  0.00  0.00    +0.000 A 
ATOM     19  C   UNL     1       4.677   4.105  16.410  0.00  0.00    +0.000 A 
ATOM     20  C   UNL     1       5.223   5.285  16.910  0.00  0.00    +0.000 A 
ATOM     21 CL   UNL     1       6.790   5.786  16.405  0.00  0.00    +0.000 Cl
ATOM     22  C   UNL     1       4.520   6.057  17.835  0.00  0.00    +0.000 A 
ENDBRANCH  14  16
BRANCH   7  23
ATOM     23  S   UNL     1      -0.943  13.341  21.308  0.00  0.00    +0.000 S 
ATOM     24  O   UNL     1      -0.596  13.847  22.630  0.00  0.00    +0.000 OA
ATOM     25  O   UNL     1      -0.648  14.171  20.152  0.00  0.00    +0.000 OA
BRANCH  23  26
ATOM     26  C   UNL     1      -2.699  13.077  21.348  0.00  0.00    +0.000 A 
ATOM     27  C   UNL     1      -3.396  13.217  22.553  0.00  0.00    +0.000 A 
ATOM     28  C   UNL     1      -4.772  12.992  22.578  0.00  0.00    +0.000 A 
ATOM     29  C   UNL     1      -5.445  12.643  21.404  0.00  0.00    +0.000 A 
ATOM     30  C   UNL     1      -4.752  12.548  20.197  0.00  0.00    +0.000 A 
ATOM     31  C   UNL     1      -3.380  12.784  20.162  0.00  0.00    +0.000 A 
ENDBRANCH  23  26
ENDBRANCH   7  23
TORSDOF 3
ENDMDL
