MODEL 1
REMARK VINA RESULT:      -8.1      0.000      0.000
REMARK  Name = 
REMARK  7 active torsions:
REMARK  status: ('A' for Active; 'I' for Inactive)
REMARK    1  A    between atoms: N_1  and  C_2
REMARK    2  A    between atoms: C_2  and  C_3
REMARK    3  A    between atoms: C_5  and  C_6
REMARK    4  A    between atoms: C_6  and  C_8
REMARK    5  A    between atoms: C_17  and  C_18
REMARK    6  A    between atoms: C_18  and  O_20
REMARK    7  A    between atoms: C_24  and  O_25
REMARK                            x       y       z     vdW  Elec       q    Type
REMARK                         _______ _______ _______ _____ _____    ______ ____
ROOT
ATOM      1  C   UNL     1       2.344   6.568  19.482  0.00  0.00    +0.000 A 
ATOM      2  C   UNL     1       1.624   6.798  20.674  0.00  0.00    +0.000 A 
ATOM      3  C   UNL     1       1.001   8.019  20.851  0.00  0.00    +0.000 A 
ATOM      4  C   UNL     1       1.131   9.014  19.901  0.00  0.00    +0.000 A 
ATOM      5  C   UNL     1       1.928   8.861  18.775  0.00  0.00    +0.000 A 
ATOM      6 CL   UNL     1       2.111  10.211  17.708  0.00  0.00    +0.000 Cl
ATOM      7  C   UNL     1       2.537   7.615  18.548  0.00  0.00    +0.000 A 
ATOM      8 CL   UNL     1       3.455   7.373  17.094  0.00  0.00    +0.000 Cl
ATOM      9  O   UNL     1       0.398  10.136  20.188  0.00  0.00    +0.000 OA
ATOM     10  C   UNL     1      -0.376   9.792  21.370  0.00  0.00    +0.000 C 
ATOM     11  C   UNL     1       0.162   8.494  21.977  0.00  0.00    +0.000 C 
ENDROOT
BRANCH   1  12
ATOM     12  C   UNL     1       2.873   5.196  19.240  0.00  0.00    +0.000 C 
ATOM     13  O   UNL     1       2.165   4.224  19.480  0.00  0.00    +0.000 OA
BRANCH  12  16
ATOM     14  C   UNL     1       6.660   5.325  18.669  0.00  0.00    +0.000 A 
ATOM     15  C   UNL     1       5.394   5.489  19.261  0.00  0.00    +0.000 A 
ATOM     16  C   UNL     1       4.234   4.986  18.658  0.00  0.00    +0.000 A 
ATOM     17  C   UNL     1       4.346   4.266  17.463  0.00  0.00    +0.000 A 
ATOM     18  C   UNL     1       5.594   4.093  16.859  0.00  0.00    +0.000 A 
ATOM     19  C   UNL     1       6.734   4.633  17.454  0.00  0.00    +0.000 A 
BRANCH  19  20
ATOM     20  O   UNL     1       7.951   4.490  16.849  0.00  0.00    +0.000 OA
ATOM     21  H   UNL     1       8.283   5.368  16.596  0.00  0.00    +0.000 HD
ENDBRANCH  19  20
BRANCH  14  22
ATOM     22  C   UNL     1       7.890   5.944  19.290  0.00  0.00    +0.000 C 
BRANCH  22  23
ATOM     23  N   UNL     1       8.255   5.321  20.566  0.00  0.00    +0.000 NA
ATOM     24  H   UNL     1       9.129   5.738  20.886  0.00  0.00    +0.000 HD
ATOM     25  H   UNL     1       8.470   4.341  20.383  0.00  0.00    +0.000 HD
ENDBRANCH  22  23
ENDBRANCH  14  22
ENDBRANCH  12  16
ENDBRANCH   1  12
BRANCH  10  26
ATOM     26  C   UNL     1      -0.277  10.984  22.305  0.00  0.00    +0.000 C 
ATOM     27  O   UNL     1      -0.822  11.056  23.401  0.00  0.00    +0.000 OA
BRANCH  26  28
ATOM     28  O   UNL     1       0.444  12.007  21.778  0.00  0.00    +0.000 OA
ATOM     29  H   UNL     1       0.598  12.701  22.456  0.00  0.00    +0.000 HD
ENDBRANCH  26  28
ENDBRANCH  10  26
TORSDOF 7
ENDMDL
MODEL 2
REMARK VINA RESULT:      -8.0      2.400      3.163
REMARK  Name = 
REMARK  7 active torsions:
REMARK  status: ('A' for Active; 'I' for Inactive)
REMARK    1  A    between atoms: N_1  and  C_2
REMARK    2  A    between atoms: C_2  and  C_3
REMARK    3  A    between atoms: C_5  and  C_6
REMARK    4  A    between atoms: C_6  and  C_8
REMARK    5  A    between atoms: C_17  and  C_18
REMARK    6  A    between atoms: C_18  and  O_20
REMARK    7  A    between atoms: C_24  and  O_25
REMARK                            x       y       z     vdW  Elec       q    Type
REMARK                         _______ _______ _______ _____ _____    ______ ____
ROOT
ATOM      1  C   UNL     1       2.194   6.808  18.607  0.00  0.00    +0.000 A 
ATOM      2  C   UNL     1       2.126   7.938  17.765  0.00  0.00    +0.000 A 
ATOM      3  C   UNL     1       1.815   9.166  18.321  0.00  0.00    +0.000 A 
ATOM      4  C   UNL     1       1.521   9.268  19.667  0.00  0.00    +0.000 A 
ATOM      5  C   UNL     1       1.464   8.157  20.498  0.00  0.00    +0.000 A 
ATOM      6 CL   UNL     1       0.975   8.386  22.141  0.00  0.00    +0.000 Cl
ATOM      7  C   UNL     1       1.820   6.905  19.968  0.00  0.00    +0.000 A 
ATOM      8 CL   UNL     1       1.852   5.521  21.017  0.00  0.00    +0.000 Cl
ATOM      9  O   UNL     1       1.303  10.558  20.077  0.00  0.00    +0.000 OA
ATOM     10  C   UNL     1       1.604  11.381  18.916  0.00  0.00    +0.000 C 
ATOM     11  C   UNL     1       1.718  10.496  17.673  0.00  0.00    +0.000 C 
ENDROOT
BRANCH   1  12
ATOM     12  C   UNL     1       2.685   5.530  18.019  0.00  0.00    +0.000 C 
ATOM     13  O   UNL     1       1.878   4.686  17.645  0.00  0.00    +0.000 OA
BRANCH  12  16
ATOM     14  C   UNL     1       6.076   4.724  16.425  0.00  0.00    +0.000 A 
ATOM     15  C   UNL     1       4.705   5.008  16.574  0.00  0.00    +0.000 A 
ATOM     16  C   UNL     1       4.147   5.280  17.829  0.00  0.00    +0.000 A 
ATOM     17  C   UNL     1       4.982   5.310  18.952  0.00  0.00    +0.000 A 
ATOM     18  C   UNL     1       6.345   5.029  18.825  0.00  0.00    +0.000 A 
ATOM     19  C   UNL     1       6.877   4.724  17.573  0.00  0.00    +0.000 A 
BRANCH  19  20
ATOM     20  O   UNL     1       8.204   4.421  17.452  0.00  0.00    +0.000 OA
ATOM     21  H   UNL     1       8.728   5.214  17.653  0.00  0.00    +0.000 HD
ENDBRANCH  19  20
BRANCH  14  22
ATOM     22  C   UNL     1       6.646   4.353  15.076  0.00  0.00    +0.000 C 
BRANCH  22  23
ATOM     23  N   UNL     1       7.588   5.354  14.564  0.00  0.00    +0.000 NA
ATOM     24  H   UNL     1       7.227   6.278  14.795  0.00  0.00    +0.000 HD
ATOM     25  H   UNL     1       7.574   5.301  13.546  0.00  0.00    +0.000 HD
ENDBRANCH  22  23
ENDBRANCH  14  22
ENDBRANCH  12  16
ENDBRANCH   1  12
BRANCH  10  26
ATOM     26  C   UNL     1       0.493  12.411  18.826  0.00  0.00    +0.000 C 
ATOM     27  O   UNL     1       0.363  13.363  19.588  0.00  0.00    +0.000 OA
BRANCH  26  28
ATOM     28  O   UNL     1      -0.393  12.143  17.833  0.00  0.00    +0.000 OA
ATOM     29  H   UNL     1      -0.790  12.976  17.495  0.00  0.00    +0.000 HD
ENDBRANCH  26  28
ENDBRANCH  10  26
TORSDOF 7
ENDMDL
MODEL 3
REMARK VINA RESULT:      -7.9      2.074      2.578
REMARK  Name = 
REMARK  7 active torsions:
REMARK  status: ('A' for Active; 'I' for Inactive)
REMARK    1  A    between atoms: N_1  and  C_2
REMARK    2  A    between atoms: C_2  and  C_3
REMARK    3  A    between atoms: C_5  and  C_6
REMARK    4  A    between atoms: C_6  and  C_8
REMARK    5  A    between atoms: C_17  and  C_18
REMARK    6  A    between atoms: C_18  and  O_20
REMARK    7  A    between atoms: C_24  and  O_25
REMARK                            x       y       z     vdW  Elec       q    Type
REMARK                         _______ _______ _______ _____ _____    ______ ____
ROOT
ATOM      1  C   UNL     1       2.196   6.507  18.641  0.00  0.00    +0.000 A 
ATOM      2  C   UNL     1       2.130   7.626  17.784  0.00  0.00    +0.000 A 
ATOM      3  C   UNL     1       1.835   8.864  18.325  0.00  0.00    +0.000 A 
ATOM      4  C   UNL     1       1.555   8.988  19.672  0.00  0.00    +0.000 A 
ATOM      5  C   UNL     1       1.496   7.890  20.519  0.00  0.00    +0.000 A 
ATOM      6 CL   UNL     1       1.024   8.145  22.164  0.00  0.00    +0.000 Cl
ATOM      7  C   UNL     1       1.835   6.627  20.004  0.00  0.00    +0.000 A 
ATOM      8 CL   UNL     1       1.865   5.257  21.072  0.00  0.00    +0.000 Cl
ATOM      9  O   UNL     1       1.353  10.285  20.066  0.00  0.00    +0.000 OA
ATOM     10  C   UNL     1       1.650  11.089  18.891  0.00  0.00    +0.000 C 
ATOM     11  C   UNL     1       1.745  10.185  17.659  0.00  0.00    +0.000 C 
ENDROOT
BRANCH   1  12
ATOM     12  C   UNL     1       2.669   5.216  18.067  0.00  0.00    +0.000 C 
ATOM     13  O   UNL     1       1.855   4.341  17.791  0.00  0.00    +0.000 OA
BRANCH  12  16
ATOM     14  C   UNL     1       6.496   5.365  18.222  0.00  0.00    +0.000 A 
ATOM     15  C   UNL     1       5.139   5.549  18.549  0.00  0.00    +0.000 A 
ATOM     16  C   UNL     1       4.117   4.988  17.771  0.00  0.00    +0.000 A 
ATOM     17  C   UNL     1       4.458   4.193  16.671  0.00  0.00    +0.000 A 
ATOM     18  C   UNL     1       5.799   3.999  16.330  0.00  0.00    +0.000 A 
ATOM     19  C   UNL     1       6.803   4.596  17.094  0.00  0.00    +0.000 A 
BRANCH  19  20
ATOM     20  O   UNL     1       8.113   4.431  16.744  0.00  0.00    +0.000 OA
ATOM     21  H   UNL     1       8.627   5.184  17.083  0.00  0.00    +0.000 HD
ENDBRANCH  19  20
BRANCH  14  22
ATOM     22  C   UNL     1       7.582   6.043  19.023  0.00  0.00    +0.000 C 
BRANCH  22  23
ATOM     23  N   UNL     1       7.865   5.358  20.288  0.00  0.00    +0.000 NA
ATOM     24  H   UNL     1       7.918   6.059  21.026  0.00  0.00    +0.000 HD
ATOM     25  H   UNL     1       8.801   4.958  20.222  0.00  0.00    +0.000 HD
ENDBRANCH  22  23
ENDBRANCH  14  22
ENDBRANCH  12  16
ENDBRANCH   1  12
BRANCH  10  26
ATOM     26  C   UNL     1       0.548  12.128  18.797  0.00  0.00    +0.000 C 
ATOM     27  O   UNL     1      -0.465  12.133  19.488  0.00  0.00    +0.000 OA
BRANCH  26  28
ATOM     28  O   UNL     1       0.770  13.043  17.818  0.00  0.00    +0.000 OA
ATOM     29  H   UNL     1       0.128  12.921  17.085  0.00  0.00    +0.000 HD
ENDBRANCH  26  28
ENDBRANCH  10  26
TORSDOF 7
ENDMDL
MODEL 4
REMARK VINA RESULT:      -7.7      3.379      7.817
REMARK  Name = 
REMARK  7 active torsions:
REMARK  status: ('A' for Active; 'I' for Inactive)
REMARK    1  A    between atoms: N_1  and  C_2
REMARK    2  A    between atoms: C_2  and  C_3
REMARK    3  A    between atoms: C_5  and  C_6
REMARK    4  A    between atoms: C_6  and  C_8
REMARK    5  A    between atoms: C_17  and  C_18
REMARK    6  A    between atoms: C_18  and  O_20
REMARK    7  A    between atoms: C_24  and  O_25
REMARK                            x       y       z     vdW  Elec       q    Type
REMARK                         _______ _______ _______ _____ _____    ______ ____
ROOT
ATOM      1  C   UNL     1       2.708   6.028  19.039  0.00  0.00    +0.000 A 
ATOM      2  C   UNL     1       3.775   6.584  18.300  0.00  0.00    +0.000 A 
ATOM      3  C   UNL     1       4.360   5.827  17.302  0.00  0.00    +0.000 A 
ATOM      4  C   UNL     1       3.941   4.531  17.073  0.00  0.00    +0.000 A 
ATOM      5  C   UNL     1       2.977   3.915  17.859  0.00  0.00    +0.000 A 
ATOM      6 CL   UNL     1       2.610   2.251  17.557  0.00  0.00    +0.000 Cl
ATOM      7  C   UNL     1       2.335   4.676  18.851  0.00  0.00    +0.000 A 
ATOM      8 CL   UNL     1       1.055   3.954  19.776  0.00  0.00    +0.000 Cl
ATOM      9  O   UNL     1       4.568   3.940  16.006  0.00  0.00    +0.000 OA
ATOM     10  C   UNL     1       5.379   4.991  15.412  0.00  0.00    +0.000 C 
ATOM     11  C   UNL     1       5.454   6.185  16.367  0.00  0.00    +0.000 C 
ENDROOT
BRANCH   1  12
ATOM     12  C   UNL     1       1.989   6.913  19.998  0.00  0.00    +0.000 C 
ATOM     13  O   UNL     1       1.745   6.507  21.129  0.00  0.00    +0.000 OA
BRANCH  12  16
ATOM     14  C   UNL     1       0.644  10.498  20.152  0.00  0.00    +0.000 A 
ATOM     15  C   UNL     1       1.046   9.206  20.540  0.00  0.00    +0.000 A 
ATOM     16  C   UNL     1       1.607   8.308  19.622  0.00  0.00    +0.000 A 
ATOM     17  C   UNL     1       1.809   8.725  18.301  0.00  0.00    +0.000 A 
ATOM     18  C   UNL     1       1.416  10.003  17.896  0.00  0.00    +0.000 A 
ATOM     19  C   UNL     1       0.825  10.871  18.815  0.00  0.00    +0.000 A 
BRANCH  19  20
ATOM     20  O   UNL     1       0.414  12.110  18.413  0.00  0.00    +0.000 OA
ATOM     21  H   UNL     1       0.239  12.655  19.200  0.00  0.00    +0.000 HD
ENDBRANCH  19  20
BRANCH  14  22
ATOM     22  C   UNL     1      -0.034  11.424  21.134  0.00  0.00    +0.000 C 
BRANCH  22  23
ATOM     23  N   UNL     1       0.786  12.593  21.469  0.00  0.00    +0.000 NA
ATOM     24  H   UNL     1       0.456  12.970  22.357  0.00  0.00    +0.000 HD
ATOM     25  H   UNL     1       0.592  13.317  20.776  0.00  0.00    +0.000 HD
ENDBRANCH  22  23
ENDBRANCH  14  22
ENDBRANCH  12  16
ENDBRANCH   1  12
BRANCH  10  26
ATOM     26  C   UNL     1       6.730   4.368  15.113  0.00  0.00    +0.000 C 
ATOM     27  O   UNL     1       7.745   4.557  15.775  0.00  0.00    +0.000 OA
BRANCH  26  28
ATOM     28  O   UNL     1       6.721   3.608  13.988  0.00  0.00    +0.000 OA
ATOM     29  H   UNL     1       7.381   2.884  14.060  0.00  0.00    +0.000 HD
ENDBRANCH  26  28
ENDBRANCH  10  26
TORSDOF 7
ENDMDL
MODEL 5
REMARK VINA RESULT:      -7.7      4.489      6.212
REMARK  Name = 
REMARK  7 active torsions:
REMARK  status: ('A' for Active; 'I' for Inactive)
REMARK    1  A    between atoms: N_1  and  C_2
REMARK    2  A    between atoms: C_2  and  C_3
REMARK    3  A    between atoms: C_5  and  C_6
REMARK    4  A    between atoms: C_6  and  C_8
REMARK    5  A    between atoms: C_17  and  C_18
REMARK    6  A    between atoms: C_18  and  O_20
REMARK    7  A    between atoms: C_24  and  O_25
REMARK                            x       y       z     vdW  Elec       q    Type
REMARK                         _______ _______ _______ _____ _____    ______ ____
ROOT
ATOM      1  C   UNL     1       5.625   4.751  16.992  0.00  0.00    +0.000 A 
ATOM      2  C   UNL     1       4.904   3.590  17.341  0.00  0.00    +0.000 A 
ATOM      3  C   UNL     1       3.637   3.727  17.878  0.00  0.00    +0.000 A 
ATOM      4  C   UNL     1       3.114   4.983  18.119  0.00  0.00    +0.000 A 
ATOM      5  C   UNL     1       3.844   6.143  17.898  0.00  0.00    +0.000 A 
ATOM      6 CL   UNL     1       3.134   7.657  18.343  0.00  0.00    +0.000 Cl
ATOM      7  C   UNL     1       5.116   6.033  17.311  0.00  0.00    +0.000 A 
ATOM      8 CL   UNL     1       6.002   7.478  16.933  0.00  0.00    +0.000 Cl
ATOM      9  O   UNL     1       1.825   4.952  18.586  0.00  0.00    +0.000 OA
ATOM     10  C   UNL     1       1.433   3.553  18.525  0.00  0.00    +0.000 C 
ATOM     11  C   UNL     1       2.669   2.682  18.286  0.00  0.00    +0.000 C 
ENDROOT
BRANCH   1  12
ATOM     12  C   UNL     1       6.917   4.580  16.270  0.00  0.00    +0.000 C 
ATOM     13  O   UNL     1       7.951   4.415  16.910  0.00  0.00    +0.000 OA
BRANCH  12  16
ATOM     14  C   UNL     1       6.271   3.641  12.611  0.00  0.00    +0.000 A 
ATOM     15  C   UNL     1       6.169   3.689  14.014  0.00  0.00    +0.000 A 
ATOM     16  C   UNL     1       6.968   4.551  14.777  0.00  0.00    +0.000 A 
ATOM     17  C   UNL     1       7.856   5.413  14.121  0.00  0.00    +0.000 A 
ATOM     18  C   UNL     1       7.972   5.379  12.729  0.00  0.00    +0.000 A 
ATOM     19  C   UNL     1       7.195   4.488  11.989  0.00  0.00    +0.000 A 
BRANCH  19  20
ATOM     20  O   UNL     1       7.329   4.434  10.630  0.00  0.00    +0.000 OA
ATOM     21  H   UNL     1       6.614   3.885  10.264  0.00  0.00    +0.000 HD
ENDBRANCH  19  20
BRANCH  14  22
ATOM     22  C   UNL     1       5.461   2.648  11.811  0.00  0.00    +0.000 C 
BRANCH  22  23
ATOM     23  N   UNL     1       6.250   1.490  11.379  0.00  0.00    +0.000 NA
ATOM     24  H   UNL     1       6.611   1.023  12.210  0.00  0.00    +0.000 HD
ATOM     25  H   UNL     1       7.070   1.841  10.884  0.00  0.00    +0.000 HD
ENDBRANCH  22  23
ENDBRANCH  14  22
ENDBRANCH  12  16
ENDBRANCH   1  12
BRANCH  10  26
ATOM     26  C   UNL     1       0.723   3.253  19.832  0.00  0.00    +0.000 C 
ATOM     27  O   UNL     1       0.972   3.801  20.901  0.00  0.00    +0.000 OA
BRANCH  26  28
ATOM     28  O   UNL     1      -0.197   2.261  19.715  0.00  0.00    +0.000 OA
ATOM     29  H   UNL     1      -0.020   1.724  18.912  0.00  0.00    +0.000 HD
ENDBRANCH  26  28
ENDBRANCH  10  26
TORSDOF 7
ENDMDL
MODEL 6
REMARK VINA RESULT:      -7.7      1.380      1.937
REMARK  Name = 
REMARK  7 active torsions:
REMARK  status: ('A' for Active; 'I' for Inactive)
REMARK    1  A    between atoms: N_1  and  C_2
REMARK    2  A    between atoms: C_2  and  C_3
REMARK    3  A    between atoms: C_5  and  C_6
REMARK    4  A    between atoms: C_6  and  C_8
REMARK    5  A    between atoms: C_17  and  C_18
REMARK    6  A    between atoms: C_18  and  O_20
REMARK    7  A    between atoms: C_24  and  O_25
REMARK                            x       y       z     vdW  Elec       q    Type
REMARK                         _______ _______ _______ _____ _____    ______ ____
ROOT
ATOM      1  C   UNL     1       2.341   6.547  19.132  0.00  0.00    +0.000 A 
ATOM      2  C   UNL     1       1.643   6.593  20.358  0.00  0.00    +0.000 A 
ATOM      3  C   UNL     1       1.030   7.774  20.732  0.00  0.00    +0.000 A 
ATOM      4  C   UNL     1       1.150   8.903  19.944  0.00  0.00    +0.000 A 
ATOM      5  C   UNL     1       1.927   8.923  18.795  0.00  0.00    +0.000 A 
ATOM      6 CL   UNL     1       2.100  10.421  17.946  0.00  0.00    +0.000 Cl
ATOM      7  C   UNL     1       2.524   7.725  18.368  0.00  0.00    +0.000 A 
ATOM      8 CL   UNL     1       3.416   7.706  16.878  0.00  0.00    +0.000 Cl
ATOM      9  O   UNL     1       0.429   9.970  20.414  0.00  0.00    +0.000 OA
ATOM     10  C   UNL     1      -0.326   9.450  21.543  0.00  0.00    +0.000 C 
ATOM     11  C   UNL     1       0.213   8.072  21.933  0.00  0.00    +0.000 C 
ENDROOT
BRANCH   1  12
ATOM     12  C   UNL     1       2.857   5.227  18.672  0.00  0.00    +0.000 C 
ATOM     13  O   UNL     1       2.086   4.280  18.563  0.00  0.00    +0.000 OA
BRANCH  12  16
ATOM     14  C   UNL     1       6.040   4.531  16.654  0.00  0.00    +0.000 A 
ATOM     15  C   UNL     1       4.688   4.745  16.982  0.00  0.00    +0.000 A 
ATOM     16  C   UNL     1       4.292   5.050  18.290  0.00  0.00    +0.000 A 
ATOM     17  C   UNL     1       5.270   5.187  19.283  0.00  0.00    +0.000 A 
ATOM     18  C   UNL     1       6.617   4.977  18.978  0.00  0.00    +0.000 A 
ATOM     19  C   UNL     1       6.990   4.637  17.677  0.00  0.00    +0.000 A 
BRANCH  19  20
ATOM     20  O   UNL     1       8.304   4.404  17.384  0.00  0.00    +0.000 OA
ATOM     21  H   UNL     1       8.835   4.541  18.187  0.00  0.00    +0.000 HD
ENDBRANCH  19  20
BRANCH  14  22
ATOM     22  C   UNL     1       6.442   4.123  15.257  0.00  0.00    +0.000 C 
BRANCH  22  23
ATOM     23  N   UNL     1       7.366   5.075  14.632  0.00  0.00    +0.000 NA
ATOM     24  H   UNL     1       8.317   4.746  14.789  0.00  0.00    +0.000 HD
ATOM     25  H   UNL     1       7.293   5.957  15.139  0.00  0.00    +0.000 HD
ENDBRANCH  22  23
ENDBRANCH  14  22
ENDBRANCH  12  16
ENDBRANCH   1  12
BRANCH  10  26
ATOM     26  C   UNL     1      -0.205  10.484  22.648  0.00  0.00    +0.000 C 
ATOM     27  O   UNL     1      -0.346  11.691  22.490  0.00  0.00    +0.000 OA
BRANCH  26  28
ATOM     28  O   UNL     1       0.135   9.937  23.844  0.00  0.00    +0.000 OA
ATOM     29  H   UNL     1       0.083  10.612  24.555  0.00  0.00    +0.000 HD
ENDBRANCH  26  28
ENDBRANCH  10  26
TORSDOF 7
ENDMDL
MODEL 7
REMARK VINA RESULT:      -7.7      4.767      6.338
REMARK  Name = 
REMARK  7 active torsions:
REMARK  status: ('A' for Active; 'I' for Inactive)
REMARK    1  A    between atoms: N_1  and  C_2
REMARK    2  A    between atoms: C_2  and  C_3
REMARK    3  A    between atoms: C_5  and  C_6
REMARK    4  A    between atoms: C_6  and  C_8
REMARK    5  A    between atoms: C_17  and  C_18
REMARK    6  A    between atoms: C_18  and  O_20
REMARK    7  A    between atoms: C_24  and  O_25
REMARK                            x       y       z     vdW  Elec       q    Type
REMARK                         _______ _______ _______ _____ _____    ______ ____
ROOT
ATOM      1  C   UNL     1       5.764   4.583  17.219  0.00  0.00    +0.000 A 
ATOM      2  C   UNL     1       5.558   3.502  18.103  0.00  0.00    +0.000 A 
ATOM      3  C   UNL     1       4.336   3.386  18.739  0.00  0.00    +0.000 A 
ATOM      4  C   UNL     1       3.358   4.343  18.552  0.00  0.00    +0.000 A 
ATOM      5  C   UNL     1       3.572   5.479  17.783  0.00  0.00    +0.000 A 
ATOM      6 CL   UNL     1       2.318   6.670  17.710  0.00  0.00    +0.000 Cl
ATOM      7  C   UNL     1       4.788   5.600  17.090  0.00  0.00    +0.000 A 
ATOM      8 CL   UNL     1       5.034   6.963  16.043  0.00  0.00    +0.000 Cl
ATOM      9  O   UNL     1       2.182   4.048  19.194  0.00  0.00    +0.000 OA
ATOM     10  C   UNL     1       2.375   2.717  19.746  0.00  0.00    +0.000 C 
ATOM     11  C   UNL     1       3.856   2.338  19.671  0.00  0.00    +0.000 C 
ENDROOT
BRANCH   1  12
ATOM     12  C   UNL     1       7.025   4.603  16.424  0.00  0.00    +0.000 C 
ATOM     13  O   UNL     1       8.106   4.595  17.004  0.00  0.00    +0.000 OA
BRANCH  12  16
ATOM     14  C   UNL     1       6.178   3.677  12.803  0.00  0.00    +0.000 A 
ATOM     15  C   UNL     1       6.152   3.722  14.210  0.00  0.00    +0.000 A 
ATOM     16  C   UNL     1       6.995   4.578  14.930  0.00  0.00    +0.000 A 
ATOM     17  C   UNL     1       7.850   5.438  14.230  0.00  0.00    +0.000 A 
ATOM     18  C   UNL     1       7.890   5.408  12.833  0.00  0.00    +0.000 A 
ATOM     19  C   UNL     1       7.070   4.522  12.134  0.00  0.00    +0.000 A 
BRANCH  19  20
ATOM     20  O   UNL     1       7.130   4.472  10.770  0.00  0.00    +0.000 OA
ATOM     21  H   UNL     1       7.296   3.554  10.495  0.00  0.00    +0.000 HD
ENDBRANCH  19  20
BRANCH  14  22
ATOM     22  C   UNL     1       5.321   2.690  12.046  0.00  0.00    +0.000 C 
BRANCH  22  23
ATOM     23  N   UNL     1       4.198   3.330  11.352  0.00  0.00    +0.000 NA
ATOM     24  H   UNL     1       3.601   2.598  10.969  0.00  0.00    +0.000 HD
ATOM     25  H   UNL     1       4.574   3.826  10.545  0.00  0.00    +0.000 HD
ENDBRANCH  22  23
ENDBRANCH  14  22
ENDBRANCH  12  16
ENDBRANCH   1  12
BRANCH  10  26
ATOM     26  C   UNL     1       1.831   2.761  21.162  0.00  0.00    +0.000 C 
ATOM     27  O   UNL     1       2.516   2.662  22.174  0.00  0.00    +0.000 OA
BRANCH  26  28
ATOM     28  O   UNL     1       0.478   2.871  21.202  0.00  0.00    +0.000 OA
ATOM     29  H   UNL     1       0.185   3.665  20.703  0.00  0.00    +0.000 HD
ENDBRANCH  26  28
ENDBRANCH  10  26
TORSDOF 7
ENDMDL
MODEL 8
REMARK VINA RESULT:      -7.6      3.668      8.001
REMARK  Name = 
REMARK  7 active torsions:
REMARK  status: ('A' for Active; 'I' for Inactive)
REMARK    1  A    between atoms: N_1  and  C_2
REMARK    2  A    between atoms: C_2  and  C_3
REMARK    3  A    between atoms: C_5  and  C_6
REMARK    4  A    between atoms: C_6  and  C_8
REMARK    5  A    between atoms: C_17  and  C_18
REMARK    6  A    between atoms: C_18  and  O_20
REMARK    7  A    between atoms: C_24  and  O_25
REMARK                            x       y       z     vdW  Elec       q    Type
REMARK                         _______ _______ _______ _____ _____    ______ ____
ROOT
ATOM      1  C   UNL     1       1.320   8.664  20.062  0.00  0.00    +0.000 A 
ATOM      2  C   UNL     1       1.138   7.474  20.799  0.00  0.00    +0.000 A 
ATOM      3  C   UNL     1       1.821   6.337  20.409  0.00  0.00    +0.000 A 
ATOM      4  C   UNL     1       2.622   6.356  19.283  0.00  0.00    +0.000 A 
ATOM      5  C   UNL     1       2.729   7.476  18.471  0.00  0.00    +0.000 A 
ATOM      6 CL   UNL     1       3.669   7.354  17.023  0.00  0.00    +0.000 Cl
ATOM      7  C   UNL     1       2.081   8.657  18.869  0.00  0.00    +0.000 A 
ATOM      8 CL   UNL     1       2.286  10.097  17.919  0.00  0.00    +0.000 Cl
ATOM      9  O   UNL     1       3.284   5.174  19.071  0.00  0.00    +0.000 OA
ATOM     10  C   UNL     1       2.981   4.354  20.232  0.00  0.00    +0.000 C 
ATOM     11  C   UNL     1       1.836   4.989  21.026  0.00  0.00    +0.000 C 
ENDROOT
BRANCH   1  12
ATOM     12  C   UNL     1       0.703   9.913  20.591  0.00  0.00    +0.000 C 
ATOM     13  O   UNL     1       1.229  10.497  21.532  0.00  0.00    +0.000 OA
BRANCH  12  16
ATOM     14  C   UNL     1      -2.152  10.627  18.137  0.00  0.00    +0.000 A 
ATOM     15  C   UNL     1      -1.031  10.029  18.741  0.00  0.00    +0.000 A 
ATOM     16  C   UNL     1      -0.519  10.497  19.958  0.00  0.00    +0.000 A 
ATOM     17  C   UNL     1      -1.165  11.557  20.605  0.00  0.00    +0.000 A 
ATOM     18  C   UNL     1      -2.279  12.165  20.020  0.00  0.00    +0.000 A 
ATOM     19  C   UNL     1      -2.753  11.710  18.790  0.00  0.00    +0.000 A 
BRANCH  19  20
ATOM     20  O   UNL     1      -3.824  12.322  18.204  0.00  0.00    +0.000 OA
ATOM     21  H   UNL     1      -4.135  13.038  18.784  0.00  0.00    +0.000 HD
ENDBRANCH  19  20
BRANCH  14  22
ATOM     22  C   UNL     1      -2.641  10.163  16.785  0.00  0.00    +0.000 C 
BRANCH  22  23
ATOM     23  N   UNL     1      -2.575  11.215  15.766  0.00  0.00    +0.000 NA
ATOM     24  H   UNL     1      -2.076  10.846  14.958  0.00  0.00    +0.000 HD
ATOM     25  H   UNL     1      -1.987  11.965  16.132  0.00  0.00    +0.000 HD
ENDBRANCH  22  23
ENDBRANCH  14  22
ENDBRANCH  12  16
ENDBRANCH   1  12
BRANCH  10  26
ATOM     26  C   UNL     1       2.656   2.970  19.703  0.00  0.00    +0.000 C 
ATOM     27  O   UNL     1       1.598   2.380  19.898  0.00  0.00    +0.000 OA
BRANCH  26  28
ATOM     28  O   UNL     1       3.690   2.411  19.023  0.00  0.00    +0.000 OA
ATOM     29  H   UNL     1       3.580   2.552  18.057  0.00  0.00    +0.000 HD
ENDBRANCH  26  28
ENDBRANCH  10  26
TORSDOF 7
ENDMDL
MODEL 9
REMARK VINA RESULT:      -7.6      3.526      7.742
REMARK  Name = 
REMARK  7 active torsions:
REMARK  status: ('A' for Active; 'I' for Inactive)
REMARK    1  A    between atoms: N_1  and  C_2
REMARK    2  A    between atoms: C_2  and  C_3
REMARK    3  A    between atoms: C_5  and  C_6
REMARK    4  A    between atoms: C_6  and  C_8
REMARK    5  A    between atoms: C_17  and  C_18
REMARK    6  A    between atoms: C_18  and  O_20
REMARK    7  A    between atoms: C_24  and  O_25
REMARK                            x       y       z     vdW  Elec       q    Type
REMARK                         _______ _______ _______ _____ _____    ______ ____
ROOT
ATOM      1  C   UNL     1       1.749   7.570  20.037  0.00  0.00    +0.000 A 
ATOM      2  C   UNL     1       1.520   6.311  20.631  0.00  0.00    +0.000 A 
ATOM      3  C   UNL     1       2.166   5.203  20.114  0.00  0.00    +0.000 A 
ATOM      4  C   UNL     1       2.976   5.323  19.001  0.00  0.00    +0.000 A 
ATOM      5  C   UNL     1       3.128   6.525  18.324  0.00  0.00    +0.000 A 
ATOM      6 CL   UNL     1       4.075   6.537  16.876  0.00  0.00    +0.000 Cl
ATOM      7  C   UNL     1       2.519   7.675  18.853  0.00  0.00    +0.000 A 
ATOM      8 CL   UNL     1       2.781   9.206  18.077  0.00  0.00    +0.000 Cl
ATOM      9  O   UNL     1       3.598   4.151  18.656  0.00  0.00    +0.000 OA
ATOM     10  C   UNL     1       3.258   3.214  19.714  0.00  0.00    +0.000 C 
ATOM     11  C   UNL     1       2.129   3.793  20.571  0.00  0.00    +0.000 C 
ENDROOT
BRANCH   1  12
ATOM     12  C   UNL     1       1.171   8.771  20.704  0.00  0.00    +0.000 C 
ATOM     13  O   UNL     1       1.314   8.920  21.913  0.00  0.00    +0.000 OA
BRANCH  12  16
ATOM     14  C   UNL     1      -1.288  10.549  18.363  0.00  0.00    +0.000 A 
ATOM     15  C   UNL     1      -0.669   9.551  19.140  0.00  0.00    +0.000 A 
ATOM     16  C   UNL     1       0.465   9.826  19.915  0.00  0.00    +0.000 A 
ATOM     17  C   UNL     1       0.965  11.133  19.948  0.00  0.00    +0.000 A 
ATOM     18  C   UNL     1       0.365  12.137  19.183  0.00  0.00    +0.000 A 
ATOM     19  C   UNL     1      -0.741  11.837  18.388  0.00  0.00    +0.000 A 
BRANCH  19  20
ATOM     20  O   UNL     1      -1.310  12.811  17.617  0.00  0.00    +0.000 OA
ATOM     21  H   UNL     1      -1.381  12.488  16.703  0.00  0.00    +0.000 HD
ENDBRANCH  19  20
BRANCH  14  22
ATOM     22  C   UNL     1      -2.459  10.216  17.469  0.00  0.00    +0.000 C 
BRANCH  22  23
ATOM     23  N   UNL     1      -2.222  10.574  16.067  0.00  0.00    +0.000 NA
ATOM     24  H   UNL     1      -1.541  11.332  16.042  0.00  0.00    +0.000 HD
ATOM     25  H   UNL     1      -3.086  10.971  15.697  0.00  0.00    +0.000 HD
ENDBRANCH  22  23
ENDBRANCH  14  22
ENDBRANCH  12  16
ENDBRANCH   1  12
BRANCH  10  26
ATOM     26  C   UNL     1       2.890   1.912  19.027  0.00  0.00    +0.000 C 
ATOM     27  O   UNL     1       3.690   1.167  18.472  0.00  0.00    +0.000 OA
BRANCH  26  28
ATOM     28  O   UNL     1       1.553   1.670  19.039  0.00  0.00    +0.000 OA
ATOM     29  H   UNL     1       1.144   2.058  19.844  0.00  0.00    +0.000 HD
ENDBRANCH  26  28
ENDBRANCH  10  26
TORSDOF 7
ENDMDL
