MODEL 1
REMARK VINA RESULT:      -8.0      0.000      0.000
REMARK  Name = 
REMARK  6 active torsions:
REMARK  status: ('A' for Active; 'I' for Inactive)
REMARK    1  A    between atoms: C_1  and  C_2
REMARK    2  A    between atoms: C_5  and  C_6
REMARK    3  A    between atoms: C_11  and  C_12
REMARK    4  A    between atoms: C_12  and  N_13
REMARK    5  A    between atoms: N_13  and  C_14
REMARK    6  A    between atoms: C_19  and  C_20
REMARK                            x       y       z     vdW  Elec       q    Type
REMARK                         _______ _______ _______ _____ _____    ______ ____
ROOT
ATOM      1  C   UNL     1       2.363   4.963  20.021  0.00  0.00    +0.000 C 
ATOM      2  O   UNL     1       1.212   4.215  19.597  0.00  0.00    +0.000 OA
ATOM      3  C   UNL     1       1.154   2.915  20.174  0.00  0.00    +0.000 C 
ATOM      4  C   UNL     1       2.347   2.085  19.730  0.00  0.00    +0.000 C 
ATOM      5  C   UNL     1       3.647   2.808  20.068  0.00  0.00    +0.000 C 
ATOM      6  C   UNL     1       3.656   4.261  19.543  0.00  0.00    +0.000 C 
ENDROOT
BRANCH   1  11
ATOM      7  C   UNL     1       1.481  10.482  18.303  0.00  0.00    +0.000 C 
ATOM      8  C   UNL     1       1.788   9.087  18.758  0.00  0.00    +0.000 A 
ATOM      9  C   UNL     1       2.339   8.151  17.880  0.00  0.00    +0.000 A 
ATOM     10  C   UNL     1       2.555   6.835  18.295  0.00  0.00    +0.000 A 
ATOM     11  C   UNL     1       2.224   6.419  19.595  0.00  0.00    +0.000 A 
ATOM     12  C   UNL     1       1.699   7.373  20.479  0.00  0.00    +0.000 A 
ATOM     13  C   UNL     1       1.482   8.691  20.064  0.00  0.00    +0.000 A 
ENDBRANCH   1  11
BRANCH   6  14
ATOM     14  C   UNL     1       3.797   4.326  18.005  0.00  0.00    +0.000 C 
BRANCH  14  15
ATOM     15  N   UNL     1       4.965   3.546  17.581  0.00  0.00    +0.000 N 
ATOM     16  H   UNL     1       5.613   3.382  18.349  0.00  0.00    +0.000 HD
BRANCH  15  17
ATOM     17  C   UNL     1       5.658   4.052  16.464  0.00  0.00    +0.000 A 
ATOM     18  N   UNL     1       5.165   3.829  15.222  0.00  0.00    +0.000 NA
ATOM     19  C   UNL     1       5.873   4.317  14.176  0.00  0.00    +0.000 A 
ATOM     20  C   UNL     1       7.057   5.011  14.339  0.00  0.00    +0.000 A 
ATOM     21  N   UNL     1       7.589   5.245  15.555  0.00  0.00    +0.000 NA
ATOM     22  C   UNL     1       6.876   4.745  16.607  0.00  0.00    +0.000 A 
BRANCH  22  23
ATOM     23  C   UNL     1       7.448   4.974  17.901  0.00  0.00    +0.000 C 
ATOM     24  N   UNL     1       7.907   5.122  18.961  0.00  0.00    +0.000 NA
ENDBRANCH  22  23
ENDBRANCH  15  17
ENDBRANCH  14  15
ENDBRANCH   6  14
TORSDOF 5
ENDMDL
MODEL 2
REMARK VINA RESULT:      -8.0      3.315      6.194
REMARK  Name = 
REMARK  6 active torsions:
REMARK  status: ('A' for Active; 'I' for Inactive)
REMARK    1  A    between atoms: C_1  and  C_2
REMARK    2  A    between atoms: C_5  and  C_6
REMARK    3  A    between atoms: C_11  and  C_12
REMARK    4  A    between atoms: C_12  and  N_13
REMARK    5  A    between atoms: N_13  and  C_14
REMARK    6  A    between atoms: C_19  and  C_20
REMARK                            x       y       z     vdW  Elec       q    Type
REMARK                         _______ _______ _______ _____ _____    ______ ____
ROOT
ATOM      1  C   UNL     1       3.092   4.062  19.148  0.00  0.00    +0.000 C 
ATOM      2  O   UNL     1       3.525   3.203  20.216  0.00  0.00    +0.000 OA
ATOM      3  C   UNL     1       2.544   2.239  20.583  0.00  0.00    +0.000 C 
ATOM      4  C   UNL     1       1.298   2.929  21.114  0.00  0.00    +0.000 C 
ATOM      5  C   UNL     1       0.770   3.927  20.088  0.00  0.00    +0.000 C 
ATOM      6  C   UNL     1       1.871   4.896  19.602  0.00  0.00    +0.000 C 
ENDROOT
BRANCH   1  11
ATOM      7  C   UNL     1       7.529   7.434  17.378  0.00  0.00    +0.000 C 
ATOM      8  C   UNL     1       6.413   6.514  17.772  0.00  0.00    +0.000 A 
ATOM      9  C   UNL     1       5.192   6.536  17.094  0.00  0.00    +0.000 A 
ATOM     10  C   UNL     1       4.135   5.725  17.516  0.00  0.00    +0.000 A 
ATOM     11  C   UNL     1       4.270   4.873  18.624  0.00  0.00    +0.000 A 
ATOM     12  C   UNL     1       5.510   4.835  19.280  0.00  0.00    +0.000 A 
ATOM     13  C   UNL     1       6.567   5.648  18.859  0.00  0.00    +0.000 A 
ENDBRANCH   1  11
BRANCH   6  14
ATOM     14  C   UNL     1       2.264   5.927  20.685  0.00  0.00    +0.000 C 
BRANCH  14  15
ATOM     15  N   UNL     1       2.387   7.258  20.081  0.00  0.00    +0.000 N 
ATOM     16  H   UNL     1       3.336   7.620  20.146  0.00  0.00    +0.000 HD
BRANCH  15  17
ATOM     17  C   UNL     1       1.469   8.220  20.544  0.00  0.00    +0.000 A 
ATOM     18  N   UNL     1       0.923   8.077  21.775  0.00  0.00    +0.000 NA
ATOM     19  C   UNL     1       0.030   9.015  22.172  0.00  0.00    +0.000 A 
ATOM     20  C   UNL     1      -0.331  10.082  21.372  0.00  0.00    +0.000 A 
ATOM     21  N   UNL     1       0.178  10.256  20.137  0.00  0.00    +0.000 NA
ATOM     22  C   UNL     1       1.072   9.304  19.737  0.00  0.00    +0.000 A 
BRANCH  22  23
ATOM     23  C   UNL     1       1.601   9.475  18.416  0.00  0.00    +0.000 C 
ATOM     24  N   UNL     1       2.042   9.576  17.343  0.00  0.00    +0.000 NA
ENDBRANCH  22  23
ENDBRANCH  15  17
ENDBRANCH  14  15
ENDBRANCH   6  14
TORSDOF 5
ENDMDL
MODEL 3
REMARK VINA RESULT:      -8.0      3.233      6.147
REMARK  Name = 
REMARK  6 active torsions:
REMARK  status: ('A' for Active; 'I' for Inactive)
REMARK    1  A    between atoms: C_1  and  C_2
REMARK    2  A    between atoms: C_5  and  C_6
REMARK    3  A    between atoms: C_11  and  C_12
REMARK    4  A    between atoms: C_12  and  N_13
REMARK    5  A    between atoms: N_13  and  C_14
REMARK    6  A    between atoms: C_19  and  C_20
REMARK                            x       y       z     vdW  Elec       q    Type
REMARK                         _______ _______ _______ _____ _____    ______ ____
ROOT
ATOM      1  C   UNL     1       3.186   3.598  19.080  0.00  0.00    +0.000 C 
ATOM      2  O   UNL     1       3.827   3.082  20.258  0.00  0.00    +0.000 OA
ATOM      3  C   UNL     1       2.918   2.446  21.150  0.00  0.00    +0.000 C 
ATOM      4  C   UNL     1       1.896   3.446  21.665  0.00  0.00    +0.000 C 
ATOM      5  C   UNL     1       1.182   4.119  20.497  0.00  0.00    +0.000 C 
ATOM      6  C   UNL     1       2.175   4.703  19.469  0.00  0.00    +0.000 C 
ENDROOT
BRANCH   1  11
ATOM      7  C   UNL     1       7.279   4.837  15.093  0.00  0.00    +0.000 C 
ATOM      8  C   UNL     1       6.219   4.602  16.127  0.00  0.00    +0.000 A 
ATOM      9  C   UNL     1       6.531   4.608  17.488  0.00  0.00    +0.000 A 
ATOM     10  C   UNL     1       5.549   4.317  18.439  0.00  0.00    +0.000 A 
ATOM     11  C   UNL     1       4.234   4.012  18.056  0.00  0.00    +0.000 A 
ATOM     12  C   UNL     1       3.922   4.039  16.688  0.00  0.00    +0.000 A 
ATOM     13  C   UNL     1       4.904   4.329  15.736  0.00  0.00    +0.000 A 
ENDBRANCH   1  11
BRANCH   6  14
ATOM     14  C   UNL     1       2.896   5.963  20.002  0.00  0.00    +0.000 C 
BRANCH  14  15
ATOM     15  N   UNL     1       1.913   6.897  20.561  0.00  0.00    +0.000 N 
ATOM     16  H   UNL     1       1.020   6.444  20.746  0.00  0.00    +0.000 HD
BRANCH  15  17
ATOM     17  C   UNL     1       1.713   8.080  19.823  0.00  0.00    +0.000 A 
ATOM     18  N   UNL     1       2.154   8.145  18.545  0.00  0.00    +0.000 NA
ATOM     19  C   UNL     1       1.958   9.308  17.878  0.00  0.00    +0.000 A 
ATOM     20  C   UNL     1       1.342  10.400  18.457  0.00  0.00    +0.000 A 
ATOM     21  N   UNL     1       0.898  10.383  19.730  0.00  0.00    +0.000 NA
ATOM     22  C   UNL     1       1.104   9.211  20.400  0.00  0.00    +0.000 A 
BRANCH  22  23
ATOM     23  C   UNL     1       0.652   9.194  21.760  0.00  0.00    +0.000 C 
ATOM     24  N   UNL     1       0.255   9.157  22.854  0.00  0.00    +0.000 NA
ENDBRANCH  22  23
ENDBRANCH  15  17
ENDBRANCH  14  15
ENDBRANCH   6  14
TORSDOF 5
ENDMDL
MODEL 4
REMARK VINA RESULT:      -8.0      3.206      6.051
REMARK  Name = 
REMARK  6 active torsions:
REMARK  status: ('A' for Active; 'I' for Inactive)
REMARK    1  A    between atoms: C_1  and  C_2
REMARK    2  A    between atoms: C_5  and  C_6
REMARK    3  A    between atoms: C_11  and  C_12
REMARK    4  A    between atoms: C_12  and  N_13
REMARK    5  A    between atoms: N_13  and  C_14
REMARK    6  A    between atoms: C_19  and  C_20
REMARK                            x       y       z     vdW  Elec       q    Type
REMARK                         _______ _______ _______ _____ _____    ______ ____
ROOT
ATOM      1  C   UNL     1       3.149   3.458  19.146  0.00  0.00    +0.000 C 
ATOM      2  O   UNL     1       3.746   2.969  20.358  0.00  0.00    +0.000 OA
ATOM      3  C   UNL     1       2.796   2.402  21.254  0.00  0.00    +0.000 C 
ATOM      4  C   UNL     1       1.799   3.457  21.705  0.00  0.00    +0.000 C 
ATOM      5  C   UNL     1       1.135   4.107  20.495  0.00  0.00    +0.000 C 
ATOM      6  C   UNL     1       2.171   4.613  19.468  0.00  0.00    +0.000 C 
ENDROOT
BRANCH   1  11
ATOM      7  C   UNL     1       7.231   5.095  15.293  0.00  0.00    +0.000 C 
ATOM      8  C   UNL     1       6.204   4.595  16.265  0.00  0.00    +0.000 A 
ATOM      9  C   UNL     1       4.938   4.199  15.830  0.00  0.00    +0.000 A 
ATOM     10  C   UNL     1       3.966   3.803  16.753  0.00  0.00    +0.000 A 
ATOM     11  C   UNL     1       4.233   3.793  18.131  0.00  0.00    +0.000 A 
ATOM     12  C   UNL     1       5.518   4.162  18.556  0.00  0.00    +0.000 A 
ATOM     13  C   UNL     1       6.491   4.560  17.634  0.00  0.00    +0.000 A 
ENDBRANCH   1  11
BRANCH   6  14
ATOM     14  C   UNL     1       2.925   5.868  19.966  0.00  0.00    +0.000 C 
BRANCH  14  15
ATOM     15  N   UNL     1       1.972   6.824  20.538  0.00  0.00    +0.000 N 
ATOM     16  H   UNL     1       1.079   6.387  20.758  0.00  0.00    +0.000 HD
BRANCH  15  17
ATOM     17  C   UNL     1       1.764   7.996  19.785  0.00  0.00    +0.000 A 
ATOM     18  N   UNL     1       2.207   8.049  18.506  0.00  0.00    +0.000 NA
ATOM     19  C   UNL     1       2.003   9.202  17.825  0.00  0.00    +0.000 A 
ATOM     20  C   UNL     1       1.377  10.297  18.389  0.00  0.00    +0.000 A 
ATOM     21  N   UNL     1       0.930  10.291  19.661  0.00  0.00    +0.000 NA
ATOM     22  C   UNL     1       1.145   9.130  20.346  0.00  0.00    +0.000 A 
BRANCH  22  23
ATOM     23  C   UNL     1       0.690   9.126  21.705  0.00  0.00    +0.000 C 
ATOM     24  N   UNL     1       0.295   9.151  22.801  0.00  0.00    +0.000 NA
ENDBRANCH  22  23
ENDBRANCH  15  17
ENDBRANCH  14  15
ENDBRANCH   6  14
TORSDOF 5
ENDMDL
MODEL 5
REMARK VINA RESULT:      -7.8      1.121      1.164
REMARK  Name = 
REMARK  6 active torsions:
REMARK  status: ('A' for Active; 'I' for Inactive)
REMARK    1  A    between atoms: C_1  and  C_2
REMARK    2  A    between atoms: C_5  and  C_6
REMARK    3  A    between atoms: C_11  and  C_12
REMARK    4  A    between atoms: C_12  and  N_13
REMARK    5  A    between atoms: N_13  and  C_14
REMARK    6  A    between atoms: C_19  and  C_20
REMARK                            x       y       z     vdW  Elec       q    Type
REMARK                         _______ _______ _______ _____ _____    ______ ____
ROOT
ATOM      1  C   UNL     1       2.493   4.653  19.197  0.00  0.00    +0.000 C 
ATOM      2  O   UNL     1       2.327   4.171  17.853  0.00  0.00    +0.000 OA
ATOM      3  C   UNL     1       2.309   2.750  17.773  0.00  0.00    +0.000 C 
ATOM      4  C   UNL     1       3.639   2.177  18.234  0.00  0.00    +0.000 C 
ATOM      5  C   UNL     1       3.967   2.671  19.640  0.00  0.00    +0.000 C 
ATOM      6  C   UNL     1       3.867   4.208  19.752  0.00  0.00    +0.000 C 
ENDROOT
BRANCH   1  11
ATOM      7  C   UNL     1       1.131  10.337  19.346  0.00  0.00    +0.000 C 
ATOM      8  C   UNL     1       1.562   8.901  19.316  0.00  0.00    +0.000 A 
ATOM      9  C   UNL     1       1.997   8.308  18.129  0.00  0.00    +0.000 A 
ATOM     10  C   UNL     1       2.328   6.951  18.098  0.00  0.00    +0.000 A 
ATOM     11  C   UNL     1       2.230   6.152  19.248  0.00  0.00    +0.000 A 
ATOM     12  C   UNL     1       1.821   6.763  20.443  0.00  0.00    +0.000 A 
ATOM     13  C   UNL     1       1.489   8.121  20.475  0.00  0.00    +0.000 A 
ENDBRANCH   1  11
BRANCH   6  14
ATOM     14  C   UNL     1       5.028   4.925  19.023  0.00  0.00    +0.000 C 
BRANCH  14  15
ATOM     15  N   UNL     1       5.852   3.939  18.315  0.00  0.00    +0.000 N 
ATOM     16  H   UNL     1       6.676   3.676  18.851  0.00  0.00    +0.000 HD
BRANCH  15  17
ATOM     17  C   UNL     1       6.219   4.289  17.002  0.00  0.00    +0.000 A 
ATOM     18  N   UNL     1       5.768   3.542  15.966  0.00  0.00    +0.000 NA
ATOM     19  C   UNL     1       6.162   3.903  14.721  0.00  0.00    +0.000 A 
ATOM     20  C   UNL     1       6.995   4.981  14.489  0.00  0.00    +0.000 A 
ATOM     21  N   UNL     1       7.477   5.743  15.491  0.00  0.00    +0.000 NA
ATOM     22  C   UNL     1       7.083   5.371  16.745  0.00  0.00    +0.000 A 
BRANCH  22  23
ATOM     23  C   UNL     1       7.609   6.167  17.815  0.00  0.00    +0.000 C 
ATOM     24  N   UNL     1       8.058   6.783  18.695  0.00  0.00    +0.000 NA
ENDBRANCH  22  23
ENDBRANCH  15  17
ENDBRANCH  14  15
ENDBRANCH   6  14
TORSDOF 5
ENDMDL
MODEL 6
REMARK VINA RESULT:      -7.7      0.675      1.204
REMARK  Name = 
REMARK  6 active torsions:
REMARK  status: ('A' for Active; 'I' for Inactive)
REMARK    1  A    between atoms: C_1  and  C_2
REMARK    2  A    between atoms: C_5  and  C_6
REMARK    3  A    between atoms: C_11  and  C_12
REMARK    4  A    between atoms: C_12  and  N_13
REMARK    5  A    between atoms: N_13  and  C_14
REMARK    6  A    between atoms: C_19  and  C_20
REMARK                            x       y       z     vdW  Elec       q    Type
REMARK                         _______ _______ _______ _____ _____    ______ ____
ROOT
ATOM      1  C   UNL     1       2.344   4.568  19.785  0.00  0.00    +0.000 C 
ATOM      2  O   UNL     1       1.378   3.741  19.114  0.00  0.00    +0.000 OA
ATOM      3  C   UNL     1       1.381   2.397  19.581  0.00  0.00    +0.000 C 
ATOM      4  C   UNL     1       2.722   1.741  19.299  0.00  0.00    +0.000 C 
ATOM      5  C   UNL     1       3.852   2.566  19.909  0.00  0.00    +0.000 C 
ATOM      6  C   UNL     1       3.774   4.052  19.494  0.00  0.00    +0.000 C 
ENDROOT
BRANCH   1  11
ATOM      7  C   UNL     1       1.779  10.243  18.496  0.00  0.00    +0.000 C 
ATOM      8  C   UNL     1       1.840   8.780  18.820  0.00  0.00    +0.000 A 
ATOM      9  C   UNL     1       1.636   8.327  20.125  0.00  0.00    +0.000 A 
ATOM     10  C   UNL     1       1.765   6.969  20.429  0.00  0.00    +0.000 A 
ATOM     11  C   UNL     1       2.104   6.032  19.441  0.00  0.00    +0.000 A 
ATOM     12  C   UNL     1       2.277   6.492  18.126  0.00  0.00    +0.000 A 
ATOM     13  C   UNL     1       2.149   7.851  17.821  0.00  0.00    +0.000 A 
ENDBRANCH   1  11
BRANCH   6  14
ATOM     14  C   UNL     1       4.161   4.267  18.013  0.00  0.00    +0.000 C 
BRANCH  14  15
ATOM     15  N   UNL     1       5.586   3.973  17.826  0.00  0.00    +0.000 N 
ATOM     16  H   UNL     1       6.159   4.385  18.559  0.00  0.00    +0.000 HD
BRANCH  15  17
ATOM     17  C   UNL     1       6.110   4.300  16.560  0.00  0.00    +0.000 A 
ATOM     18  N   UNL     1       5.749   3.563  15.483  0.00  0.00    +0.000 NA
ATOM     19  C   UNL     1       6.292   3.900  14.289  0.00  0.00    +0.000 A 
ATOM     20  C   UNL     1       7.185   4.945  14.147  0.00  0.00    +0.000 A 
ATOM     21  N   UNL     1       7.580   5.697  15.194  0.00  0.00    +0.000 NA
ATOM     22  C   UNL     1       7.036   5.349  16.397  0.00  0.00    +0.000 A 
BRANCH  22  23
ATOM     23  C   UNL     1       7.468   6.133  17.516  0.00  0.00    +0.000 C 
ATOM     24  N   UNL     1       7.792   6.796  18.417  0.00  0.00    +0.000 NA
ENDBRANCH  22  23
ENDBRANCH  15  17
ENDBRANCH  14  15
ENDBRANCH   6  14
TORSDOF 5
ENDMDL
MODEL 7
REMARK VINA RESULT:      -7.7      3.142      5.983
REMARK  Name = 
REMARK  6 active torsions:
REMARK  status: ('A' for Active; 'I' for Inactive)
REMARK    1  A    between atoms: C_1  and  C_2
REMARK    2  A    between atoms: C_5  and  C_6
REMARK    3  A    between atoms: C_11  and  C_12
REMARK    4  A    between atoms: C_12  and  N_13
REMARK    5  A    between atoms: N_13  and  C_14
REMARK    6  A    between atoms: C_19  and  C_20
REMARK                            x       y       z     vdW  Elec       q    Type
REMARK                         _______ _______ _______ _____ _____    ______ ____
ROOT
ATOM      1  C   UNL     1       3.478   4.190  18.036  0.00  0.00    +0.000 C 
ATOM      2  O   UNL     1       3.849   3.027  18.795  0.00  0.00    +0.000 OA
ATOM      3  C   UNL     1       2.916   1.960  18.665  0.00  0.00    +0.000 C 
ATOM      4  C   UNL     1       1.561   2.373  19.216  0.00  0.00    +0.000 C 
ATOM      5  C   UNL     1       1.079   3.648  18.530  0.00  0.00    +0.000 C 
ATOM      6  C   UNL     1       2.144   4.765  18.569  0.00  0.00    +0.000 C 
ENDROOT
BRANCH   1  11
ATOM      7  C   UNL     1       8.070   7.784  17.614  0.00  0.00    +0.000 C 
ATOM      8  C   UNL     1       6.865   6.910  17.787  0.00  0.00    +0.000 A 
ATOM      9  C   UNL     1       6.855   5.881  18.732  0.00  0.00    +0.000 A 
ATOM     10  C   UNL     1       5.753   5.028  18.834  0.00  0.00    +0.000 A 
ATOM     11  C   UNL     1       4.637   5.177  17.997  0.00  0.00    +0.000 A 
ATOM     12  C   UNL     1       4.643   6.232  17.072  0.00  0.00    +0.000 A 
ATOM     13  C   UNL     1       5.745   7.086  16.967  0.00  0.00    +0.000 A 
ENDBRANCH   1  11
BRANCH   6  14
ATOM     14  C   UNL     1       2.314   5.363  19.985  0.00  0.00    +0.000 C 
BRANCH  14  15
ATOM     15  N   UNL     1       2.696   6.776  19.882  0.00  0.00    +0.000 N 
ATOM     16  H   UNL     1       3.567   6.971  20.372  0.00  0.00    +0.000 HD
BRANCH  15  17
ATOM     17  C   UNL     1       1.706   7.700  20.268  0.00  0.00    +0.000 A 
ATOM     18  N   UNL     1       1.042   7.513  21.433  0.00  0.00    +0.000 NA
ATOM     19  C   UNL     1       0.085   8.416  21.755  0.00  0.00    +0.000 A 
ATOM     20  C   UNL     1      -0.226   9.489  20.943  0.00  0.00    +0.000 A 
ATOM     21  N   UNL     1       0.401   9.707  19.770  0.00  0.00    +0.000 NA
ATOM     22  C   UNL     1       1.360   8.791  19.446  0.00  0.00    +0.000 A 
BRANCH  22  23
ATOM     23  C   UNL     1       2.016   9.007  18.190  0.00  0.00    +0.000 C 
ATOM     24  N   UNL     1       2.522   9.159  17.152  0.00  0.00    +0.000 NA
ENDBRANCH  22  23
ENDBRANCH  15  17
ENDBRANCH  14  15
ENDBRANCH   6  14
TORSDOF 5
ENDMDL
MODEL 8
REMARK VINA RESULT:      -7.7      0.911      2.191
REMARK  Name = 
REMARK  6 active torsions:
REMARK  status: ('A' for Active; 'I' for Inactive)
REMARK    1  A    between atoms: C_1  and  C_2
REMARK    2  A    between atoms: C_5  and  C_6
REMARK    3  A    between atoms: C_11  and  C_12
REMARK    4  A    between atoms: C_12  and  N_13
REMARK    5  A    between atoms: N_13  and  C_14
REMARK    6  A    between atoms: C_19  and  C_20
REMARK                            x       y       z     vdW  Elec       q    Type
REMARK                         _______ _______ _______ _____ _____    ______ ____
ROOT
ATOM      1  C   UNL     1       2.217   4.709  19.887  0.00  0.00    +0.000 C 
ATOM      2  O   UNL     1       1.113   4.008  19.292  0.00  0.00    +0.000 OA
ATOM      3  C   UNL     1       0.920   2.710  19.845  0.00  0.00    +0.000 C 
ATOM      4  C   UNL     1       2.133   1.835  19.576  0.00  0.00    +0.000 C 
ATOM      5  C   UNL     1       3.396   2.506  20.108  0.00  0.00    +0.000 C 
ATOM      6  C   UNL     1       3.539   3.957  19.600  0.00  0.00    +0.000 C 
ENDROOT
BRANCH   1  11
ATOM      7  C   UNL     1       1.793  10.277  18.153  0.00  0.00    +0.000 C 
ATOM      8  C   UNL     1       1.984   8.862  18.611  0.00  0.00    +0.000 A 
ATOM      9  C   UNL     1       2.440   7.879  17.730  0.00  0.00    +0.000 A 
ATOM     10  C   UNL     1       2.546   6.550  18.149  0.00  0.00    +0.000 A 
ATOM     11  C   UNL     1       2.199   6.170  19.455  0.00  0.00    +0.000 A 
ATOM     12  C   UNL     1       1.772   7.170  20.342  0.00  0.00    +0.000 A 
ATOM     13  C   UNL     1       1.664   8.500  19.923  0.00  0.00    +0.000 A 
ENDBRANCH   1  11
BRANCH   6  14
ATOM     14  C   UNL     1       3.908   4.019  18.100  0.00  0.00    +0.000 C 
BRANCH  14  15
ATOM     15  N   UNL     1       5.318   3.656  17.921  0.00  0.00    +0.000 N 
ATOM     16  H   UNL     1       5.607   2.924  18.567  0.00  0.00    +0.000 HD
BRANCH  15  17
ATOM     17  C   UNL     1       6.229   4.729  17.965  0.00  0.00    +0.000 A 
ATOM     18  N   UNL     1       6.767   5.093  19.154  0.00  0.00    +0.000 NA
ATOM     19  C   UNL     1       7.623   6.142  19.152  0.00  0.00    +0.000 A 
ATOM     20  C   UNL     1       7.949   6.834  18.002  0.00  0.00    +0.000 A 
ATOM     21  N   UNL     1       7.429   6.513  16.800  0.00  0.00    +0.000 NA
ATOM     22  C   UNL     1       6.560   5.459  16.807  0.00  0.00    +0.000 A 
BRANCH  22  23
ATOM     23  C   UNL     1       5.989   5.126  15.536  0.00  0.00    +0.000 C 
ATOM     24  N   UNL     1       5.545   4.823  14.503  0.00  0.00    +0.000 NA
ENDBRANCH  22  23
ENDBRANCH  15  17
ENDBRANCH  14  15
ENDBRANCH   6  14
TORSDOF 5
ENDMDL
MODEL 9
REMARK VINA RESULT:      -7.6      3.418      5.923
REMARK  Name = 
REMARK  6 active torsions:
REMARK  status: ('A' for Active; 'I' for Inactive)
REMARK    1  A    between atoms: C_1  and  C_2
REMARK    2  A    between atoms: C_5  and  C_6
REMARK    3  A    between atoms: C_11  and  C_12
REMARK    4  A    between atoms: C_12  and  N_13
REMARK    5  A    between atoms: N_13  and  C_14
REMARK    6  A    between atoms: C_19  and  C_20
REMARK                            x       y       z     vdW  Elec       q    Type
REMARK                         _______ _______ _______ _____ _____    ______ ____
ROOT
ATOM      1  C   UNL     1       3.204   4.171  18.983  0.00  0.00    +0.000 C 
ATOM      2  O   UNL     1       3.651   3.209  19.953  0.00  0.00    +0.000 OA
ATOM      3  C   UNL     1       2.645   2.261  20.295  0.00  0.00    +0.000 C 
ATOM      4  C   UNL     1       1.462   2.957  20.947  0.00  0.00    +0.000 C 
ATOM      5  C   UNL     1       0.930   4.058  20.035  0.00  0.00    +0.000 C 
ATOM      6  C   UNL     1       2.048   5.016  19.569  0.00  0.00    +0.000 C 
ENDROOT
BRANCH   1  11
ATOM      7  C   UNL     1       7.671   7.506  17.220  0.00  0.00    +0.000 C 
ATOM      8  C   UNL     1       6.548   6.595  17.613  0.00  0.00    +0.000 A 
ATOM      9  C   UNL     1       5.333   6.616  16.924  0.00  0.00    +0.000 A 
ATOM     10  C   UNL     1       4.269   5.813  17.344  0.00  0.00    +0.000 A 
ATOM     11  C   UNL     1       4.390   4.972  18.461  0.00  0.00    +0.000 A 
ATOM     12  C   UNL     1       5.624   4.934  19.128  0.00  0.00    +0.000 A 
ATOM     13  C   UNL     1       6.689   5.738  18.710  0.00  0.00    +0.000 A 
ENDBRANCH   1  11
BRANCH   6  14
ATOM     14  C   UNL     1       2.544   5.936  20.708  0.00  0.00    +0.000 C 
BRANCH  14  15
ATOM     15  N   UNL     1       1.525   6.947  21.007  0.00  0.00    +0.000 N 
ATOM     16  H   UNL     1       0.598   6.537  21.103  0.00  0.00    +0.000 HD
BRANCH  15  17
ATOM     17  C   UNL     1       1.480   8.042  20.121  0.00  0.00    +0.000 A 
ATOM     18  N   UNL     1       2.175   7.984  18.960  0.00  0.00    +0.000 NA
ATOM     19  C   UNL     1       2.120   9.066  18.148  0.00  0.00    +0.000 A 
ATOM     20  C   UNL     1       1.395  10.198  18.467  0.00  0.00    +0.000 A 
ATOM     21  N   UNL     1       0.699  10.303  19.617  0.00  0.00    +0.000 NA
ATOM     22  C   UNL     1       0.764   9.213  20.436  0.00  0.00    +0.000 A 
BRANCH  22  23
ATOM     23  C   UNL     1       0.041   9.327  21.668  0.00  0.00    +0.000 C 
ATOM     24  N   UNL     1      -0.515   9.435  22.686  0.00  0.00    +0.000 NA
ENDBRANCH  22  23
ENDBRANCH  15  17
ENDBRANCH  14  15
ENDBRANCH   6  14
TORSDOF 5
ENDMDL
