MODEL 1
REMARK VINA RESULT:      -6.6      0.000      0.000
REMARK  Name = 
REMARK  7 active torsions:
REMARK  status: ('A' for Active; 'I' for Inactive)
REMARK    1  A    between atoms: C_1  and  C_2
REMARK    2  A    between atoms: C_2  and  C_3
REMARK    3  A    between atoms: C_6  and  C_7
REMARK    4  A    between atoms: C_7  and  C_8
REMARK    5  A    between atoms: C_7  and  N_9
REMARK    6  A    between atoms: C_10  and  S_11
REMARK    7  A    between atoms: N_12  and  C_13
REMARK                            x       y       z     vdW  Elec       q    Type
REMARK                         _______ _______ _______ _____ _____    ______ ____
ROOT
ATOM      1  N   UNL     1       5.048   4.987  16.944  0.00  0.00    +0.000 NA
ATOM      2  C   UNL     1       5.334   4.850  18.186  0.00  0.00    +0.000 C 
ATOM      3  N   UNL     1       4.553   4.136  19.056  0.00  0.00    +0.000 N 
ATOM      4  H   UNL     1       4.968   4.026  19.977  0.00  0.00    +0.000 HD
ENDROOT
BRANCH   3   5
ATOM      5  C   UNL     1       3.659   3.068  18.635  0.00  0.00    +0.000 C 
ATOM      6  C   UNL     1       3.371   2.129  19.814  0.00  0.00    +0.000 C 
ATOM      7  C   UNL     1       2.436   2.745  20.860  0.00  0.00    +0.000 C 
ATOM      8  C   UNL     1       1.147   3.258  20.226  0.00  0.00    +0.000 C 
ATOM      9  C   UNL     1       1.437   4.256  19.111  0.00  0.00    +0.000 C 
ATOM     10  C   UNL     1       2.372   3.670  18.055  0.00  0.00    +0.000 C 
ENDBRANCH   3   5
BRANCH   1  11
ATOM     11  C   UNL     1       5.820   5.764  15.980  0.00  0.00    +0.000 C 
ATOM     12  C   UNL     1       5.002   7.018  15.634  0.00  0.00    +0.000 C 
BRANCH  11  16
ATOM     13  C   UNL     1       6.678   3.536  12.351  0.00  0.00    +0.000 A 
ATOM     14  C   UNL     1       7.602   4.460  12.855  0.00  0.00    +0.000 A 
ATOM     15  C   UNL     1       7.327   5.173  14.027  0.00  0.00    +0.000 A 
ATOM     16  C   UNL     1       6.127   4.971  14.721  0.00  0.00    +0.000 A 
ATOM     17  C   UNL     1       5.215   4.026  14.223  0.00  0.00    +0.000 A 
ATOM     18  C   UNL     1       5.483   3.325  13.046  0.00  0.00    +0.000 A 
BRANCH  13  20
ATOM     19  C   UNL     1       6.391   1.343  11.195  0.00  0.00    +0.000 C 
ATOM     20  C   UNL     1       6.992   2.738  11.113  0.00  0.00    +0.000 C 
ENDBRANCH  13  20
ENDBRANCH  11  16
ENDBRANCH   1  11
BRANCH   2  21
ATOM     21  S   UNL     1       6.713   5.526  19.033  0.00  0.00    +0.000 S 
ATOM     22  H   UNL     1       7.291   4.397  19.439  0.00  0.00    +0.000 HD
ENDBRANCH   2  21
TORSDOF 5
ENDMDL
MODEL 2
REMARK VINA RESULT:      -6.5      1.601      2.263
REMARK  Name = 
REMARK  7 active torsions:
REMARK  status: ('A' for Active; 'I' for Inactive)
REMARK    1  A    between atoms: C_1  and  C_2
REMARK    2  A    between atoms: C_2  and  C_3
REMARK    3  A    between atoms: C_6  and  C_7
REMARK    4  A    between atoms: C_7  and  C_8
REMARK    5  A    between atoms: C_7  and  N_9
REMARK    6  A    between atoms: C_10  and  S_11
REMARK    7  A    between atoms: N_12  and  C_13
REMARK                            x       y       z     vdW  Elec       q    Type
REMARK                         _______ _______ _______ _____ _____    ______ ____
ROOT
ATOM      1  N   UNL     1       5.646   4.711  18.368  0.00  0.00    +0.000 NA
ATOM      2  C   UNL     1       4.604   5.454  18.278  0.00  0.00    +0.000 C 
ATOM      3  N   UNL     1       3.457   5.218  18.987  0.00  0.00    +0.000 N 
ATOM      4  H   UNL     1       2.763   5.954  18.893  0.00  0.00    +0.000 HD
ENDROOT
BRANCH   3   5
ATOM      5  C   UNL     1       3.429   4.482  20.241  0.00  0.00    +0.000 C 
ATOM      6  C   UNL     1       2.147   4.814  21.017  0.00  0.00    +0.000 C 
ATOM      7  C   UNL     1       0.894   4.177  20.409  0.00  0.00    +0.000 C 
ATOM      8  C   UNL     1       1.063   2.673  20.224  0.00  0.00    +0.000 C 
ATOM      9  C   UNL     1       2.291   2.352  19.381  0.00  0.00    +0.000 C 
ATOM     10  C   UNL     1       3.556   2.979  19.963  0.00  0.00    +0.000 C 
ENDBRANCH   3   5
BRANCH   1  11
ATOM     11  C   UNL     1       6.880   4.891  17.613  0.00  0.00    +0.000 C 
ATOM     12  C   UNL     1       7.324   6.351  17.792  0.00  0.00    +0.000 C 
BRANCH  11  16
ATOM     13  C   UNL     1       6.400   3.941  13.401  0.00  0.00    +0.000 A 
ATOM     14  C   UNL     1       5.593   3.325  14.367  0.00  0.00    +0.000 A 
ATOM     15  C   UNL     1       5.746   3.636  15.722  0.00  0.00    +0.000 A 
ATOM     16  C   UNL     1       6.701   4.573  16.138  0.00  0.00    +0.000 A 
ATOM     17  C   UNL     1       7.489   5.204  15.162  0.00  0.00    +0.000 A 
ATOM     18  C   UNL     1       7.347   4.884  13.811  0.00  0.00    +0.000 A 
BRANCH  13  20
ATOM     19  C   UNL     1       4.770   3.234  11.648  0.00  0.00    +0.000 C 
ATOM     20  C   UNL     1       6.207   3.638  11.938  0.00  0.00    +0.000 C 
ENDBRANCH  13  20
ENDBRANCH  11  16
ENDBRANCH   1  11
BRANCH   2  21
ATOM     21  S   UNL     1       4.403   6.868  17.260  0.00  0.00    +0.000 S 
ATOM     22  H   UNL     1       3.304   6.504  16.602  0.00  0.00    +0.000 HD
ENDBRANCH   2  21
TORSDOF 5
ENDMDL
MODEL 3
REMARK VINA RESULT:      -6.5      3.450      7.571
REMARK  Name = 
REMARK  7 active torsions:
REMARK  status: ('A' for Active; 'I' for Inactive)
REMARK    1  A    between atoms: C_1  and  C_2
REMARK    2  A    between atoms: C_2  and  C_3
REMARK    3  A    between atoms: C_6  and  C_7
REMARK    4  A    between atoms: C_7  and  C_8
REMARK    5  A    between atoms: C_7  and  N_9
REMARK    6  A    between atoms: C_10  and  S_11
REMARK    7  A    between atoms: N_12  and  C_13
REMARK                            x       y       z     vdW  Elec       q    Type
REMARK                         _______ _______ _______ _____ _____    ______ ____
ROOT
ATOM      1  N   UNL     1       3.885   5.224  19.277  0.00  0.00    +0.000 NA
ATOM      2  C   UNL     1       4.540   4.121  19.243  0.00  0.00    +0.000 C 
ATOM      3  N   UNL     1       5.655   3.942  18.469  0.00  0.00    +0.000 N 
ATOM      4  H   UNL     1       6.124   3.055  18.634  0.00  0.00    +0.000 HD
ENDROOT
BRANCH   3   5
ATOM      5  C   UNL     1       6.509   5.035  18.032  0.00  0.00    +0.000 C 
ATOM      6  C   UNL     1       7.569   4.514  17.052  0.00  0.00    +0.000 C 
ATOM      7  C   UNL     1       6.997   4.171  15.673  0.00  0.00    +0.000 C 
ATOM      8  C   UNL     1       6.217   5.340  15.083  0.00  0.00    +0.000 C 
ATOM      9  C   UNL     1       5.110   5.800  16.024  0.00  0.00    +0.000 C 
ATOM     10  C   UNL     1       5.651   6.145  17.410  0.00  0.00    +0.000 C 
ENDBRANCH   3   5
BRANCH   1  11
ATOM     11  C   UNL     1       2.672   5.462  20.052  0.00  0.00    +0.000 C 
ATOM     12  C   UNL     1       1.625   4.432  19.601  0.00  0.00    +0.000 C 
BRANCH  11  16
ATOM     13  C   UNL     1       1.102   9.473  19.492  0.00  0.00    +0.000 A 
ATOM     14  C   UNL     1       0.924   8.802  20.708  0.00  0.00    +0.000 A 
ATOM     15  C   UNL     1       1.435   7.512  20.889  0.00  0.00    +0.000 A 
ATOM     16  C   UNL     1       2.139   6.872  19.861  0.00  0.00    +0.000 A 
ATOM     17  C   UNL     1       2.335   7.561  18.653  0.00  0.00    +0.000 A 
ATOM     18  C   UNL     1       1.813   8.842  18.467  0.00  0.00    +0.000 A 
BRANCH  13  20
ATOM     19  C   UNL     1      -0.876  10.878  18.905  0.00  0.00    +0.000 C 
ATOM     20  C   UNL     1       0.589  10.878  19.311  0.00  0.00    +0.000 C 
ENDBRANCH  13  20
ENDBRANCH  11  16
ENDBRANCH   1  11
BRANCH   2  21
ATOM     21  S   UNL     1       4.169   2.646  20.116  0.00  0.00    +0.000 S 
ATOM     22  H   UNL     1       5.023   2.777  21.130  0.00  0.00    +0.000 HD
ENDBRANCH   2  21
TORSDOF 5
ENDMDL
MODEL 4
REMARK VINA RESULT:      -6.5      1.595      1.991
REMARK  Name = 
REMARK  7 active torsions:
REMARK  status: ('A' for Active; 'I' for Inactive)
REMARK    1  A    between atoms: C_1  and  C_2
REMARK    2  A    between atoms: C_2  and  C_3
REMARK    3  A    between atoms: C_6  and  C_7
REMARK    4  A    between atoms: C_7  and  C_8
REMARK    5  A    between atoms: C_7  and  N_9
REMARK    6  A    between atoms: C_10  and  S_11
REMARK    7  A    between atoms: N_12  and  C_13
REMARK                            x       y       z     vdW  Elec       q    Type
REMARK                         _______ _______ _______ _____ _____    ______ ____
ROOT
ATOM      1  N   UNL     1       5.629   4.765  18.357  0.00  0.00    +0.000 NA
ATOM      2  C   UNL     1       4.579   5.497  18.278  0.00  0.00    +0.000 C 
ATOM      3  N   UNL     1       3.435   5.237  18.984  0.00  0.00    +0.000 N 
ATOM      4  H   UNL     1       2.732   5.966  18.901  0.00  0.00    +0.000 HD
ENDROOT
BRANCH   3   5
ATOM      5  C   UNL     1       3.418   4.484  20.229  0.00  0.00    +0.000 C 
ATOM      6  C   UNL     1       2.146   4.812  21.023  0.00  0.00    +0.000 C 
ATOM      7  C   UNL     1       0.883   4.188  20.421  0.00  0.00    +0.000 C 
ATOM      8  C   UNL     1       1.043   2.686  20.214  0.00  0.00    +0.000 C 
ATOM      9  C   UNL     1       2.260   2.371  19.354  0.00  0.00    +0.000 C 
ATOM     10  C   UNL     1       3.535   2.984  19.929  0.00  0.00    +0.000 C 
ENDBRANCH   3   5
BRANCH   1  11
ATOM     11  C   UNL     1       6.861   4.970  17.603  0.00  0.00    +0.000 C 
ATOM     12  C   UNL     1       7.248   6.451  17.743  0.00  0.00    +0.000 C 
BRANCH  11  16
ATOM     13  C   UNL     1       6.374   3.963  13.406  0.00  0.00    +0.000 A 
ATOM     14  C   UNL     1       7.314   4.921  13.804  0.00  0.00    +0.000 A 
ATOM     15  C   UNL     1       7.474   5.241  15.157  0.00  0.00    +0.000 A 
ATOM     16  C   UNL     1       6.703   4.604  16.138  0.00  0.00    +0.000 A 
ATOM     17  C   UNL     1       5.779   3.626  15.733  0.00  0.00    +0.000 A 
ATOM     18  C   UNL     1       5.610   3.317  14.383  0.00  0.00    +0.000 A 
BRANCH  13  20
ATOM     19  C   UNL     1       4.790   3.238  11.618  0.00  0.00    +0.000 C 
ATOM     20  C   UNL     1       6.232   3.588  11.954  0.00  0.00    +0.000 C 
ENDBRANCH  13  20
ENDBRANCH  11  16
ENDBRANCH   1  11
BRANCH   2  21
ATOM     21  S   UNL     1       4.359   6.921  17.279  0.00  0.00    +0.000 S 
ATOM     22  H   UNL     1       4.653   7.860  18.176  0.00  0.00    +0.000 HD
ENDBRANCH   2  21
TORSDOF 5
ENDMDL
MODEL 5
REMARK VINA RESULT:      -6.5      0.085      1.082
REMARK  Name = 
REMARK  7 active torsions:
REMARK  status: ('A' for Active; 'I' for Inactive)
REMARK    1  A    between atoms: C_1  and  C_2
REMARK    2  A    between atoms: C_2  and  C_3
REMARK    3  A    between atoms: C_6  and  C_7
REMARK    4  A    between atoms: C_7  and  C_8
REMARK    5  A    between atoms: C_7  and  N_9
REMARK    6  A    between atoms: C_10  and  S_11
REMARK    7  A    between atoms: N_12  and  C_13
REMARK                            x       y       z     vdW  Elec       q    Type
REMARK                         _______ _______ _______ _____ _____    ______ ____
ROOT
ATOM      1  N   UNL     1       5.023   4.988  17.015  0.00  0.00    +0.000 NA
ATOM      2  C   UNL     1       5.315   4.831  18.254  0.00  0.00    +0.000 C 
ATOM      3  N   UNL     1       4.539   4.102  19.115  0.00  0.00    +0.000 N 
ATOM      4  H   UNL     1       4.958   3.978  20.032  0.00  0.00    +0.000 HD
ENDROOT
BRANCH   3   5
ATOM      5  C   UNL     1       3.646   3.038  18.681  0.00  0.00    +0.000 C 
ATOM      6  C   UNL     1       3.360   2.083  19.848  0.00  0.00    +0.000 C 
ATOM      7  C   UNL     1       2.425   2.683  20.902  0.00  0.00    +0.000 C 
ATOM      8  C   UNL     1       1.135   3.204  20.276  0.00  0.00    +0.000 C 
ATOM      9  C   UNL     1       1.423   4.216  19.174  0.00  0.00    +0.000 C 
ATOM     10  C   UNL     1       2.358   3.646  18.110  0.00  0.00    +0.000 C 
ENDBRANCH   3   5
BRANCH   1  11
ATOM     11  C   UNL     1       5.789   5.782  16.061  0.00  0.00    +0.000 C 
ATOM     12  C   UNL     1       4.970   7.043  15.744  0.00  0.00    +0.000 C 
BRANCH  11  16
ATOM     13  C   UNL     1       6.655   3.545  12.440  0.00  0.00    +0.000 A 
ATOM     14  C   UNL     1       5.446   3.358  13.120  0.00  0.00    +0.000 A 
ATOM     15  C   UNL     1       5.166   4.083  14.283  0.00  0.00    +0.000 A 
ATOM     16  C   UNL     1       6.085   5.013  14.784  0.00  0.00    +0.000 A 
ATOM     17  C   UNL     1       7.286   5.212  14.084  0.00  0.00    +0.000 A 
ATOM     18  C   UNL     1       7.572   4.479  12.931  0.00  0.00    +0.000 A 
BRANCH  13  20
ATOM     19  C   UNL     1       6.290   1.420  11.182  0.00  0.00    +0.000 C 
ATOM     20  C   UNL     1       6.939   2.795  11.164  0.00  0.00    +0.000 C 
ENDBRANCH  13  20
ENDBRANCH  11  16
ENDBRANCH   1  11
BRANCH   2  21
ATOM     21  S   UNL     1       6.695   5.498  19.105  0.00  0.00    +0.000 S 
ATOM     22  H   UNL     1       6.073   5.978  20.181  0.00  0.00    +0.000 HD
ENDBRANCH   2  21
TORSDOF 5
ENDMDL
MODEL 6
REMARK VINA RESULT:      -6.5      3.438      7.550
REMARK  Name = 
REMARK  7 active torsions:
REMARK  status: ('A' for Active; 'I' for Inactive)
REMARK    1  A    between atoms: C_1  and  C_2
REMARK    2  A    between atoms: C_2  and  C_3
REMARK    3  A    between atoms: C_6  and  C_7
REMARK    4  A    between atoms: C_7  and  C_8
REMARK    5  A    between atoms: C_7  and  N_9
REMARK    6  A    between atoms: C_10  and  S_11
REMARK    7  A    between atoms: N_12  and  C_13
REMARK                            x       y       z     vdW  Elec       q    Type
REMARK                         _______ _______ _______ _____ _____    ______ ____
ROOT
ATOM      1  N   UNL     1       3.894   5.208  19.269  0.00  0.00    +0.000 NA
ATOM      2  C   UNL     1       4.553   4.109  19.236  0.00  0.00    +0.000 C 
ATOM      3  N   UNL     1       5.668   3.932  18.461  0.00  0.00    +0.000 N 
ATOM      4  H   UNL     1       6.142   3.049  18.626  0.00  0.00    +0.000 HD
ENDROOT
BRANCH   3   5
ATOM      5  C   UNL     1       6.516   5.028  18.018  0.00  0.00    +0.000 C 
ATOM      6  C   UNL     1       7.573   4.510  17.033  0.00  0.00    +0.000 C 
ATOM      7  C   UNL     1       6.995   4.165  15.657  0.00  0.00    +0.000 C 
ATOM      8  C   UNL     1       6.207   5.331  15.071  0.00  0.00    +0.000 C 
ATOM      9  C   UNL     1       5.103   5.787  16.018  0.00  0.00    +0.000 C 
ATOM     10  C   UNL     1       5.651   6.135  17.400  0.00  0.00    +0.000 C 
ENDBRANCH   3   5
BRANCH   1  11
ATOM     11  C   UNL     1       2.681   5.443  20.045  0.00  0.00    +0.000 C 
ATOM     12  C   UNL     1       1.643   4.397  19.611  0.00  0.00    +0.000 C 
BRANCH  11  16
ATOM     13  C   UNL     1       1.159   9.471  19.471  0.00  0.00    +0.000 A 
ATOM     14  C   UNL     1       1.829   8.809  18.435  0.00  0.00    +0.000 A 
ATOM     15  C   UNL     1       2.315   7.510  18.620  0.00  0.00    +0.000 A 
ATOM     16  C   UNL     1       2.133   6.845  19.840  0.00  0.00    +0.000 A 
ATOM     17  C   UNL     1       1.438   7.506  20.866  0.00  0.00    +0.000 A 
ATOM     18  C   UNL     1       0.967   8.808  20.687  0.00  0.00    +0.000 A 
BRANCH  13  20
ATOM     19  C   UNL     1      -0.916  10.856  19.390  0.00  0.00    +0.000 C 
ATOM     20  C   UNL     1       0.600  10.854  19.259  0.00  0.00    +0.000 C 
ENDBRANCH  13  20
ENDBRANCH  11  16
ENDBRANCH   1  11
BRANCH   2  21
ATOM     21  S   UNL     1       4.191   2.635  20.114  0.00  0.00    +0.000 S 
ATOM     22  H   UNL     1       4.215   1.770  19.102  0.00  0.00    +0.000 HD
ENDBRANCH   2  21
TORSDOF 5
ENDMDL
MODEL 7
REMARK VINA RESULT:      -6.4      1.438      2.202
REMARK  Name = 
REMARK  7 active torsions:
REMARK  status: ('A' for Active; 'I' for Inactive)
REMARK    1  A    between atoms: C_1  and  C_2
REMARK    2  A    between atoms: C_2  and  C_3
REMARK    3  A    between atoms: C_6  and  C_7
REMARK    4  A    between atoms: C_7  and  C_8
REMARK    5  A    between atoms: C_7  and  N_9
REMARK    6  A    between atoms: C_10  and  S_11
REMARK    7  A    between atoms: N_12  and  C_13
REMARK                            x       y       z     vdW  Elec       q    Type
REMARK                         _______ _______ _______ _____ _____    ______ ____
ROOT
ATOM      1  N   UNL     1       4.980   5.918  18.101  0.00  0.00    +0.000 NA
ATOM      2  C   UNL     1       4.835   5.071  19.053  0.00  0.00    +0.000 C 
ATOM      3  N   UNL     1       3.677   4.950  19.773  0.00  0.00    +0.000 N 
ATOM      4  H   UNL     1       3.679   4.163  20.416  0.00  0.00    +0.000 HD
ENDROOT
BRANCH   3   5
ATOM      5  C   UNL     1       2.373   5.342  19.262  0.00  0.00    +0.000 C 
ATOM      6  C   UNL     1       2.076   4.597  17.954  0.00  0.00    +0.000 C 
ATOM      7  C   UNL     1       1.746   3.116  18.166  0.00  0.00    +0.000 C 
ATOM      8  C   UNL     1       0.625   2.932  19.182  0.00  0.00    +0.000 C 
ATOM      9  C   UNL     1       0.962   3.602  20.509  0.00  0.00    +0.000 C 
ATOM     10  C   UNL     1       1.300   5.080  20.326  0.00  0.00    +0.000 C 
ENDBRANCH   3   5
BRANCH   1  11
ATOM     11  C   UNL     1       6.199   6.117  17.325  0.00  0.00    +0.000 C 
ATOM     12  C   UNL     1       6.365   7.628  17.103  0.00  0.00    +0.000 C 
BRANCH  11  16
ATOM     13  C   UNL     1       6.076   3.997  13.536  0.00  0.00    +0.000 A 
ATOM     14  C   UNL     1       4.929   4.097  14.333  0.00  0.00    +0.000 A 
ATOM     15  C   UNL     1       4.969   4.784  15.551  0.00  0.00    +0.000 A 
ATOM     16  C   UNL     1       6.152   5.391  15.991  0.00  0.00    +0.000 A 
ATOM     17  C   UNL     1       7.292   5.307  15.174  0.00  0.00    +0.000 A 
ATOM     18  C   UNL     1       7.256   4.609  13.966  0.00  0.00    +0.000 A 
BRANCH  13  20
ATOM     19  C   UNL     1       4.599   3.236  11.672  0.00  0.00    +0.000 C 
ATOM     20  C   UNL     1       6.023   3.293  12.205  0.00  0.00    +0.000 C 
ENDBRANCH  13  20
ENDBRANCH  11  16
ENDBRANCH   1  11
BRANCH   2  21
ATOM     21  S   UNL     1       6.034   3.936  19.646  0.00  0.00    +0.000 S 
ATOM     22  H   UNL     1       7.034   4.783  19.881  0.00  0.00    +0.000 HD
ENDBRANCH   2  21
TORSDOF 5
ENDMDL
MODEL 8
REMARK VINA RESULT:      -6.3      5.681      8.380
REMARK  Name = 
REMARK  7 active torsions:
REMARK  status: ('A' for Active; 'I' for Inactive)
REMARK    1  A    between atoms: C_1  and  C_2
REMARK    2  A    between atoms: C_2  and  C_3
REMARK    3  A    between atoms: C_6  and  C_7
REMARK    4  A    between atoms: C_7  and  C_8
REMARK    5  A    between atoms: C_7  and  N_9
REMARK    6  A    between atoms: C_10  and  S_11
REMARK    7  A    between atoms: N_12  and  C_13
REMARK                            x       y       z     vdW  Elec       q    Type
REMARK                         _______ _______ _______ _____ _____    ______ ____
ROOT
ATOM      1  N   UNL     1       0.869   8.869  18.046  0.00  0.00    +0.000 NA
ATOM      2  C   UNL     1       0.479  10.088  18.131  0.00  0.00    +0.000 C 
ATOM      3  N   UNL     1      -0.705  10.530  17.604  0.00  0.00    +0.000 N 
ATOM      4  H   UNL     1      -0.924  11.492  17.848  0.00  0.00    +0.000 HD
ENDROOT
BRANCH   3   5
ATOM      5  C   UNL     1      -1.849   9.663  17.370  0.00  0.00    +0.000 C 
ATOM      6  C   UNL     1      -2.995  10.037  18.321  0.00  0.00    +0.000 C 
ATOM      7  C   UNL     1      -3.686  11.351  17.942  0.00  0.00    +0.000 C 
ATOM      8  C   UNL     1      -4.145  11.344  16.488  0.00  0.00    +0.000 C 
ATOM      9  C   UNL     1      -2.986  11.056  15.542  0.00  0.00    +0.000 C 
ATOM     10  C   UNL     1      -2.275   9.752  15.899  0.00  0.00    +0.000 C 
ENDBRANCH   3   5
BRANCH   1  11
ATOM     11  C   UNL     1       2.133   8.349  18.554  0.00  0.00    +0.000 C 
ATOM     12  C   UNL     1       3.179   8.504  17.440  0.00  0.00    +0.000 C 
BRANCH  11  16
ATOM     13  C   UNL     1       1.874   4.187  19.770  0.00  0.00    +0.000 A 
ATOM     14  C   UNL     1       1.773   5.213  20.717  0.00  0.00    +0.000 A 
ATOM     15  C   UNL     1       1.851   6.553  20.324  0.00  0.00    +0.000 A 
ATOM     16  C   UNL     1       2.025   6.893  18.976  0.00  0.00    +0.000 A 
ATOM     17  C   UNL     1       2.101   5.859  18.028  0.00  0.00    +0.000 A 
ATOM     18  C   UNL     1       2.037   4.522  18.422  0.00  0.00    +0.000 A 
BRANCH  13  20
ATOM     19  C   UNL     1       1.557   2.626  21.692  0.00  0.00    +0.000 C 
ATOM     20  C   UNL     1       1.748   2.745  20.187  0.00  0.00    +0.000 C 
ENDBRANCH  13  20
ENDBRANCH  11  16
ENDBRANCH   1  11
BRANCH   2  21
ATOM     21  S   UNL     1       1.336  11.419  18.885  0.00  0.00    +0.000 S 
ATOM     22  H   UNL     1       2.488  10.808  19.154  0.00  0.00    +0.000 HD
ENDBRANCH   2  21
TORSDOF 5
ENDMDL
MODEL 9
REMARK VINA RESULT:      -6.3      1.422      1.915
REMARK  Name = 
REMARK  7 active torsions:
REMARK  status: ('A' for Active; 'I' for Inactive)
REMARK    1  A    between atoms: C_1  and  C_2
REMARK    2  A    between atoms: C_2  and  C_3
REMARK    3  A    between atoms: C_6  and  C_7
REMARK    4  A    between atoms: C_7  and  C_8
REMARK    5  A    between atoms: C_7  and  N_9
REMARK    6  A    between atoms: C_10  and  S_11
REMARK    7  A    between atoms: N_12  and  C_13
REMARK                            x       y       z     vdW  Elec       q    Type
REMARK                         _______ _______ _______ _____ _____    ______ ____
ROOT
ATOM      1  N   UNL     1       4.869   5.876  18.103  0.00  0.00    +0.000 NA
ATOM      2  C   UNL     1       4.752   5.018  19.049  0.00  0.00    +0.000 C 
ATOM      3  N   UNL     1       3.592   4.840  19.755  0.00  0.00    +0.000 N 
ATOM      4  H   UNL     1       3.623   4.051  20.394  0.00  0.00    +0.000 HD
ENDROOT
BRANCH   3   5
ATOM      5  C   UNL     1       2.278   5.176  19.229  0.00  0.00    +0.000 C 
ATOM      6  C   UNL     1       2.063   4.489  17.874  0.00  0.00    +0.000 C 
ATOM      7  C   UNL     1       1.828   2.980  17.994  0.00  0.00    +0.000 C 
ATOM      8  C   UNL     1       0.697   2.664  18.967  0.00  0.00    +0.000 C 
ATOM      9  C   UNL     1       0.956   3.278  20.337  0.00  0.00    +0.000 C 
ATOM     10  C   UNL     1       1.198   4.784  20.247  0.00  0.00    +0.000 C 
ENDBRANCH   3   5
BRANCH   1  11
ATOM     11  C   UNL     1       6.087   6.135  17.343  0.00  0.00    +0.000 C 
ATOM     12  C   UNL     1       6.169   7.650  17.101  0.00  0.00    +0.000 C 
BRANCH  11  16
ATOM     13  C   UNL     1       6.128   4.047  13.534  0.00  0.00    +0.000 A 
ATOM     14  C   UNL     1       7.300   4.615  14.047  0.00  0.00    +0.000 A 
ATOM     15  C   UNL     1       7.287   5.283  15.276  0.00  0.00    +0.000 A 
ATOM     16  C   UNL     1       6.104   5.389  16.020  0.00  0.00    +0.000 A 
ATOM     17  C   UNL     1       4.937   4.795  15.510  0.00  0.00    +0.000 A 
ATOM     18  C   UNL     1       4.948   4.141  14.277  0.00  0.00    +0.000 A 
BRANCH  13  20
ATOM     19  C   UNL     1       4.748   3.134  11.664  0.00  0.00    +0.000 C 
ATOM     20  C   UNL     1       6.152   3.291  12.231  0.00  0.00    +0.000 C 
ENDBRANCH  13  20
ENDBRANCH  11  16
ENDBRANCH   1  11
BRANCH   2  21
ATOM     21  S   UNL     1       5.994   3.936  19.651  0.00  0.00    +0.000 S 
ATOM     22  H   UNL     1       6.950   4.189  18.759  0.00  0.00    +0.000 HD
ENDBRANCH   2  21
TORSDOF 5
ENDMDL
