MODEL 1
REMARK VINA RESULT:      -8.0      0.000      0.000
REMARK  Name = 
REMARK  8 active torsions:
REMARK  status: ('A' for Active; 'I' for Inactive)
REMARK    1  A    between atoms: C_2  and  C_3
REMARK    2  A    between atoms: C_3  and  O_4
REMARK    3  A    between atoms: O_4  and  C_5
REMARK    4  A    between atoms: C_8  and  N_9
REMARK    5  A    between atoms: C_11  and  N_12
REMARK    6  A    between atoms: C_13  and  C_15
REMARK    7  A    between atoms: C_15  and  N_16
REMARK    8  A    between atoms: C_23  and  C_24
REMARK                            x       y       z     vdW  Elec       q    Type
REMARK                         _______ _______ _______ _____ _____    ______ ____
ROOT
ATOM      1  N   UNL     1       0.478   9.815  20.843  0.00  0.00    +0.000 N 
ATOM      2  C   UNL     1       1.234   9.018  21.680  0.00  0.00    +0.000 C 
ATOM      3  O   UNL     1       1.905   9.461  22.610  0.00  0.00    +0.000 OA
ATOM      4  H   UNL     1      -0.225   9.329  20.282  0.00  0.00    +0.000 HD
ENDROOT
BRANCH   1   7
ATOM      5  N   UNL     1      -1.597  12.016  21.472  0.00  0.00    +0.000 NA
ATOM      6  C   UNL     1      -0.724  12.007  20.271  0.00  0.00    +0.000 C 
ATOM      7  C   UNL     1       0.370  11.279  21.064  0.00  0.00    +0.000 C 
ATOM      8  C   UNL     1      -0.415  11.696  22.320  0.00  0.00    +0.000 C 
BRANCH   5  12
ATOM      9  C   UNL     1      -5.084  13.034  22.088  0.00  0.00    +0.000 C 
ATOM     10  C   UNL     1      -4.095  12.665  23.202  0.00  0.00    +0.000 C 
ATOM     11  C   UNL     1      -2.780  13.443  23.139  0.00  0.00    +0.000 C 
ATOM     12  C   UNL     1      -2.090  13.383  21.761  0.00  0.00    +0.000 C 
ATOM     13  C   UNL     1      -3.105  13.886  20.718  0.00  0.00    +0.000 C 
ATOM     14  C   UNL     1      -4.412  13.097  20.714  0.00  0.00    +0.000 C 
BRANCH   9  15
ATOM     15  O   UNL     1      -6.136  12.065  21.983  0.00  0.00    +0.000 OA
BRANCH  15  16
ATOM     16  C   UNL     1      -6.732  11.976  20.694  0.00  0.00    +0.000 C 
BRANCH  16  18
ATOM     17  C   UNL     1      -7.068   9.816  19.394  0.00  0.00    +0.000 C 
ATOM     18  C   UNL     1      -7.290  10.600  20.457  0.00  0.00    +0.000 C 
ENDBRANCH  16  18
ENDBRANCH  15  16
ENDBRANCH   9  15
ENDBRANCH   5  12
ENDBRANCH   1   7
BRANCH   2  19
ATOM     19  C   UNL     1       1.153   7.520  21.395  0.00  0.00    +0.000 C 
BRANCH  19  20
ATOM     20  N   UNL     1       2.010   7.163  20.271  0.00  0.00    +0.000 N 
ATOM     21  C   UNL     1       2.262   5.871  19.984  0.00  0.00    +0.000 A 
ATOM     22  N   UNL     1       1.762   4.831  20.654  0.00  0.00    +0.000 NA
ATOM     23  N   UNL     1       2.236   3.763  19.990  0.00  0.00    +0.000 N 
ATOM     24  C   UNL     1       3.050   4.069  18.934  0.00  0.00    +0.000 A 
ATOM     25  C   UNL     1       3.721   3.259  18.012  0.00  0.00    +0.000 A 
ATOM     26  C   UNL     1       4.479   3.904  17.028  0.00  0.00    +0.000 A 
ATOM     27  C   UNL     1       4.561   5.305  16.961  0.00  0.00    +0.000 A 
ATOM     28  C   UNL     1       3.868   6.089  17.906  0.00  0.00    +0.000 A 
ATOM     29  C   UNL     1       3.102   5.456  18.909  0.00  0.00    +0.000 A 
ATOM     30  H   UNL     1       2.699   7.871  20.038  0.00  0.00    +0.000 HD
ATOM     31  H   UNL     1       1.960   2.841  20.308  0.00  0.00    +0.000 HD
BRANCH  27  32
ATOM     32  C   UNL     1       5.380   5.982  15.889  0.00  0.00    +0.000 C 
ATOM     33  F   UNL     1       6.646   6.299  16.285  0.00  0.00    +0.000 F 
ATOM     34  F   UNL     1       5.522   5.213  14.773  0.00  0.00    +0.000 F 
ATOM     35  F   UNL     1       4.823   7.151  15.467  0.00  0.00    +0.000 F 
ENDBRANCH  27  32
ENDBRANCH  19  20
ENDBRANCH   2  19
TORSDOF 8
ENDMDL
MODEL 2
REMARK VINA RESULT:      -7.8      2.006      3.283
REMARK  Name = 
REMARK  8 active torsions:
REMARK  status: ('A' for Active; 'I' for Inactive)
REMARK    1  A    between atoms: C_2  and  C_3
REMARK    2  A    between atoms: C_3  and  O_4
REMARK    3  A    between atoms: O_4  and  C_5
REMARK    4  A    between atoms: C_8  and  N_9
REMARK    5  A    between atoms: C_11  and  N_12
REMARK    6  A    between atoms: C_13  and  C_15
REMARK    7  A    between atoms: C_15  and  N_16
REMARK    8  A    between atoms: C_23  and  C_24
REMARK                            x       y       z     vdW  Elec       q    Type
REMARK                         _______ _______ _______ _____ _____    ______ ____
ROOT
ATOM      1  N   UNL     1      -1.377  10.160  18.765  0.00  0.00    +0.000 N 
ATOM      2  C   UNL     1      -0.104  10.643  18.999  0.00  0.00    +0.000 C 
ATOM      3  O   UNL     1       0.310  11.706  18.542  0.00  0.00    +0.000 OA
ATOM      4  H   UNL     1      -1.692   9.415  19.390  0.00  0.00    +0.000 HD
ENDROOT
BRANCH   1   7
ATOM      5  N   UNL     1      -4.343  11.025  18.811  0.00  0.00    +0.000 NA
ATOM      6  C   UNL     1      -3.711  10.262  17.707  0.00  0.00    +0.000 C 
ATOM      7  C   UNL     1      -2.369  10.949  17.991  0.00  0.00    +0.000 C 
ATOM      8  C   UNL     1      -3.186  11.962  18.812  0.00  0.00    +0.000 C 
BRANCH   5  12
ATOM      9  C   UNL     1      -7.142  12.214  20.892  0.00  0.00    +0.000 C 
ATOM     10  C   UNL     1      -5.950  13.091  20.486  0.00  0.00    +0.000 C 
ATOM     11  C   UNL     1      -5.691  13.116  18.979  0.00  0.00    +0.000 C 
ATOM     12  C   UNL     1      -5.571  11.714  18.348  0.00  0.00    +0.000 C 
ATOM     13  C   UNL     1      -6.857  10.943  18.696  0.00  0.00    +0.000 C 
ATOM     14  C   UNL     1      -7.121  10.849  20.197  0.00  0.00    +0.000 C 
BRANCH   9  15
ATOM     15  O   UNL     1      -7.140  11.951  22.302  0.00  0.00    +0.000 OA
BRANCH  15  16
ATOM     16  C   UNL     1      -6.483  12.940  23.087  0.00  0.00    +0.000 C 
BRANCH  16  18
ATOM     17  C   UNL     1      -4.562  12.442  24.679  0.00  0.00    +0.000 C 
ATOM     18  C   UNL     1      -5.841  12.321  24.298  0.00  0.00    +0.000 C 
ENDBRANCH  16  18
ENDBRANCH  15  16
ENDBRANCH   9  15
ENDBRANCH   5  12
ENDBRANCH   1   7
BRANCH   2  19
ATOM     19  C   UNL     1       0.760   9.772  19.908  0.00  0.00    +0.000 C 
BRANCH  19  20
ATOM     20  N   UNL     1       1.669   8.949  19.120  0.00  0.00    +0.000 N 
ATOM     21  C   UNL     1       2.042   7.729  19.555  0.00  0.00    +0.000 A 
ATOM     22  N   UNL     1       1.623   7.165  20.689  0.00  0.00    +0.000 NA
ATOM     23  N   UNL     1       2.205   5.953  20.679  0.00  0.00    +0.000 N 
ATOM     24  C   UNL     1       3.011   5.721  19.598  0.00  0.00    +0.000 A 
ATOM     25  C   UNL     1       3.770   4.607  19.228  0.00  0.00    +0.000 A 
ATOM     26  C   UNL     1       4.488   4.695  18.029  0.00  0.00    +0.000 A 
ATOM     27  C   UNL     1       4.446   5.847  17.227  0.00  0.00    +0.000 A 
ATOM     28  C   UNL     1       3.666   6.949  17.631  0.00  0.00    +0.000 A 
ATOM     29  C   UNL     1       2.939   6.882  18.839  0.00  0.00    +0.000 A 
ATOM     30  H   UNL     1       2.297   9.482  18.526  0.00  0.00    +0.000 HD
ATOM     31  H   UNL     1       2.006   5.321  21.446  0.00  0.00    +0.000 HD
BRANCH  27  32
ATOM     32  C   UNL     1       5.224   5.920  15.935  0.00  0.00    +0.000 C 
ATOM     33  F   UNL     1       4.887   6.985  15.152  0.00  0.00    +0.000 F 
ATOM     34  F   UNL     1       6.568   6.018  16.137  0.00  0.00    +0.000 F 
ATOM     35  F   UNL     1       5.044   4.818  15.154  0.00  0.00    +0.000 F 
ENDBRANCH  27  32
ENDBRANCH  19  20
ENDBRANCH   2  19
TORSDOF 8
ENDMDL
MODEL 3
REMARK VINA RESULT:      -7.7      0.981      1.184
REMARK  Name = 
REMARK  8 active torsions:
REMARK  status: ('A' for Active; 'I' for Inactive)
REMARK    1  A    between atoms: C_2  and  C_3
REMARK    2  A    between atoms: C_3  and  O_4
REMARK    3  A    between atoms: O_4  and  C_5
REMARK    4  A    between atoms: C_8  and  N_9
REMARK    5  A    between atoms: C_11  and  N_12
REMARK    6  A    between atoms: C_13  and  C_15
REMARK    7  A    between atoms: C_15  and  N_16
REMARK    8  A    between atoms: C_23  and  C_24
REMARK                            x       y       z     vdW  Elec       q    Type
REMARK                         _______ _______ _______ _____ _____    ______ ____
ROOT
ATOM      1  N   UNL     1       0.470  10.223  21.068  0.00  0.00    +0.000 N 
ATOM      2  C   UNL     1       1.041   9.435  20.087  0.00  0.00    +0.000 C 
ATOM      3  O   UNL     1       1.239   9.823  18.938  0.00  0.00    +0.000 OA
ATOM      4  H   UNL     1       0.588   9.893  22.028  0.00  0.00    +0.000 HD
ENDROOT
BRANCH   1   7
ATOM      5  N   UNL     1      -1.755  12.300  21.599  0.00  0.00    +0.000 NA
ATOM      6  C   UNL     1      -1.284  11.905  20.248  0.00  0.00    +0.000 C 
ATOM      7  C   UNL     1       0.121  11.642  20.807  0.00  0.00    +0.000 C 
ATOM      8  C   UNL     1      -0.339  12.441  22.040  0.00  0.00    +0.000 C 
BRANCH   5  12
ATOM      9  C   UNL     1      -5.344  12.986  22.073  0.00  0.00    +0.000 C 
ATOM     10  C   UNL     1      -4.311  13.030  23.207  0.00  0.00    +0.000 C 
ATOM     11  C   UNL     1      -3.110  13.930  22.910  0.00  0.00    +0.000 C 
ATOM     12  C   UNL     1      -2.424  13.622  21.564  0.00  0.00    +0.000 C 
ATOM     13  C   UNL     1      -3.500  13.719  20.468  0.00  0.00    +0.000 C 
ATOM     14  C   UNL     1      -4.691  12.794  20.702  0.00  0.00    +0.000 C 
BRANCH   9  15
ATOM     15  O   UNL     1      -6.259  11.895  22.244  0.00  0.00    +0.000 OA
BRANCH  15  16
ATOM     16  C   UNL     1      -7.528  12.084  21.629  0.00  0.00    +0.000 C 
BRANCH  16  18
ATOM     17  C   UNL     1      -7.106  10.114  20.075  0.00  0.00    +0.000 C 
ATOM     18  C   UNL     1      -7.917  10.875  20.823  0.00  0.00    +0.000 C 
ENDBRANCH  16  18
ENDBRANCH  15  16
ENDBRANCH   9  15
ENDBRANCH   5  12
ENDBRANCH   1   7
BRANCH   2  19
ATOM     19  C   UNL     1       1.450   8.035  20.540  0.00  0.00    +0.000 C 
BRANCH  19  20
ATOM     20  N   UNL     1       2.273   7.387  19.526  0.00  0.00    +0.000 N 
ATOM     21  C   UNL     1       2.396   6.045  19.498  0.00  0.00    +0.000 A 
ATOM     22  N   UNL     1       1.791   5.207  20.342  0.00  0.00    +0.000 NA
ATOM     23  N   UNL     1       2.160   3.990  19.907  0.00  0.00    +0.000 N 
ATOM     24  C   UNL     1       3.006   4.007  18.831  0.00  0.00    +0.000 A 
ATOM     25  C   UNL     1       3.597   2.972  18.099  0.00  0.00    +0.000 A 
ATOM     26  C   UNL     1       4.420   3.339  17.028  0.00  0.00    +0.000 A 
ATOM     27  C   UNL     1       4.642   4.686  16.696  0.00  0.00    +0.000 A 
ATOM     28  C   UNL     1       4.026   5.701  17.456  0.00  0.00    +0.000 A 
ATOM     29  C   UNL     1       3.196   5.351  18.543  0.00  0.00    +0.000 A 
ATOM     30  H   UNL     1       3.031   7.966  19.178  0.00  0.00    +0.000 HD
ATOM     31  H   UNL     1       1.792   3.178  20.389  0.00  0.00    +0.000 HD
BRANCH  27  32
ATOM     32  C   UNL     1       5.530   5.061  15.534  0.00  0.00    +0.000 C 
ATOM     33  F   UNL     1       5.166   6.222  14.919  0.00  0.00    +0.000 F 
ATOM     34  F   UNL     1       6.832   5.229  15.902  0.00  0.00    +0.000 F 
ATOM     35  F   UNL     1       5.538   4.113  14.556  0.00  0.00    +0.000 F 
ENDBRANCH  27  32
ENDBRANCH  19  20
ENDBRANCH   2  19
TORSDOF 8
ENDMDL
MODEL 4
REMARK VINA RESULT:      -7.6      4.524      7.531
REMARK  Name = 
REMARK  8 active torsions:
REMARK  status: ('A' for Active; 'I' for Inactive)
REMARK    1  A    between atoms: C_2  and  C_3
REMARK    2  A    between atoms: C_3  and  O_4
REMARK    3  A    between atoms: O_4  and  C_5
REMARK    4  A    between atoms: C_8  and  N_9
REMARK    5  A    between atoms: C_11  and  N_12
REMARK    6  A    between atoms: C_13  and  C_15
REMARK    7  A    between atoms: C_15  and  N_16
REMARK    8  A    between atoms: C_23  and  C_24
REMARK                            x       y       z     vdW  Elec       q    Type
REMARK                         _______ _______ _______ _____ _____    ______ ____
ROOT
ATOM      1  N   UNL     1       1.480  11.866  20.280  0.00  0.00    +0.000 N 
ATOM      2  C   UNL     1       0.634  11.018  19.593  0.00  0.00    +0.000 C 
ATOM      3  O   UNL     1      -0.085  11.385  18.666  0.00  0.00    +0.000 OA
ATOM      4  H   UNL     1       2.202  11.413  20.844  0.00  0.00    +0.000 HD
ENDROOT
BRANCH   1   7
ATOM      5  N   UNL     1       3.641  13.983  19.648  0.00  0.00    +0.000 NA
ATOM      6  C   UNL     1       2.617  14.124  20.712  0.00  0.00    +0.000 C 
ATOM      7  C   UNL     1       1.631  13.289  19.885  0.00  0.00    +0.000 C 
ATOM      8  C   UNL     1       2.579  13.543  18.700  0.00  0.00    +0.000 C 
BRANCH   5  12
ATOM      9  C   UNL     1       7.129  14.783  18.774  0.00  0.00    +0.000 C 
ATOM     10  C   UNL     1       6.059  14.402  17.742  0.00  0.00    +0.000 C 
ATOM     11  C   UNL     1       4.789  15.249  17.833  0.00  0.00    +0.000 C 
ATOM     12  C   UNL     1       4.181  15.303  19.249  0.00  0.00    +0.000 C 
ATOM     13  C   UNL     1       5.279  15.812  20.200  0.00  0.00    +0.000 C 
ATOM     14  C   UNL     1       6.545  14.959  20.178  0.00  0.00    +0.000 C 
BRANCH   9  15
ATOM     15  O   UNL     1       8.138  13.768  18.878  0.00  0.00    +0.000 OA
BRANCH  15  16
ATOM     16  C   UNL     1       8.313  12.984  17.704  0.00  0.00    +0.000 C 
BRANCH  16  18
ATOM     17  C   UNL     1       9.760  11.383  19.049  0.00  0.00    +0.000 C 
ATOM     18  C   UNL     1       9.402  11.966  17.897  0.00  0.00    +0.000 C 
ENDBRANCH  16  18
ENDBRANCH  15  16
ENDBRANCH   9  15
ENDBRANCH   5  12
ENDBRANCH   1   7
BRANCH   2  19
ATOM     19  C   UNL     1       0.675   9.559  20.044  0.00  0.00    +0.000 C 
BRANCH  19  20
ATOM     20  N   UNL     1       1.609   8.795  19.226  0.00  0.00    +0.000 N 
ATOM     21  C   UNL     1       2.042   7.584  19.629  0.00  0.00    +0.000 A 
ATOM     22  N   UNL     1       1.665   6.977  20.755  0.00  0.00    +0.000 NA
ATOM     23  N   UNL     1       2.300   5.793  20.712  0.00  0.00    +0.000 N 
ATOM     24  C   UNL     1       3.100   5.622  19.615  0.00  0.00    +0.000 A 
ATOM     25  C   UNL     1       3.904   4.551  19.211  0.00  0.00    +0.000 A 
ATOM     26  C   UNL     1       4.600   4.697  18.005  0.00  0.00    +0.000 A 
ATOM     27  C   UNL     1       4.496   5.863  17.229  0.00  0.00    +0.000 A 
ATOM     28  C   UNL     1       3.673   6.920  17.668  0.00  0.00    +0.000 A 
ATOM     29  C   UNL     1       2.966   6.794  18.883  0.00  0.00    +0.000 A 
ATOM     30  H   UNL     1       2.205   9.368  18.636  0.00  0.00    +0.000 HD
ATOM     31  H   UNL     1       2.140   5.136  21.467  0.00  0.00    +0.000 HD
BRANCH  27  32
ATOM     32  C   UNL     1       5.252   5.998  15.929  0.00  0.00    +0.000 C 
ATOM     33  F   UNL     1       6.599   6.141  16.092  0.00  0.00    +0.000 F 
ATOM     34  F   UNL     1       5.089   4.919  15.113  0.00  0.00    +0.000 F 
ATOM     35  F   UNL     1       4.852   7.079  15.203  0.00  0.00    +0.000 F 
ENDBRANCH  27  32
ENDBRANCH  19  20
ENDBRANCH   2  19
TORSDOF 8
ENDMDL
MODEL 5
REMARK VINA RESULT:      -7.6      5.260     11.443
REMARK  Name = 
REMARK  8 active torsions:
REMARK  status: ('A' for Active; 'I' for Inactive)
REMARK    1  A    between atoms: C_2  and  C_3
REMARK    2  A    between atoms: C_3  and  O_4
REMARK    3  A    between atoms: O_4  and  C_5
REMARK    4  A    between atoms: C_8  and  N_9
REMARK    5  A    between atoms: C_11  and  N_12
REMARK    6  A    between atoms: C_13  and  C_15
REMARK    7  A    between atoms: C_15  and  N_16
REMARK    8  A    between atoms: C_23  and  C_24
REMARK                            x       y       z     vdW  Elec       q    Type
REMARK                         _______ _______ _______ _____ _____    ______ ____
ROOT
ATOM      1  N   UNL     1       1.797   7.777  20.947  0.00  0.00    +0.000 N 
ATOM      2  C   UNL     1       0.689   8.275  21.605  0.00  0.00    +0.000 C 
ATOM      3  O   UNL     1      -0.436   7.793  21.493  0.00  0.00    +0.000 OA
ATOM      4  H   UNL     1       2.703   8.087  21.306  0.00  0.00    +0.000 HD
ENDROOT
BRANCH   1   7
ATOM      5  N   UNL     1       3.572   5.778  19.398  0.00  0.00    +0.000 NA
ATOM      6  C   UNL     1       2.491   6.588  18.784  0.00  0.00    +0.000 C 
ATOM      7  C   UNL     1       1.709   6.559  20.104  0.00  0.00    +0.000 C 
ATOM      8  C   UNL     1       2.651   5.411  20.510  0.00  0.00    +0.000 C 
BRANCH   5  12
ATOM      9  C   UNL     1       6.314   5.432  16.962  0.00  0.00    +0.000 C 
ATOM     10  C   UNL     1       6.420   4.999  18.431  0.00  0.00    +0.000 C 
ATOM     11  C   UNL     1       5.299   4.058  18.876  0.00  0.00    +0.000 C 
ATOM     12  C   UNL     1       3.885   4.591  18.569  0.00  0.00    +0.000 C 
ATOM     13  C   UNL     1       3.823   4.883  17.058  0.00  0.00    +0.000 C 
ATOM     14  C   UNL     1       4.894   5.863  16.585  0.00  0.00    +0.000 C 
BRANCH   9  15
ATOM     15  O   UNL     1       7.165   6.554  16.687  0.00  0.00    +0.000 OA
BRANCH  15  16
ATOM     16  C   UNL     1       6.929   7.692  17.508  0.00  0.00    +0.000 C 
BRANCH  16  18
ATOM     17  C   UNL     1       8.491   9.563  18.235  0.00  0.00    +0.000 C 
ATOM     18  C   UNL     1       8.224   8.270  18.007  0.00  0.00    +0.000 C 
ENDBRANCH  16  18
ENDBRANCH  15  16
ENDBRANCH   9  15
ENDBRANCH   5  12
ENDBRANCH   1   7
BRANCH   2  19
ATOM     19  C   UNL     1       0.962   9.463  22.525  0.00  0.00    +0.000 C 
BRANCH  19  20
ATOM     20  N   UNL     1      -0.263  10.212  22.775  0.00  0.00    +0.000 N 
ATOM     21  C   UNL     1      -0.407  11.467  22.306  0.00  0.00    +0.000 A 
ATOM     22  N   UNL     1       0.504  12.118  21.580  0.00  0.00    +0.000 NA
ATOM     23  N   UNL     1      -0.087  13.292  21.300  0.00  0.00    +0.000 N 
ATOM     24  C   UNL     1      -1.334  13.441  21.843  0.00  0.00    +0.000 A 
ATOM     25  C   UNL     1      -2.255  14.492  21.779  0.00  0.00    +0.000 A 
ATOM     26  C   UNL     1      -3.470  14.316  22.451  0.00  0.00    +0.000 A 
ATOM     27  C   UNL     1      -3.759  13.136  23.157  0.00  0.00    +0.000 A 
ATOM     28  C   UNL     1      -2.806  12.097  23.196  0.00  0.00    +0.000 A 
ATOM     29  C   UNL     1      -1.573  12.258  22.528  0.00  0.00    +0.000 A 
ATOM     30  H   UNL     1      -0.749   9.936  23.623  0.00  0.00    +0.000 HD
ATOM     31  H   UNL     1       0.417  13.956  20.723  0.00  0.00    +0.000 HD
BRANCH  27  32
ATOM     32  C   UNL     1      -5.077  12.965  23.873  0.00  0.00    +0.000 C 
ATOM     33  F   UNL     1      -6.040  12.369  23.112  0.00  0.00    +0.000 F 
ATOM     34  F   UNL     1      -4.968  12.202  24.997  0.00  0.00    +0.000 F 
ATOM     35  F   UNL     1      -5.609  14.151  24.277  0.00  0.00    +0.000 F 
ENDBRANCH  27  32
ENDBRANCH  19  20
ENDBRANCH   2  19
TORSDOF 8
ENDMDL
MODEL 6
REMARK VINA RESULT:      -7.6      7.519      9.461
REMARK  Name = 
REMARK  8 active torsions:
REMARK  status: ('A' for Active; 'I' for Inactive)
REMARK    1  A    between atoms: C_2  and  C_3
REMARK    2  A    between atoms: C_3  and  O_4
REMARK    3  A    between atoms: O_4  and  C_5
REMARK    4  A    between atoms: C_8  and  N_9
REMARK    5  A    between atoms: C_11  and  N_12
REMARK    6  A    between atoms: C_13  and  C_15
REMARK    7  A    between atoms: C_15  and  N_16
REMARK    8  A    between atoms: C_23  and  C_24
REMARK                            x       y       z     vdW  Elec       q    Type
REMARK                         _______ _______ _______ _____ _____    ______ ____
ROOT
ATOM      1  N   UNL     1       8.896   8.810  18.732  0.00  0.00    +0.000 N 
ATOM      2  C   UNL     1       8.133   7.833  18.122  0.00  0.00    +0.000 C 
ATOM      3  O   UNL     1       7.507   8.017  17.081  0.00  0.00    +0.000 OA
ATOM      4  H   UNL     1       9.564   8.480  19.432  0.00  0.00    +0.000 HD
ENDROOT
BRANCH   1   7
ATOM      5  N   UNL     1       9.314  11.779  19.479  0.00  0.00    +0.000 NA
ATOM      6  C   UNL     1       8.179  11.272  18.669  0.00  0.00    +0.000 C 
ATOM      7  C   UNL     1       9.068  10.150  18.115  0.00  0.00    +0.000 C 
ATOM      8  C   UNL     1      10.253  10.972  18.652  0.00  0.00    +0.000 C 
BRANCH   5  12
ATOM      9  C   UNL     1       8.540  14.536  21.798  0.00  0.00    +0.000 C 
ATOM     10  C   UNL     1       9.913  13.856  21.712  0.00  0.00    +0.000 C 
ATOM     11  C   UNL     1      10.493  13.818  20.297  0.00  0.00    +0.000 C 
ATOM     12  C   UNL     1       9.529  13.227  19.249  0.00  0.00    +0.000 C 
ATOM     13  C   UNL     1       8.225  14.043  19.313  0.00  0.00    +0.000 C 
ATOM     14  C   UNL     1       7.586  14.058  20.700  0.00  0.00    +0.000 C 
BRANCH   9  15
ATOM     15  O   UNL     1       7.896  14.253  23.048  0.00  0.00    +0.000 OA
BRANCH  15  16
ATOM     16  C   UNL     1       6.740  13.430  22.945  0.00  0.00    +0.000 C 
BRANCH  16  18
ATOM     17  C   UNL     1       8.077  11.613  24.119  0.00  0.00    +0.000 C 
ATOM     18  C   UNL     1       6.918  12.158  23.726  0.00  0.00    +0.000 C 
ENDBRANCH  16  18
ENDBRANCH  15  16
ENDBRANCH   9  15
ENDBRANCH   5  12
ENDBRANCH   1   7
BRANCH   2  19
ATOM     19  C   UNL     1       8.148   6.473  18.817  0.00  0.00    +0.000 C 
BRANCH  19  20
ATOM     20  N   UNL     1       6.792   6.045  19.138  0.00  0.00    +0.000 N 
ATOM     21  C   UNL     1       6.144   5.170  18.344  0.00  0.00    +0.000 A 
ATOM     22  N   UNL     1       6.656   4.614  17.245  0.00  0.00    +0.000 NA
ATOM     23  N   UNL     1       5.686   3.787  16.821  0.00  0.00    +0.000 N 
ATOM     24  C   UNL     1       4.551   3.807  17.585  0.00  0.00    +0.000 A 
ATOM     25  C   UNL     1       3.348   3.103  17.479  0.00  0.00    +0.000 A 
ATOM     26  C   UNL     1       2.373   3.356  18.451  0.00  0.00    +0.000 A 
ATOM     27  C   UNL     1       2.591   4.273  19.493  0.00  0.00    +0.000 A 
ATOM     28  C   UNL     1       3.819   4.962  19.568  0.00  0.00    +0.000 A 
ATOM     29  C   UNL     1       4.812   4.723  18.594  0.00  0.00    +0.000 A 
ATOM     30  H   UNL     1       6.260   6.727  19.671  0.00  0.00    +0.000 HD
ATOM     31  H   UNL     1       5.864   3.224  15.997  0.00  0.00    +0.000 HD
BRANCH  27  32
ATOM     32  C   UNL     1       1.529   4.528  20.534  0.00  0.00    +0.000 C 
ATOM     33  F   UNL     1       0.308   4.013  20.209  0.00  0.00    +0.000 F 
ATOM     34  F   UNL     1       1.845   3.995  21.748  0.00  0.00    +0.000 F 
ATOM     35  F   UNL     1       1.321   5.856  20.753  0.00  0.00    +0.000 F 
ENDBRANCH  27  32
ENDBRANCH  19  20
ENDBRANCH   2  19
TORSDOF 8
ENDMDL
MODEL 7
REMARK VINA RESULT:      -7.6      4.462      6.216
REMARK  Name = 
REMARK  8 active torsions:
REMARK  status: ('A' for Active; 'I' for Inactive)
REMARK    1  A    between atoms: C_2  and  C_3
REMARK    2  A    between atoms: C_3  and  O_4
REMARK    3  A    between atoms: O_4  and  C_5
REMARK    4  A    between atoms: C_8  and  N_9
REMARK    5  A    between atoms: C_11  and  N_12
REMARK    6  A    between atoms: C_13  and  C_15
REMARK    7  A    between atoms: C_15  and  N_16
REMARK    8  A    between atoms: C_23  and  C_24
REMARK                            x       y       z     vdW  Elec       q    Type
REMARK                         _______ _______ _______ _____ _____    ______ ____
ROOT
ATOM      1  N   UNL     1       0.936  11.420  18.329  0.00  0.00    +0.000 N 
ATOM      2  C   UNL     1       1.142  10.127  18.770  0.00  0.00    +0.000 C 
ATOM      3  O   UNL     1       0.522   9.625  19.705  0.00  0.00    +0.000 OA
ATOM      4  H   UNL     1       1.313  11.640  17.405  0.00  0.00    +0.000 HD
ENDROOT
BRANCH   1   7
ATOM      5  N   UNL     1       0.445  14.296  19.346  0.00  0.00    +0.000 NA
ATOM      6  C   UNL     1       0.275  13.076  20.172  0.00  0.00    +0.000 C 
ATOM      7  C   UNL     1      -0.121  12.277  18.923  0.00  0.00    +0.000 C 
ATOM      8  C   UNL     1      -0.315  13.644  18.244  0.00  0.00    +0.000 C 
BRANCH   5  12
ATOM      9  C   UNL     1       1.639  17.742  19.868  0.00  0.00    +0.000 C 
ATOM     10  C   UNL     1       0.903  17.279  18.604  0.00  0.00    +0.000 C 
ATOM     11  C   UNL     1      -0.431  16.585  18.890  0.00  0.00    +0.000 C 
ATOM     12  C   UNL     1      -0.322  15.432  19.908  0.00  0.00    +0.000 C 
ATOM     13  C   UNL     1       0.311  16.008  21.188  0.00  0.00    +0.000 C 
ATOM     14  C   UNL     1       1.670  16.661  20.951  0.00  0.00    +0.000 C 
BRANCH   9  15
ATOM     15  O   UNL     1       3.006  18.071  19.583  0.00  0.00    +0.000 OA
BRANCH  15  16
ATOM     16  C   UNL     1       3.921  16.993  19.743  0.00  0.00    +0.000 C 
BRANCH  16  18
ATOM     17  C   UNL     1       3.989  15.438  17.731  0.00  0.00    +0.000 C 
ATOM     18  C   UNL     1       4.419  16.511  18.408  0.00  0.00    +0.000 C 
ENDBRANCH  16  18
ENDBRANCH  15  16
ENDBRANCH   9  15
ENDBRANCH   5  12
ENDBRANCH   1   7
BRANCH   2  19
ATOM     19  C   UNL     1       2.184   9.334  17.983  0.00  0.00    +0.000 C 
BRANCH  19  20
ATOM     20  N   UNL     1       2.038   7.905  18.234  0.00  0.00    +0.000 N 
ATOM     21  C   UNL     1       2.980   7.037  17.814  0.00  0.00    +0.000 A 
ATOM     22  N   UNL     1       4.099   7.378  17.174  0.00  0.00    +0.000 NA
ATOM     23  N   UNL     1       4.743   6.210  17.006  0.00  0.00    +0.000 N 
ATOM     24  C   UNL     1       4.069   5.119  17.485  0.00  0.00    +0.000 A 
ATOM     25  C   UNL     1       4.397   3.760  17.506  0.00  0.00    +0.000 A 
ATOM     26  C   UNL     1       3.471   2.890  18.092  0.00  0.00    +0.000 A 
ATOM     27  C   UNL     1       2.266   3.356  18.642  0.00  0.00    +0.000 A 
ATOM     28  C   UNL     1       1.971   4.734  18.605  0.00  0.00    +0.000 A 
ATOM     29  C   UNL     1       2.890   5.627  18.014  0.00  0.00    +0.000 A 
ATOM     30  H   UNL     1       1.075   7.597  18.316  0.00  0.00    +0.000 HD
ATOM     31  H   UNL     1       5.651   6.224  16.556  0.00  0.00    +0.000 HD
BRANCH  27  32
ATOM     32  C   UNL     1       1.282   2.401  19.274  0.00  0.00    +0.000 C 
ATOM     33  F   UNL     1       0.818   2.816  20.487  0.00  0.00    +0.000 F 
ATOM     34  F   UNL     1       0.176   2.200  18.503  0.00  0.00    +0.000 F 
ATOM     35  F   UNL     1       1.817   1.166  19.487  0.00  0.00    +0.000 F 
ENDBRANCH  27  32
ENDBRANCH  19  20
ENDBRANCH   2  19
TORSDOF 8
ENDMDL
MODEL 8
REMARK VINA RESULT:      -7.5      7.975      9.973
REMARK  Name = 
REMARK  8 active torsions:
REMARK  status: ('A' for Active; 'I' for Inactive)
REMARK    1  A    between atoms: C_2  and  C_3
REMARK    2  A    between atoms: C_3  and  O_4
REMARK    3  A    between atoms: O_4  and  C_5
REMARK    4  A    between atoms: C_8  and  N_9
REMARK    5  A    between atoms: C_11  and  N_12
REMARK    6  A    between atoms: C_13  and  C_15
REMARK    7  A    between atoms: C_15  and  N_16
REMARK    8  A    between atoms: C_23  and  C_24
REMARK                            x       y       z     vdW  Elec       q    Type
REMARK                         _______ _______ _______ _____ _____    ______ ____
ROOT
ATOM      1  N   UNL     1       8.204   9.128  17.840  0.00  0.00    +0.000 N 
ATOM      2  C   UNL     1       7.791   7.815  17.966  0.00  0.00    +0.000 C 
ATOM      3  O   UNL     1       8.305   7.017  18.746  0.00  0.00    +0.000 OA
ATOM      4  H   UNL     1       7.554   9.754  17.362  0.00  0.00    +0.000 HD
ENDROOT
BRANCH   1   7
ATOM      5  N   UNL     1       9.160  11.790  19.084  0.00  0.00    +0.000 NA
ATOM      6  C   UNL     1       9.985  10.939  18.191  0.00  0.00    +0.000 C 
ATOM      7  C   UNL     1       9.269   9.686  18.711  0.00  0.00    +0.000 C 
ATOM      8  C   UNL     1       8.774  10.580  19.862  0.00  0.00    +0.000 C 
BRANCH   5  12
ATOM      9  C   UNL     1       8.946  15.461  19.311  0.00  0.00    +0.000 C 
ATOM     10  C   UNL     1       8.233  14.505  20.277  0.00  0.00    +0.000 C 
ATOM     11  C   UNL     1       9.164  13.476  20.920  0.00  0.00    +0.000 C 
ATOM     12  C   UNL     1      10.011  12.685  19.903  0.00  0.00    +0.000 C 
ATOM     13  C   UNL     1      10.787  13.711  19.057  0.00  0.00    +0.000 C 
ATOM     14  C   UNL     1       9.886  14.723  18.354  0.00  0.00    +0.000 C 
BRANCH   9  15
ATOM     15  O   UNL     1       8.005  16.169  18.490  0.00  0.00    +0.000 OA
BRANCH  15  16
ATOM     16  C   UNL     1       8.205  17.577  18.441  0.00  0.00    +0.000 C 
BRANCH  16  18
ATOM     17  C   UNL     1       7.746  18.614  20.718  0.00  0.00    +0.000 C 
ATOM     18  C   UNL     1       8.579  18.112  19.795  0.00  0.00    +0.000 C 
ENDBRANCH  16  18
ENDBRANCH  15  16
ENDBRANCH   9  15
ENDBRANCH   5  12
ENDBRANCH   1   7
BRANCH   2  19
ATOM     19  C   UNL     1       6.609   7.422  17.082  0.00  0.00    +0.000 C 
BRANCH  19  20
ATOM     20  N   UNL     1       5.638   6.642  17.840  0.00  0.00    +0.000 N 
ATOM     21  C   UNL     1       5.319   5.389  17.460  0.00  0.00    +0.000 A 
ATOM     22  N   UNL     1       5.848   4.753  16.414  0.00  0.00    +0.000 NA
ATOM     23  N   UNL     1       5.279   3.536  16.456  0.00  0.00    +0.000 N 
ATOM     24  C   UNL     1       4.377   3.368  17.472  0.00  0.00    +0.000 A 
ATOM     25  C   UNL     1       3.597   2.271  17.849  0.00  0.00    +0.000 A 
ATOM     26  C   UNL     1       2.770   2.431  18.967  0.00  0.00    +0.000 A 
ATOM     27  C   UNL     1       2.726   3.638  19.685  0.00  0.00    +0.000 A 
ATOM     28  C   UNL     1       3.530   4.721  19.277  0.00  0.00    +0.000 A 
ATOM     29  C   UNL     1       4.367   4.580  18.149  0.00  0.00    +0.000 A 
ATOM     30  H   UNL     1       4.952   7.206  18.334  0.00  0.00    +0.000 HD
ATOM     31  H   UNL     1       5.554   2.854  15.758  0.00  0.00    +0.000 HD
BRANCH  27  32
ATOM     32  C   UNL     1       1.830   3.789  20.891  0.00  0.00    +0.000 C 
ATOM     33  F   UNL     1       1.534   2.607  21.504  0.00  0.00    +0.000 F 
ATOM     34  F   UNL     1       2.378   4.580  21.855  0.00  0.00    +0.000 F 
ATOM     35  F   UNL     1       0.630   4.354  20.582  0.00  0.00    +0.000 F 
ENDBRANCH  27  32
ENDBRANCH  19  20
ENDBRANCH   2  19
TORSDOF 8
ENDMDL
MODEL 9
REMARK VINA RESULT:      -7.5      1.250      1.676
REMARK  Name = 
REMARK  8 active torsions:
REMARK  status: ('A' for Active; 'I' for Inactive)
REMARK    1  A    between atoms: C_2  and  C_3
REMARK    2  A    between atoms: C_3  and  O_4
REMARK    3  A    between atoms: O_4  and  C_5
REMARK    4  A    between atoms: C_8  and  N_9
REMARK    5  A    between atoms: C_11  and  N_12
REMARK    6  A    between atoms: C_13  and  C_15
REMARK    7  A    between atoms: C_15  and  N_16
REMARK    8  A    between atoms: C_23  and  C_24
REMARK                            x       y       z     vdW  Elec       q    Type
REMARK                         _______ _______ _______ _____ _____    ______ ____
ROOT
ATOM      1  N   UNL     1       0.495  10.078  20.679  0.00  0.00    +0.000 N 
ATOM      2  C   UNL     1       1.159   9.288  21.598  0.00  0.00    +0.000 C 
ATOM      3  O   UNL     1       1.769   9.743  22.563  0.00  0.00    +0.000 OA
ATOM      4  H   UNL     1      -0.178   9.593  20.082  0.00  0.00    +0.000 HD
ENDROOT
BRANCH   1   7
ATOM      5  N   UNL     1      -1.511  12.330  21.348  0.00  0.00    +0.000 NA
ATOM      6  C   UNL     1      -0.720  12.259  20.095  0.00  0.00    +0.000 C 
ATOM      7  C   UNL     1       0.416  11.551  20.844  0.00  0.00    +0.000 C 
ATOM      8  C   UNL     1      -0.280  12.030  22.131  0.00  0.00    +0.000 C 
BRANCH   5  12
ATOM      9  C   UNL     1      -4.782  13.368  22.689  0.00  0.00    +0.000 C 
ATOM     10  C   UNL     1      -3.542  13.130  23.560  0.00  0.00    +0.000 C 
ATOM     11  C   UNL     1      -2.310  13.912  23.102  0.00  0.00    +0.000 C 
ATOM     12  C   UNL     1      -1.971  13.714  21.611  0.00  0.00    +0.000 C 
ATOM     13  C   UNL     1      -3.224  14.092  20.801  0.00  0.00    +0.000 C 
ATOM     14  C   UNL     1      -4.464  13.292  21.193  0.00  0.00    +0.000 C 
BRANCH   9  15
ATOM     15  O   UNL     1      -5.793  12.380  22.940  0.00  0.00    +0.000 OA
BRANCH  15  16
ATOM     16  C   UNL     1      -6.466  12.525  24.185  0.00  0.00    +0.000 C 
BRANCH  16  18
ATOM     17  C   UNL     1      -7.912  14.479  23.438  0.00  0.00    +0.000 C 
ATOM     18  C   UNL     1      -7.755  13.278  24.012  0.00  0.00    +0.000 C 
ENDBRANCH  16  18
ENDBRANCH  15  16
ENDBRANCH   9  15
ENDBRANCH   5  12
ENDBRANCH   1   7
BRANCH   2  19
ATOM     19  C   UNL     1       1.052   7.784  21.356  0.00  0.00    +0.000 C 
BRANCH  19  20
ATOM     20  N   UNL     1       1.910   7.380  20.249  0.00  0.00    +0.000 N 
ATOM     21  C   UNL     1       2.086   6.076  19.958  0.00  0.00    +0.000 A 
ATOM     22  N   UNL     1       1.505   5.066  20.609  0.00  0.00    +0.000 NA
ATOM     23  N   UNL     1       1.926   3.974  19.948  0.00  0.00    +0.000 N 
ATOM     24  C   UNL     1       2.782   4.234  18.913  0.00  0.00    +0.000 A 
ATOM     25  C   UNL     1       3.420   3.387  18.001  0.00  0.00    +0.000 A 
ATOM     26  C   UNL     1       4.240   3.989  17.039  0.00  0.00    +0.000 A 
ATOM     27  C   UNL     1       4.413   5.381  16.984  0.00  0.00    +0.000 A 
ATOM     28  C   UNL     1       3.750   6.203  17.919  0.00  0.00    +0.000 A 
ATOM     29  C   UNL     1       2.923   5.615  18.899  0.00  0.00    +0.000 A 
ATOM     30  H   UNL     1       2.649   8.044  20.036  0.00  0.00    +0.000 HD
ATOM     31  H   UNL     1       1.584   3.069  20.253  0.00  0.00    +0.000 HD
BRANCH  27  32
ATOM     32  C   UNL     1       5.298   6.011  15.936  0.00  0.00    +0.000 C 
ATOM     33  F   UNL     1       5.549   5.197  14.870  0.00  0.00    +0.000 F 
ATOM     34  F   UNL     1       4.764   7.151  15.414  0.00  0.00    +0.000 F 
ATOM     35  F   UNL     1       6.520   6.362  16.426  0.00  0.00    +0.000 F 
ENDBRANCH  27  32
ENDBRANCH  19  20
ENDBRANCH   2  19
TORSDOF 8
ENDMDL
