MODEL 1
REMARK VINA RESULT:      -7.3      0.000      0.000
REMARK  Name = 
REMARK  6 active torsions:
REMARK  status: ('A' for Active; 'I' for Inactive)
REMARK    1  A    between atoms: C_1  and  C_2
REMARK    2  A    between atoms: C_10  and  C_11
REMARK    3  A    between atoms: N_21  and  C_22
REMARK    4  A    between atoms: C_22  and  C_23
REMARK    5  A    between atoms: N_26  and  S_27
REMARK    6  A    between atoms: S_27  and  C_28
REMARK                            x       y       z     vdW  Elec       q    Type
REMARK                         _______ _______ _______ _____ _____    ______ ____
ROOT
ATOM      1  C   UNL     1       2.427   2.866  17.727  0.00  0.00    +0.000 C 
ATOM      2  C   UNL     1       1.791   3.054  19.101  0.00  0.00    +0.000 C 
ATOM      3  C   UNL     1       2.099   1.801  19.958  0.00  0.00    +0.000 C 
ATOM      4  O   UNL     1       1.463   1.869  21.246  0.00  0.00    +0.000 OA
ATOM      5  C   UNL     1       1.909   3.036  21.960  0.00  0.00    +0.000 C 
ATOM      6  C   UNL     1       1.584   4.329  21.187  0.00  0.00    +0.000 C 
ATOM      7  N   UNL     1       2.230   4.245  19.872  0.00  0.00    +0.000 N 
ATOM      8  C   UNL     1       2.498   5.429  19.217  0.00  0.00    +0.000 A 
ATOM      9  N   UNL     1       3.483   5.373  18.303  0.00  0.00    +0.000 NA
ATOM     10  C   UNL     1       3.878   6.483  17.656  0.00  0.00    +0.000 A 
ATOM     11  C   UNL     1       3.247   7.666  17.917  0.00  0.00    +0.000 A 
ATOM     12  C   UNL     1       2.270   7.675  18.896  0.00  0.00    +0.000 A 
ATOM     13  N   UNL     1       1.891   6.576  19.560  0.00  0.00    +0.000 NA
ATOM     14  N   UNL     1       1.803   8.974  19.122  0.00  0.00    +0.000 N 
ATOM     15  C   UNL     1       2.351   9.829  18.071  0.00  0.00    +0.000 C 
ATOM     16  C   UNL     1       3.412   9.015  17.322  0.00  0.00    +0.000 C 
ENDROOT
BRANCH  10  17
ATOM     17  C   UNL     1       4.991   6.275  16.727  0.00  0.00    +0.000 A 
ATOM     18  C   UNL     1       4.824   5.685  15.485  0.00  0.00    +0.000 A 
ATOM     19  N   UNL     1       5.818   5.429  14.602  0.00  0.00    +0.000 NA
ATOM     20  C   UNL     1       7.046   5.751  14.987  0.00  0.00    +0.000 A 
ATOM     21  N   UNL     1       8.082   5.484  14.119  0.00  0.00    +0.000 N 
ATOM     22  N   UNL     1       7.348   6.341  16.145  0.00  0.00    +0.000 NA
ATOM     23  C   UNL     1       6.315   6.567  16.991  0.00  0.00    +0.000 A 
ATOM     24  H   UNL     1       7.729   5.418  13.175  0.00  0.00    +0.000 HD
ATOM     25  H   UNL     1       8.852   6.113  14.294  0.00  0.00    +0.000 HD
ENDBRANCH  10  17
BRANCH  14  26
ATOM     26  C   UNL     1       0.684   9.377  19.978  0.00  0.00    +0.000 C 
ATOM     27  C   UNL     1      -0.643   9.301  19.206  0.00  0.00    +0.000 C 
ATOM     28  C   UNL     1       0.636   8.580  21.286  0.00  0.00    +0.000 C 
ATOM     29  C   UNL     1      -0.100   9.489  22.260  0.00  0.00    +0.000 C 
ATOM     30  N   UNL     1       0.323  10.859  21.894  0.00  0.00    +0.000 NA
ATOM     31  C   UNL     1       0.907  10.814  20.528  0.00  0.00    +0.000 C 
BRANCH  30  32
ATOM     32  S   UNL     1      -0.737  12.134  22.199  0.00  0.00    +0.000 S 
ATOM     33  C   UNL     1      -1.402  12.439  20.578  0.00  0.00    +0.000 C 
ATOM     34  O   UNL     1      -1.807  11.623  23.027  0.00  0.00    +0.000 OA
ATOM     35  O   UNL     1       0.053  13.274  22.612  0.00  0.00    +0.000 OA
ENDBRANCH  30  32
ENDBRANCH  14  26
TORSDOF 3
ENDMDL
MODEL 2
REMARK VINA RESULT:      -7.1      5.603      9.970
REMARK  Name = 
REMARK  6 active torsions:
REMARK  status: ('A' for Active; 'I' for Inactive)
REMARK    1  A    between atoms: C_1  and  C_2
REMARK    2  A    between atoms: C_10  and  C_11
REMARK    3  A    between atoms: N_21  and  C_22
REMARK    4  A    between atoms: C_22  and  C_23
REMARK    5  A    between atoms: N_26  and  S_27
REMARK    6  A    between atoms: S_27  and  C_28
REMARK                            x       y       z     vdW  Elec       q    Type
REMARK                         _______ _______ _______ _____ _____    ______ ____
ROOT
ATOM      1  C   UNL     1      -0.656   9.549  23.148  0.00  0.00    +0.000 C 
ATOM      2  C   UNL     1       0.425   9.637  22.075  0.00  0.00    +0.000 C 
ATOM      3  C   UNL     1       0.422   8.316  21.267  0.00  0.00    +0.000 C 
ATOM      4  O   UNL     1       1.471   8.292  20.284  0.00  0.00    +0.000 OA
ATOM      5  C   UNL     1       1.320   9.392  19.368  0.00  0.00    +0.000 C 
ATOM      6  C   UNL     1       1.370  10.747  20.101  0.00  0.00    +0.000 C 
ATOM      7  N   UNL     1       0.302  10.756  21.107  0.00  0.00    +0.000 N 
ATOM      8  C   UNL     1      -0.164  11.984  21.530  0.00  0.00    +0.000 A 
ATOM      9  N   UNL     1      -1.407  11.986  22.041  0.00  0.00    +0.000 NA
ATOM     10  C   UNL     1      -1.990  13.137  22.417  0.00  0.00    +0.000 A 
ATOM     11  C   UNL     1      -1.292  14.305  22.302  0.00  0.00    +0.000 A 
ATOM     12  C   UNL     1      -0.032  14.252  21.732  0.00  0.00    +0.000 A 
ATOM     13  N   UNL     1       0.541  13.110  21.333  0.00  0.00    +0.000 NA
ATOM     14  N   UNL     1       0.502  15.536  21.582  0.00  0.00    +0.000 N 
ATOM     15  C   UNL     1      -0.370  16.463  22.302  0.00  0.00    +0.000 C 
ATOM     16  C   UNL     1      -1.637  15.694  22.692  0.00  0.00    +0.000 C 
ENDROOT
BRANCH  10  17
ATOM     17  C   UNL     1      -3.361  12.986  22.909  0.00  0.00    +0.000 A 
ATOM     18  C   UNL     1      -4.457  13.483  22.225  0.00  0.00    +0.000 A 
ATOM     19  N   UNL     1      -5.741  13.411  22.649  0.00  0.00    +0.000 NA
ATOM     20  C   UNL     1      -5.941  12.839  23.828  0.00  0.00    +0.000 A 
ATOM     21  N   UNL     1      -7.235  12.769  24.298  0.00  0.00    +0.000 N 
ATOM     22  N   UNL     1      -4.982  12.301  24.583  0.00  0.00    +0.000 NA
ATOM     23  C   UNL     1      -3.717  12.407  24.113  0.00  0.00    +0.000 A 
ATOM     24  H   UNL     1      -7.882  12.832  23.525  0.00  0.00    +0.000 HD
ATOM     25  H   UNL     1      -7.331  11.991  24.933  0.00  0.00    +0.000 HD
ENDBRANCH  10  17
BRANCH  14  26
ATOM     26  C   UNL     1       1.856  15.887  21.145  0.00  0.00    +0.000 C 
ATOM     27  C   UNL     1       2.129  17.382  21.378  0.00  0.00    +0.000 C 
ATOM     28  C   UNL     1       2.924  15.000  21.792  0.00  0.00    +0.000 C 
ATOM     29  C   UNL     1       4.094  15.042  20.820  0.00  0.00    +0.000 C 
ATOM     30  N   UNL     1       3.472  15.107  19.480  0.00  0.00    +0.000 NA
ATOM     31  C   UNL     1       2.056  15.529  19.646  0.00  0.00    +0.000 C 
BRANCH  30  32
ATOM     32  S   UNL     1       4.323  15.864  18.237  0.00  0.00    +0.000 S 
ATOM     33  C   UNL     1       5.790  14.863  18.148  0.00  0.00    +0.000 C 
ATOM     34  O   UNL     1       3.577  15.666  17.014  0.00  0.00    +0.000 OA
ATOM     35  O   UNL     1       4.679  17.192  18.692  0.00  0.00    +0.000 OA
ENDBRANCH  30  32
ENDBRANCH  14  26
TORSDOF 3
ENDMDL
MODEL 3
REMARK VINA RESULT:      -7.1      0.666      1.144
REMARK  Name = 
REMARK  6 active torsions:
REMARK  status: ('A' for Active; 'I' for Inactive)
REMARK    1  A    between atoms: C_1  and  C_2
REMARK    2  A    between atoms: C_10  and  C_11
REMARK    3  A    between atoms: N_21  and  C_22
REMARK    4  A    between atoms: C_22  and  C_23
REMARK    5  A    between atoms: N_26  and  S_27
REMARK    6  A    between atoms: S_27  and  C_28
REMARK                            x       y       z     vdW  Elec       q    Type
REMARK                         _______ _______ _______ _____ _____    ______ ____
ROOT
ATOM      1  C   UNL     1       2.374   2.783  17.811  0.00  0.00    +0.000 C 
ATOM      2  C   UNL     1       1.756   3.030  19.184  0.00  0.00    +0.000 C 
ATOM      3  C   UNL     1       2.044   1.798  20.078  0.00  0.00    +0.000 C 
ATOM      4  O   UNL     1       1.422   1.923  21.369  0.00  0.00    +0.000 OA
ATOM      5  C   UNL     1       1.901   3.101  22.041  0.00  0.00    +0.000 C 
ATOM      6  C   UNL     1       1.598   4.376  21.229  0.00  0.00    +0.000 C 
ATOM      7  N   UNL     1       2.229   4.234  19.912  0.00  0.00    +0.000 N 
ATOM      8  C   UNL     1       2.518   5.391  19.216  0.00  0.00    +0.000 A 
ATOM      9  N   UNL     1       3.492   5.283  18.296  0.00  0.00    +0.000 NA
ATOM     10  C   UNL     1       3.906   6.362  17.610  0.00  0.00    +0.000 A 
ATOM     11  C   UNL     1       3.304   7.567  17.838  0.00  0.00    +0.000 A 
ATOM     12  C   UNL     1       2.337   7.629  18.825  0.00  0.00    +0.000 A 
ATOM     13  N   UNL     1       1.940   6.562  19.528  0.00  0.00    +0.000 NA
ATOM     14  N   UNL     1       1.902   8.945  19.013  0.00  0.00    +0.000 N 
ATOM     15  C   UNL     1       2.459   9.754  17.930  0.00  0.00    +0.000 C 
ATOM     16  C   UNL     1       3.494   8.892  17.198  0.00  0.00    +0.000 C 
ENDROOT
BRANCH  10  17
ATOM     17  C   UNL     1       5.005   6.098  16.678  0.00  0.00    +0.000 A 
ATOM     18  C   UNL     1       6.315   6.450  16.953  0.00  0.00    +0.000 A 
ATOM     19  N   UNL     1       7.364   6.270  16.116  0.00  0.00    +0.000 NA
ATOM     20  C   UNL     1       7.089   5.739  14.932  0.00  0.00    +0.000 A 
ATOM     21  N   UNL     1       8.132   5.562  14.049  0.00  0.00    +0.000 N 
ATOM     22  N   UNL     1       5.878   5.337  14.544  0.00  0.00    +0.000 NA
ATOM     23  C   UNL     1       4.866   5.547  15.419  0.00  0.00    +0.000 A 
ATOM     24  H   UNL     1       9.005   5.523  14.555  0.00  0.00    +0.000 HD
ATOM     25  H   UNL     1       7.922   4.811  13.409  0.00  0.00    +0.000 HD
ENDBRANCH  10  17
BRANCH  14  26
ATOM     26  C   UNL     1       0.800   9.402  19.865  0.00  0.00    +0.000 C 
ATOM     27  C   UNL     1      -0.543   9.274  19.129  0.00  0.00    +0.000 C 
ATOM     28  C   UNL     1       0.783   8.690  21.222  0.00  0.00    +0.000 C 
ATOM     29  C   UNL     1       0.065   9.659  22.151  0.00  0.00    +0.000 C 
ATOM     30  N   UNL     1       0.477  11.003  21.689  0.00  0.00    +0.000 NA
ATOM     31  C   UNL     1       1.032  10.871  20.317  0.00  0.00    +0.000 C 
BRANCH  30  32
ATOM     32  S   UNL     1      -0.580  12.294  21.934  0.00  0.00    +0.000 S 
ATOM     33  C   UNL     1      -1.673  11.630  23.170  0.00  0.00    +0.000 C 
ATOM     34  O   UNL     1       0.176  13.367  22.542  0.00  0.00    +0.000 OA
ATOM     35  O   UNL     1      -1.318  12.498  20.706  0.00  0.00    +0.000 OA
ENDBRANCH  30  32
ENDBRANCH  14  26
TORSDOF 3
ENDMDL
MODEL 4
REMARK VINA RESULT:      -7.0      5.667     10.040
REMARK  Name = 
REMARK  6 active torsions:
REMARK  status: ('A' for Active; 'I' for Inactive)
REMARK    1  A    between atoms: C_1  and  C_2
REMARK    2  A    between atoms: C_10  and  C_11
REMARK    3  A    between atoms: N_21  and  C_22
REMARK    4  A    between atoms: C_22  and  C_23
REMARK    5  A    between atoms: N_26  and  S_27
REMARK    6  A    between atoms: S_27  and  C_28
REMARK                            x       y       z     vdW  Elec       q    Type
REMARK                         _______ _______ _______ _____ _____    ______ ____
ROOT
ATOM      1  C   UNL     1      -0.677   9.664  23.129  0.00  0.00    +0.000 C 
ATOM      2  C   UNL     1       0.386   9.718  22.036  0.00  0.00    +0.000 C 
ATOM      3  C   UNL     1       0.284   8.426  21.189  0.00  0.00    +0.000 C 
ATOM      4  O   UNL     1       1.310   8.368  20.183  0.00  0.00    +0.000 OA
ATOM      5  C   UNL     1       1.211   9.503  19.305  0.00  0.00    +0.000 C 
ATOM      6  C   UNL     1       1.361  10.829  20.077  0.00  0.00    +0.000 C 
ATOM      7  N   UNL     1       0.315  10.873  21.106  0.00  0.00    +0.000 N 
ATOM      8  C   UNL     1      -0.064  12.114  21.576  0.00  0.00    +0.000 A 
ATOM      9  N   UNL     1      -1.294  12.177  22.113  0.00  0.00    +0.000 NA
ATOM     10  C   UNL     1      -1.796  13.350  22.537  0.00  0.00    +0.000 A 
ATOM     11  C   UNL     1      -1.027  14.475  22.442  0.00  0.00    +0.000 A 
ATOM     12  C   UNL     1       0.214  14.361  21.843  0.00  0.00    +0.000 A 
ATOM     13  N   UNL     1       0.707  13.199  21.397  0.00  0.00    +0.000 NA
ATOM     14  N   UNL     1       0.825  15.614  21.721  0.00  0.00    +0.000 N 
ATOM     15  C   UNL     1       0.029  16.570  22.488  0.00  0.00    +0.000 C 
ATOM     16  C   UNL     1      -1.277  15.870  22.882  0.00  0.00    +0.000 C 
ENDROOT
BRANCH  10  17
ATOM     17  C   UNL     1      -3.164  13.269  23.053  0.00  0.00    +0.000 A 
ATOM     18  C   UNL     1      -3.522  12.416  24.083  0.00  0.00    +0.000 A 
ATOM     19  N   UNL     1      -4.775  12.267  24.574  0.00  0.00    +0.000 NA
ATOM     20  C   UNL     1      -5.726  12.985  23.991  0.00  0.00    +0.000 A 
ATOM     21  N   UNL     1      -7.016  12.840  24.454  0.00  0.00    +0.000 N 
ATOM     22  N   UNL     1      -5.519  13.859  23.004  0.00  0.00    +0.000 NA
ATOM     23  C   UNL     1      -4.248  13.961  22.549  0.00  0.00    +0.000 A 
ATOM     24  H   UNL     1      -7.001  12.488  25.401  0.00  0.00    +0.000 HD
ATOM     25  H   UNL     1      -7.546  13.678  24.268  0.00  0.00    +0.000 HD
ENDBRANCH  10  17
BRANCH  14  26
ATOM     26  C   UNL     1       2.190  15.894  21.266  0.00  0.00    +0.000 C 
ATOM     27  C   UNL     1       2.561  17.360  21.539  0.00  0.00    +0.000 C 
ATOM     28  C   UNL     1       3.213  14.920  21.862  0.00  0.00    +0.000 C 
ATOM     29  C   UNL     1       4.364  14.920  20.867  0.00  0.00    +0.000 C 
ATOM     30  N   UNL     1       3.720  15.067  19.542  0.00  0.00    +0.000 NA
ATOM     31  C   UNL     1       2.338  15.571  19.753  0.00  0.00    +0.000 C 
BRANCH  30  32
ATOM     32  S   UNL     1       4.593  15.809  18.305  0.00  0.00    +0.000 S 
ATOM     33  C   UNL     1       3.333  16.047  17.073  0.00  0.00    +0.000 C 
ATOM     34  O   UNL     1       4.999  17.114  18.780  0.00  0.00    +0.000 OA
ATOM     35  O   UNL     1       5.564  14.853  17.816  0.00  0.00    +0.000 OA
ENDBRANCH  30  32
ENDBRANCH  14  26
TORSDOF 3
ENDMDL
MODEL 5
REMARK VINA RESULT:      -6.9      7.965      9.058
REMARK  Name = 
REMARK  6 active torsions:
REMARK  status: ('A' for Active; 'I' for Inactive)
REMARK    1  A    between atoms: C_1  and  C_2
REMARK    2  A    between atoms: C_10  and  C_11
REMARK    3  A    between atoms: N_21  and  C_22
REMARK    4  A    between atoms: C_22  and  C_23
REMARK    5  A    between atoms: N_26  and  S_27
REMARK    6  A    between atoms: S_27  and  C_28
REMARK                            x       y       z     vdW  Elec       q    Type
REMARK                         _______ _______ _______ _____ _____    ______ ____
ROOT
ATOM      1  C   UNL     1       8.699  12.297  22.576  0.00  0.00    +0.000 C 
ATOM      2  C   UNL     1       7.837  13.166  23.486  0.00  0.00    +0.000 C 
ATOM      3  C   UNL     1       8.651  13.497  24.762  0.00  0.00    +0.000 C 
ATOM      4  O   UNL     1       7.873  14.251  25.708  0.00  0.00    +0.000 OA
ATOM      5  C   UNL     1       7.425  15.483  25.115  0.00  0.00    +0.000 C 
ATOM      6  C   UNL     1       6.558  15.226  23.866  0.00  0.00    +0.000 C 
ATOM      7  N   UNL     1       7.359  14.449  22.912  0.00  0.00    +0.000 N 
ATOM      8  C   UNL     1       7.006  14.519  21.580  0.00  0.00    +0.000 A 
ATOM      9  N   UNL     1       7.986  14.229  20.707  0.00  0.00    +0.000 NA
ATOM     10  C   UNL     1       7.776  14.335  19.384  0.00  0.00    +0.000 A 
ATOM     11  C   UNL     1       6.544  14.713  18.934  0.00  0.00    +0.000 A 
ATOM     12  C   UNL     1       5.584  15.039  19.875  0.00  0.00    +0.000 A 
ATOM     13  N   UNL     1       5.798  14.959  21.194  0.00  0.00    +0.000 NA
ATOM     14  N   UNL     1       4.421  15.511  19.258  0.00  0.00    +0.000 N 
ATOM     15  C   UNL     1       4.553  15.267  17.823  0.00  0.00    +0.000 C 
ATOM     16  C   UNL     1       6.003  14.846  17.559  0.00  0.00    +0.000 C 
ENDROOT
BRANCH  10  17
ATOM     17  C   UNL     1       8.950  14.032  18.561  0.00  0.00    +0.000 A 
ATOM     18  C   UNL     1       9.348  12.737  18.278  0.00  0.00    +0.000 A 
ATOM     19  N   UNL     1      10.444  12.395  17.561  0.00  0.00    +0.000 NA
ATOM     20  C   UNL     1      11.198  13.395  17.126  0.00  0.00    +0.000 A 
ATOM     21  N   UNL     1      12.333  13.080  16.410  0.00  0.00    +0.000 N 
ATOM     22  N   UNL     1      10.924  14.688  17.309  0.00  0.00    +0.000 NA
ATOM     23  C   UNL     1       9.820  14.970  18.039  0.00  0.00    +0.000 A 
ATOM     24  H   UNL     1      12.238  12.159  16.007  0.00  0.00    +0.000 HD
ATOM     25  H   UNL     1      12.578  13.842  15.796  0.00  0.00    +0.000 HD
ENDBRANCH  10  17
BRANCH  14  26
ATOM     26  C   UNL     1       3.143  15.829  19.901  0.00  0.00    +0.000 C 
ATOM     27  C   UNL     1       3.310  16.991  20.894  0.00  0.00    +0.000 C 
ATOM     28  C   UNL     1       2.031  16.099  18.882  0.00  0.00    +0.000 C 
ATOM     29  C   UNL     1       0.744  15.780  19.629  0.00  0.00    +0.000 C 
ATOM     30  N   UNL     1       1.089  14.644  20.512  0.00  0.00    +0.000 NA
ATOM     31  C   UNL     1       2.569  14.578  20.624  0.00  0.00    +0.000 C 
BRANCH  30  32
ATOM     32  S   UNL     1       0.233  14.461  21.953  0.00  0.00    +0.000 S 
ATOM     33  C   UNL     1      -1.359  15.117  21.508  0.00  0.00    +0.000 C 
ATOM     34  O   UNL     1       0.077  13.042  22.189  0.00  0.00    +0.000 OA
ATOM     35  O   UNL     1       0.845  15.324  22.941  0.00  0.00    +0.000 OA
ENDBRANCH  30  32
ENDBRANCH  14  26
TORSDOF 3
ENDMDL
MODEL 6
REMARK VINA RESULT:      -6.9      5.237      9.590
REMARK  Name = 
REMARK  6 active torsions:
REMARK  status: ('A' for Active; 'I' for Inactive)
REMARK    1  A    between atoms: C_1  and  C_2
REMARK    2  A    between atoms: C_10  and  C_11
REMARK    3  A    between atoms: N_21  and  C_22
REMARK    4  A    between atoms: C_22  and  C_23
REMARK    5  A    between atoms: N_26  and  S_27
REMARK    6  A    between atoms: S_27  and  C_28
REMARK                            x       y       z     vdW  Elec       q    Type
REMARK                         _______ _______ _______ _____ _____    ______ ____
ROOT
ATOM      1  C   UNL     1      -0.042   9.620  22.944  0.00  0.00    +0.000 C 
ATOM      2  C   UNL     1       0.896   9.496  21.747  0.00  0.00    +0.000 C 
ATOM      3  C   UNL     1       0.941   8.010  21.312  0.00  0.00    +0.000 C 
ATOM      4  O   UNL     1       1.870   7.800  20.235  0.00  0.00    +0.000 OA
ATOM      5  C   UNL     1       1.503   8.601  19.098  0.00  0.00    +0.000 C 
ATOM      6  C   UNL     1       1.492  10.103  19.446  0.00  0.00    +0.000 C 
ATOM      7  N   UNL     1       0.548  10.304  20.551  0.00  0.00    +0.000 N 
ATOM      8  C   UNL     1       0.007  11.564  20.705  0.00  0.00    +0.000 A 
ATOM      9  N   UNL     1      -1.165  11.612  21.362  0.00  0.00    +0.000 NA
ATOM     10  C   UNL     1      -1.819  12.777  21.507  0.00  0.00    +0.000 A 
ATOM     11  C   UNL     1      -1.265  13.919  21.002  0.00  0.00    +0.000 A 
ATOM     12  C   UNL     1      -0.079  13.806  20.299  0.00  0.00    +0.000 A 
ATOM     13  N   UNL     1       0.562  12.644  20.132  0.00  0.00    +0.000 NA
ATOM     14  N   UNL     1       0.297  15.038  19.755  0.00  0.00    +0.000 N 
ATOM     15  C   UNL     1      -0.581  16.059  20.325  0.00  0.00    +0.000 C 
ATOM     16  C   UNL     1      -1.709  15.334  21.068  0.00  0.00    +0.000 C 
ENDROOT
BRANCH  10  17
ATOM     17  C   UNL     1      -3.103  12.665  22.203  0.00  0.00    +0.000 A 
ATOM     18  C   UNL     1      -3.195  12.406  23.560  0.00  0.00    +0.000 A 
ATOM     19  N   UNL     1      -4.350  12.250  24.249  0.00  0.00    +0.000 NA
ATOM     20  C   UNL     1      -5.471  12.329  23.546  0.00  0.00    +0.000 A 
ATOM     21  N   UNL     1      -6.663  12.155  24.215  0.00  0.00    +0.000 N 
ATOM     22  N   UNL     1      -5.530  12.593  22.239  0.00  0.00    +0.000 NA
ATOM     23  C   UNL     1      -4.345  12.733  21.600  0.00  0.00    +0.000 A 
ATOM     24  H   UNL     1      -6.536  12.352  25.197  0.00  0.00    +0.000 HD
ATOM     25  H   UNL     1      -7.407  12.632  23.728  0.00  0.00    +0.000 HD
ENDBRANCH  10  17
BRANCH  14  26
ATOM     26  C   UNL     1       1.549  15.357  19.063  0.00  0.00    +0.000 C 
ATOM     27  C   UNL     1       2.025  14.158  18.226  0.00  0.00    +0.000 C 
ATOM     28  C   UNL     1       1.441  16.636  18.226  0.00  0.00    +0.000 C 
ATOM     29  C   UNL     1       2.871  17.146  18.124  0.00  0.00    +0.000 C 
ATOM     30  N   UNL     1       3.490  16.805  19.424  0.00  0.00    +0.000 NA
ATOM     31  C   UNL     1       2.646  15.774  20.082  0.00  0.00    +0.000 C 
BRANCH  30  32
ATOM     32  S   UNL     1       5.153  16.534  19.474  0.00  0.00    +0.000 S 
ATOM     33  C   UNL     1       5.373  15.968  21.145  0.00  0.00    +0.000 C 
ATOM     34  O   UNL     1       5.441  15.425  18.590  0.00  0.00    +0.000 OA
ATOM     35  O   UNL     1       5.813  17.812  19.313  0.00  0.00    +0.000 OA
ENDBRANCH  30  32
ENDBRANCH  14  26
TORSDOF 3
ENDMDL
MODEL 7
REMARK VINA RESULT:      -6.8      5.007      9.308
REMARK  Name = 
REMARK  6 active torsions:
REMARK  status: ('A' for Active; 'I' for Inactive)
REMARK    1  A    between atoms: C_1  and  C_2
REMARK    2  A    between atoms: C_10  and  C_11
REMARK    3  A    between atoms: N_21  and  C_22
REMARK    4  A    between atoms: C_22  and  C_23
REMARK    5  A    between atoms: N_26  and  S_27
REMARK    6  A    between atoms: S_27  and  C_28
REMARK                            x       y       z     vdW  Elec       q    Type
REMARK                         _______ _______ _______ _____ _____    ______ ____
ROOT
ATOM      1  C   UNL     1       0.188   9.293  22.806  0.00  0.00    +0.000 C 
ATOM      2  C   UNL     1       1.100   9.128  21.594  0.00  0.00    +0.000 C 
ATOM      3  C   UNL     1       1.081   7.640  21.165  0.00  0.00    +0.000 C 
ATOM      4  O   UNL     1       1.983   7.390  20.073  0.00  0.00    +0.000 OA
ATOM      5  C   UNL     1       1.627   8.200  18.939  0.00  0.00    +0.000 C 
ATOM      6  C   UNL     1       1.679   9.703  19.279  0.00  0.00    +0.000 C 
ATOM      7  N   UNL     1       0.763   9.944  20.400  0.00  0.00    +0.000 N 
ATOM      8  C   UNL     1       0.272  11.224  20.557  0.00  0.00    +0.000 A 
ATOM      9  N   UNL     1      -0.885  11.320  21.234  0.00  0.00    +0.000 NA
ATOM     10  C   UNL     1      -1.492  12.510  21.385  0.00  0.00    +0.000 A 
ATOM     11  C   UNL     1      -0.904  13.628  20.865  0.00  0.00    +0.000 A 
ATOM     12  C   UNL     1       0.265  13.466  20.143  0.00  0.00    +0.000 A 
ATOM     13  N   UNL     1       0.859  12.280  19.969  0.00  0.00    +0.000 NA
ATOM     14  N   UNL     1       0.678  14.681  19.586  0.00  0.00    +0.000 N 
ATOM     15  C   UNL     1      -0.150  15.737  20.166  0.00  0.00    +0.000 C 
ATOM     16  C   UNL     1      -1.292  15.058  20.931  0.00  0.00    +0.000 C 
ENDROOT
BRANCH  10  17
ATOM     17  C   UNL     1      -2.767  12.449  22.103  0.00  0.00    +0.000 A 
ATOM     18  C   UNL     1      -3.986  12.636  21.474  0.00  0.00    +0.000 A 
ATOM     19  N   UNL     1      -5.192  12.633  22.091  0.00  0.00    +0.000 NA
ATOM     20  C   UNL     1      -5.181  12.463  23.406  0.00  0.00    +0.000 A 
ATOM     21  N   UNL     1      -6.390  12.476  24.066  0.00  0.00    +0.000 N 
ATOM     22  N   UNL     1      -4.083  12.253  24.135  0.00  0.00    +0.000 NA
ATOM     23  C   UNL     1      -2.905  12.273  23.467  0.00  0.00    +0.000 A 
ATOM     24  H   UNL     1      -7.134  12.250  23.421  0.00  0.00    +0.000 HD
ATOM     25  H   UNL     1      -6.325  11.942  24.920  0.00  0.00    +0.000 HD
ENDBRANCH  10  17
BRANCH  14  26
ATOM     26  C   UNL     1       1.929  14.949  18.871  0.00  0.00    +0.000 C 
ATOM     27  C   UNL     1       2.199  13.856  17.824  0.00  0.00    +0.000 C 
ATOM     28  C   UNL     1       1.959  16.353  18.258  0.00  0.00    +0.000 C 
ATOM     29  C   UNL     1       3.439  16.687  18.142  0.00  0.00    +0.000 C 
ATOM     30  N   UNL     1       4.064  16.058  19.327  0.00  0.00    +0.000 NA
ATOM     31  C   UNL     1       3.118  15.047  19.868  0.00  0.00    +0.000 C 
BRANCH  30  32
ATOM     32  S   UNL     1       5.675  15.573  19.221  0.00  0.00    +0.000 S 
ATOM     33  C   UNL     1       6.500  17.129  18.974  0.00  0.00    +0.000 C 
ATOM     34  O   UNL     1       6.064  15.068  20.519  0.00  0.00    +0.000 OA
ATOM     35  O   UNL     1       5.815  14.765  18.028  0.00  0.00    +0.000 OA
ENDBRANCH  30  32
ENDBRANCH  14  26
TORSDOF 3
ENDMDL
MODEL 8
REMARK VINA RESULT:      -6.8      6.311      8.950
REMARK  Name = 
REMARK  6 active torsions:
REMARK  status: ('A' for Active; 'I' for Inactive)
REMARK    1  A    between atoms: C_1  and  C_2
REMARK    2  A    between atoms: C_10  and  C_11
REMARK    3  A    between atoms: N_21  and  C_22
REMARK    4  A    between atoms: C_22  and  C_23
REMARK    5  A    between atoms: N_26  and  S_27
REMARK    6  A    between atoms: S_27  and  C_28
REMARK                            x       y       z     vdW  Elec       q    Type
REMARK                         _______ _______ _______ _____ _____    ______ ____
ROOT
ATOM      1  C   UNL     1       0.597  11.431  19.538  0.00  0.00    +0.000 C 
ATOM      2  C   UNL     1      -0.172  10.747  20.663  0.00  0.00    +0.000 C 
ATOM      3  C   UNL     1       0.461   9.356  20.914  0.00  0.00    +0.000 C 
ATOM      4  O   UNL     1      -0.263   8.615  21.912  0.00  0.00    +0.000 OA
ATOM      5  C   UNL     1      -0.285   9.342  23.154  0.00  0.00    +0.000 C 
ATOM      6  C   UNL     1      -0.955  10.720  22.989  0.00  0.00    +0.000 C 
ATOM      7  N   UNL     1      -0.214  11.464  21.963  0.00  0.00    +0.000 N 
ATOM      8  C   UNL     1      -0.299  12.840  21.988  0.00  0.00    +0.000 A 
ATOM      9  N   UNL     1       0.718  13.493  21.400  0.00  0.00    +0.000 NA
ATOM     10  C   UNL     1       0.776  14.835  21.428  0.00  0.00    +0.000 A 
ATOM     11  C   UNL     1      -0.228  15.532  22.037  0.00  0.00    +0.000 A 
ATOM     12  C   UNL     1      -1.229  14.810  22.662  0.00  0.00    +0.000 A 
ATOM     13  N   UNL     1      -1.276  13.473  22.658  0.00  0.00    +0.000 NA
ATOM     14  N   UNL     1      -2.114  15.662  23.331  0.00  0.00    +0.000 N 
ATOM     15  C   UNL     1      -1.796  17.032  22.931  0.00  0.00    +0.000 C 
ATOM     16  C   UNL     1      -0.470  16.991  22.163  0.00  0.00    +0.000 C 
ENDROOT
BRANCH  10  17
ATOM     17  C   UNL     1       1.966  15.401  20.787  0.00  0.00    +0.000 A 
ATOM     18  C   UNL     1       1.902  16.145  19.622  0.00  0.00    +0.000 A 
ATOM     19  N   UNL     1       2.968  16.657  18.963  0.00  0.00    +0.000 NA
ATOM     20  C   UNL     1       4.161  16.391  19.475  0.00  0.00    +0.000 A 
ATOM     21  N   UNL     1       5.268  16.880  18.816  0.00  0.00    +0.000 N 
ATOM     22  N   UNL     1       4.368  15.704  20.600  0.00  0.00    +0.000 NA
ATOM     23  C   UNL     1       3.266  15.210  21.213  0.00  0.00    +0.000 A 
ATOM     24  H   UNL     1       5.004  17.671  18.246  0.00  0.00    +0.000 HD
ATOM     25  H   UNL     1       6.034  16.996  19.462  0.00  0.00    +0.000 HD
ENDBRANCH  10  17
BRANCH  14  26
ATOM     26  C   UNL     1      -3.369  15.294  23.994  0.00  0.00    +0.000 C 
ATOM     27  C   UNL     1      -3.097  14.761  25.410  0.00  0.00    +0.000 C 
ATOM     28  C   UNL     1      -4.384  16.442  23.995  0.00  0.00    +0.000 C 
ATOM     29  C   UNL     1      -5.737  15.754  24.106  0.00  0.00    +0.000 C 
ATOM     30  N   UNL     1      -5.589  14.500  23.335  0.00  0.00    +0.000 NA
ATOM     31  C   UNL     1      -4.138  14.234  23.156  0.00  0.00    +0.000 C 
BRANCH  30  32
ATOM     32  S   UNL     1      -6.531  13.172  23.776  0.00  0.00    +0.000 S 
ATOM     33  C   UNL     1      -7.023  12.541  22.188  0.00  0.00    +0.000 C 
ATOM     34  O   UNL     1      -5.653  12.199  24.387  0.00  0.00    +0.000 OA
ATOM     35  O   UNL     1      -7.698  13.672  24.472  0.00  0.00    +0.000 OA
ENDBRANCH  30  32
ENDBRANCH  14  26
TORSDOF 3
ENDMDL
MODEL 9
REMARK VINA RESULT:      -6.8      5.922     10.310
REMARK  Name = 
REMARK  6 active torsions:
REMARK  status: ('A' for Active; 'I' for Inactive)
REMARK    1  A    between atoms: C_1  and  C_2
REMARK    2  A    between atoms: C_10  and  C_11
REMARK    3  A    between atoms: N_21  and  C_22
REMARK    4  A    between atoms: C_22  and  C_23
REMARK    5  A    between atoms: N_26  and  S_27
REMARK    6  A    between atoms: S_27  and  C_28
REMARK                            x       y       z     vdW  Elec       q    Type
REMARK                         _______ _______ _______ _____ _____    ______ ____
ROOT
ATOM      1  C   UNL     1      -0.643  10.443  22.393  0.00  0.00    +0.000 C 
ATOM      2  C   UNL     1       0.302  10.649  21.214  0.00  0.00    +0.000 C 
ATOM      3  C   UNL     1       0.637   9.265  20.606  0.00  0.00    +0.000 C 
ATOM      4  O   UNL     1       1.590   9.372  19.535  0.00  0.00    +0.000 OA
ATOM      5  C   UNL     1       1.075  10.219  18.493  0.00  0.00    +0.000 C 
ATOM      6  C   UNL     1       0.771  11.637  19.017  0.00  0.00    +0.000 C 
ATOM      7  N   UNL     1      -0.195  11.515  20.115  0.00  0.00    +0.000 N 
ATOM      8  C   UNL     1      -0.973  12.617  20.404  0.00  0.00    +0.000 A 
ATOM      9  N   UNL     1      -2.132  12.358  21.033  0.00  0.00    +0.000 NA
ATOM     10  C   UNL     1      -3.001  13.347  21.300  0.00  0.00    +0.000 A 
ATOM     11  C   UNL     1      -2.680  14.628  20.949  0.00  0.00    +0.000 A 
ATOM     12  C   UNL     1      -1.494  14.833  20.267  0.00  0.00    +0.000 A 
ATOM     13  N   UNL     1      -0.638  13.846  19.978  0.00  0.00    +0.000 NA
ATOM     14  N   UNL     1      -1.365  16.172  19.883  0.00  0.00    +0.000 N 
ATOM     15  C   UNL     1      -2.426  16.926  20.549  0.00  0.00    +0.000 C 
ATOM     16  C   UNL     1      -3.391  15.911  21.172  0.00  0.00    +0.000 C 
ENDROOT
BRANCH  10  17
ATOM     17  C   UNL     1      -4.239  12.904  21.945  0.00  0.00    +0.000 A 
ATOM     18  C   UNL     1      -5.356  12.514  21.226  0.00  0.00    +0.000 A 
ATOM     19  N   UNL     1      -6.539  12.135  21.765  0.00  0.00    +0.000 NA
ATOM     20  C   UNL     1      -6.623  12.175  23.088  0.00  0.00    +0.000 A 
ATOM     21  N   UNL     1      -7.822  11.815  23.667  0.00  0.00    +0.000 N 
ATOM     22  N   UNL     1      -5.622  12.512  23.903  0.00  0.00    +0.000 NA
ATOM     23  C   UNL     1      -4.465  12.887  23.308  0.00  0.00    +0.000 A 
ATOM     24  H   UNL     1      -8.345  11.229  23.032  0.00  0.00    +0.000 HD
ATOM     25  H   UNL     1      -7.666  11.477  24.605  0.00  0.00    +0.000 HD
ENDBRANCH  10  17
BRANCH  14  26
ATOM     26  C   UNL     1      -0.199  16.809  19.265  0.00  0.00    +0.000 C 
ATOM     27  C   UNL     1      -0.582  17.455  17.924  0.00  0.00    +0.000 C 
ATOM     28  C   UNL     1       0.488  17.802  20.208  0.00  0.00    +0.000 C 
ATOM     29  C   UNL     1       1.926  17.866  19.712  0.00  0.00    +0.000 C 
ATOM     30  N   UNL     1       2.229  16.494  19.250  0.00  0.00    +0.000 NA
ATOM     31  C   UNL     1       0.943  15.774  19.060  0.00  0.00    +0.000 C 
BRANCH  30  32
ATOM     32  S   UNL     1       3.371  16.295  18.026  0.00  0.00    +0.000 S 
ATOM     33  C   UNL     1       4.882  16.685  18.881  0.00  0.00    +0.000 C 
ATOM     34  O   UNL     1       3.406  14.889  17.687  0.00  0.00    +0.000 OA
ATOM     35  O   UNL     1       3.119  17.304  17.020  0.00  0.00    +0.000 OA
ENDBRANCH  30  32
ENDBRANCH  14  26
TORSDOF 3
ENDMDL
