MODEL 1
REMARK VINA RESULT:      -7.9      0.000      0.000
REMARK  Name = 
REMARK  8 active torsions:
REMARK  status: ('A' for Active; 'I' for Inactive)
REMARK    1  A    between atoms: C_1  and  C_2
REMARK    2  A    between atoms: C_2  and  C_3
REMARK    3  A    between atoms: C_3  and  C_4
REMARK    4  A    between atoms: C_4  and  C_5
REMARK    5  A    between atoms: C_9  and  C_10
REMARK    6  A    between atoms: N_12  and  C_13
REMARK    7  A    between atoms: C_14  and  O_15
REMARK    8  A    between atoms: C_19  and  O_20
REMARK                            x       y       z     vdW  Elec       q    Type
REMARK                         _______ _______ _______ _____ _____    ______ ____
ROOT
ATOM      1  C   UNL     1       0.870   9.419  19.945  0.00  0.00    +0.000 A 
ATOM      2  C   UNL     1       0.001  10.169  19.240  0.00  0.00    +0.000 A 
ATOM      3  C   UNL     1      -0.742  11.234  19.916  0.00  0.00    +0.000 A 
ATOM      4  C   UNL     1      -1.926  11.784  19.413  0.00  0.00    +0.000 A 
ATOM      5  C   UNL     1      -2.565  12.825  20.095  0.00  0.00    +0.000 A 
ATOM      6  C   UNL     1      -1.987  13.342  21.252  0.00  0.00    +0.000 A 
ATOM      7  C   UNL     1      -0.810  12.812  21.763  0.00  0.00    +0.000 A 
ATOM      8  C   UNL     1      -0.233  11.723  21.114  0.00  0.00    +0.000 A 
ATOM      9  O   UNL     1       0.824  11.070  21.759  0.00  0.00    +0.000 OA
ATOM     10  C   UNL     1       1.037   9.753  21.396  0.00  0.00    +0.000 A 
ATOM     11  O   UNL     1       1.480   8.912  22.181  0.00  0.00    +0.000 OA
ENDROOT
BRANCH   1  14
ATOM     12  C   UNL     1       2.280   8.224  18.301  0.00  0.00    +0.000 C 
ATOM     13  O   UNL     1       2.379   9.151  17.499  0.00  0.00    +0.000 OA
ATOM     14  N   UNL     1       1.606   8.321  19.499  0.00  0.00    +0.000 N 
ATOM     15  H   UNL     1       1.791   7.618  20.213  0.00  0.00    +0.000 HD
BRANCH  12  20
ATOM     16  C   UNL     1       2.979   4.545  17.648  0.00  0.00    +0.000 A 
ATOM     17  C   UNL     1       4.222   4.662  17.009  0.00  0.00    +0.000 A 
ATOM     18  C   UNL     1       4.839   5.900  16.865  0.00  0.00    +0.000 A 
ATOM     19  C   UNL     1       4.206   7.042  17.337  0.00  0.00    +0.000 A 
ATOM     20  C   UNL     1       2.955   6.952  17.966  0.00  0.00    +0.000 A 
ATOM     21  C   UNL     1       2.341   5.703  18.127  0.00  0.00    +0.000 A 
BRANCH  16  22
ATOM     22  C   UNL     1       2.320   3.190  17.771  0.00  0.00    +0.000 C 
BRANCH  22  23
ATOM     23  C   UNL     1       1.144   3.211  18.751  0.00  0.00    +0.000 C 
BRANCH  23  25
ATOM     24  C   UNL     1       1.715   3.619  21.164  0.00  0.00    +0.000 C 
ATOM     25  C   UNL     1       1.509   2.565  20.086  0.00  0.00    +0.000 C 
ENDBRANCH  23  25
ENDBRANCH  22  23
ENDBRANCH  16  22
ENDBRANCH  12  20
ENDBRANCH   1  14
BRANCH   2  26
ATOM     26  O   UNL     1      -0.311  10.031  17.907  0.00  0.00    +0.000 OA
ATOM     27  H   UNL     1      -1.087  10.605  17.719  0.00  0.00    +0.000 HD
ENDBRANCH   2  26
BRANCH   6  28
ATOM     28  O   UNL     1      -2.576  14.361  21.941  0.00  0.00    +0.000 OA
ATOM     29  H   UNL     1      -2.589  14.131  22.884  0.00  0.00    +0.000 HD
ENDBRANCH   6  28
TORSDOF 7
ENDMDL
MODEL 2
REMARK VINA RESULT:      -7.7      1.175      2.921
REMARK  Name = 
REMARK  8 active torsions:
REMARK  status: ('A' for Active; 'I' for Inactive)
REMARK    1  A    between atoms: C_1  and  C_2
REMARK    2  A    between atoms: C_2  and  C_3
REMARK    3  A    between atoms: C_3  and  C_4
REMARK    4  A    between atoms: C_4  and  C_5
REMARK    5  A    between atoms: C_9  and  C_10
REMARK    6  A    between atoms: N_12  and  C_13
REMARK    7  A    between atoms: C_14  and  O_15
REMARK    8  A    between atoms: C_19  and  O_20
REMARK                            x       y       z     vdW  Elec       q    Type
REMARK                         _______ _______ _______ _____ _____    ______ ____
ROOT
ATOM      1  C   UNL     1       0.780   9.538  19.894  0.00  0.00    +0.000 A 
ATOM      2  C   UNL     1      -0.121  10.288  19.230  0.00  0.00    +0.000 A 
ATOM      3  C   UNL     1      -0.878  11.311  19.955  0.00  0.00    +0.000 A 
ATOM      4  C   UNL     1      -2.084  11.847  19.491  0.00  0.00    +0.000 A 
ATOM      5  C   UNL     1      -2.737  12.847  20.219  0.00  0.00    +0.000 A 
ATOM      6  C   UNL     1      -2.152  13.340  21.383  0.00  0.00    +0.000 A 
ATOM      7  C   UNL     1      -0.953  12.823  21.856  0.00  0.00    +0.000 A 
ATOM      8  C   UNL     1      -0.361  11.772  21.160  0.00  0.00    +0.000 A 
ATOM      9  O   UNL     1       0.723  11.125  21.764  0.00  0.00    +0.000 OA
ATOM     10  C   UNL     1       0.963   9.827  21.353  0.00  0.00    +0.000 A 
ATOM     11  O   UNL     1       1.441   8.971  22.101  0.00  0.00    +0.000 OA
ENDROOT
BRANCH   1  14
ATOM     12  C   UNL     1       2.216   8.448  18.202  0.00  0.00    +0.000 C 
ATOM     13  O   UNL     1       2.305   9.415  17.447  0.00  0.00    +0.000 OA
ATOM     14  N   UNL     1       1.534   8.475  19.398  0.00  0.00    +0.000 N 
ATOM     15  H   UNL     1       1.726   7.739  20.078  0.00  0.00    +0.000 HD
BRANCH  12  20
ATOM     16  C   UNL     1       4.878   5.971  17.092  0.00  0.00    +0.000 A 
ATOM     17  C   UNL     1       4.211   4.774  17.393  0.00  0.00    +0.000 A 
ATOM     18  C   UNL     1       2.906   4.783  17.873  0.00  0.00    +0.000 A 
ATOM     19  C   UNL     1       2.260   5.994  18.085  0.00  0.00    +0.000 A 
ATOM     20  C   UNL     1       2.912   7.205  17.807  0.00  0.00    +0.000 A 
ATOM     21  C   UNL     1       4.221   7.196  17.306  0.00  0.00    +0.000 A 
BRANCH  16  22
ATOM     22  C   UNL     1       6.304   5.933  16.592  0.00  0.00    +0.000 C 
BRANCH  22  23
ATOM     23  C   UNL     1       7.283   5.490  17.684  0.00  0.00    +0.000 C 
BRANCH  23  25
ATOM     24  C   UNL     1       7.811   7.946  17.604  0.00  0.00    +0.000 C 
ATOM     25  C   UNL     1       7.850   6.683  18.452  0.00  0.00    +0.000 C 
ENDBRANCH  23  25
ENDBRANCH  22  23
ENDBRANCH  16  22
ENDBRANCH  12  20
ENDBRANCH   1  14
BRANCH   2  26
ATOM     26  O   UNL     1      -0.453  10.188  17.899  0.00  0.00    +0.000 OA
ATOM     27  H   UNL     1      -1.227  10.773  17.736  0.00  0.00    +0.000 HD
ENDBRANCH   2  26
BRANCH   6  28
ATOM     28  O   UNL     1      -2.754  14.319  22.116  0.00  0.00    +0.000 OA
ATOM     29  H   UNL     1      -2.071  14.806  22.605  0.00  0.00    +0.000 HD
ENDBRANCH   6  28
TORSDOF 7
ENDMDL
MODEL 3
REMARK VINA RESULT:      -7.4      2.163      3.988
REMARK  Name = 
REMARK  8 active torsions:
REMARK  status: ('A' for Active; 'I' for Inactive)
REMARK    1  A    between atoms: C_1  and  C_2
REMARK    2  A    between atoms: C_2  and  C_3
REMARK    3  A    between atoms: C_3  and  C_4
REMARK    4  A    between atoms: C_4  and  C_5
REMARK    5  A    between atoms: C_9  and  C_10
REMARK    6  A    between atoms: N_12  and  C_13
REMARK    7  A    between atoms: C_14  and  O_15
REMARK    8  A    between atoms: C_19  and  O_20
REMARK                            x       y       z     vdW  Elec       q    Type
REMARK                         _______ _______ _______ _____ _____    ______ ____
ROOT
ATOM      1  C   UNL     1       1.724   8.696  19.351  0.00  0.00    +0.000 A 
ATOM      2  C   UNL     1       1.276   8.713  20.621  0.00  0.00    +0.000 A 
ATOM      3  C   UNL     1       0.352   9.766  21.043  0.00  0.00    +0.000 A 
ATOM      4  C   UNL     1       0.149  10.121  22.381  0.00  0.00    +0.000 A 
ATOM      5  C   UNL     1      -0.776  11.115  22.715  0.00  0.00    +0.000 A 
ATOM      6  C   UNL     1      -1.531  11.714  21.709  0.00  0.00    +0.000 A 
ATOM      7  C   UNL     1      -1.347  11.372  20.376  0.00  0.00    +0.000 A 
ATOM      8  C   UNL     1      -0.364  10.438  20.058  0.00  0.00    +0.000 A 
ATOM      9  O   UNL     1      -0.047  10.266  18.705  0.00  0.00    +0.000 OA
ATOM     10  C   UNL     1       1.213   9.765  18.434  0.00  0.00    +0.000 A 
ATOM     11  O   UNL     1       1.841  10.065  17.417  0.00  0.00    +0.000 OA
ENDROOT
BRANCH   1  14
ATOM     12  C   UNL     1       2.778   6.479  19.049  0.00  0.00    +0.000 C 
ATOM     13  O   UNL     1       2.002   5.854  19.768  0.00  0.00    +0.000 OA
ATOM     14  N   UNL     1       2.658   7.826  18.788  0.00  0.00    +0.000 N 
ATOM     15  H   UNL     1       3.164   8.208  17.990  0.00  0.00    +0.000 HD
BRANCH  12  20
ATOM     16  C   UNL     1       5.261   5.143  16.498  0.00  0.00    +0.000 A 
ATOM     17  C   UNL     1       6.156   4.504  17.368  0.00  0.00    +0.000 A 
ATOM     18  C   UNL     1       5.910   4.452  18.736  0.00  0.00    +0.000 A 
ATOM     19  C   UNL     1       4.776   5.065  19.255  0.00  0.00    +0.000 A 
ATOM     20  C   UNL     1       3.875   5.725  18.406  0.00  0.00    +0.000 A 
ATOM     21  C   UNL     1       4.113   5.761  17.025  0.00  0.00    +0.000 A 
BRANCH  16  22
ATOM     22  C   UNL     1       5.563   5.204  15.018  0.00  0.00    +0.000 C 
BRANCH  22  23
ATOM     23  C   UNL     1       6.210   3.911  14.511  0.00  0.00    +0.000 C 
BRANCH  23  25
ATOM     24  C   UNL     1       5.577   3.224  12.179  0.00  0.00    +0.000 C 
ATOM     25  C   UNL     1       6.569   4.003  13.029  0.00  0.00    +0.000 C 
ENDBRANCH  23  25
ENDBRANCH  22  23
ENDBRANCH  16  22
ENDBRANCH  12  20
ENDBRANCH   1  14
BRANCH   2  26
ATOM     26  O   UNL     1       1.619   7.837  21.625  0.00  0.00    +0.000 OA
ATOM     27  H   UNL     1       2.331   8.255  22.160  0.00  0.00    +0.000 HD
ENDBRANCH   2  26
BRANCH   6  28
ATOM     28  O   UNL     1      -2.447  12.682  21.995  0.00  0.00    +0.000 OA
ATOM     29  H   UNL     1      -1.975  13.498  22.226  0.00  0.00    +0.000 HD
ENDBRANCH   6  28
TORSDOF 7
ENDMDL
MODEL 4
REMARK VINA RESULT:      -7.3      2.271      8.412
REMARK  Name = 
REMARK  8 active torsions:
REMARK  status: ('A' for Active; 'I' for Inactive)
REMARK    1  A    between atoms: C_1  and  C_2
REMARK    2  A    between atoms: C_2  and  C_3
REMARK    3  A    between atoms: C_3  and  C_4
REMARK    4  A    between atoms: C_4  and  C_5
REMARK    5  A    between atoms: C_9  and  C_10
REMARK    6  A    between atoms: N_12  and  C_13
REMARK    7  A    between atoms: C_14  and  O_15
REMARK    8  A    between atoms: C_19  and  O_20
REMARK                            x       y       z     vdW  Elec       q    Type
REMARK                         _______ _______ _______ _____ _____    ______ ____
ROOT
ATOM      1  C   UNL     1       2.618   6.792  19.385  0.00  0.00    +0.000 A 
ATOM      2  C   UNL     1       3.292   7.152  18.276  0.00  0.00    +0.000 A 
ATOM      3  C   UNL     1       4.055   6.142  17.539  0.00  0.00    +0.000 A 
ATOM      4  C   UNL     1       5.088   6.456  16.650  0.00  0.00    +0.000 A 
ATOM      5  C   UNL     1       5.752   5.441  15.954  0.00  0.00    +0.000 A 
ATOM      6  C   UNL     1       5.343   4.119  16.114  0.00  0.00    +0.000 A 
ATOM      7  C   UNL     1       4.316   3.789  16.989  0.00  0.00    +0.000 A 
ATOM      8  C   UNL     1       3.723   4.805  17.734  0.00  0.00    +0.000 A 
ATOM      9  O   UNL     1       2.847   4.431  18.759  0.00  0.00    +0.000 OA
ATOM     10  C   UNL     1       2.677   5.348  19.780  0.00  0.00    +0.000 A 
ATOM     11  O   UNL     1       2.443   5.011  20.942  0.00  0.00    +0.000 OA
ENDROOT
BRANCH   1  14
ATOM     12  C   UNL     1       1.157   8.719  19.901  0.00  0.00    +0.000 C 
ATOM     13  O   UNL     1       0.962   9.065  18.738  0.00  0.00    +0.000 OA
ATOM     14  N   UNL     1       1.905   7.617  20.254  0.00  0.00    +0.000 N 
ATOM     15  H   UNL     1       1.800   7.248  21.198  0.00  0.00    +0.000 HD
BRANCH  12  20
ATOM     16  C   UNL     1      -0.916  11.314  21.751  0.00  0.00    +0.000 A 
ATOM     17  C   UNL     1      -0.885  10.754  23.036  0.00  0.00    +0.000 A 
ATOM     18  C   UNL     1      -0.147   9.604  23.297  0.00  0.00    +0.000 A 
ATOM     19  C   UNL     1       0.548   8.985  22.267  0.00  0.00    +0.000 A 
ATOM     20  C   UNL     1       0.519   9.518  20.970  0.00  0.00    +0.000 A 
ATOM     21  C   UNL     1      -0.210  10.686  20.710  0.00  0.00    +0.000 A 
BRANCH  16  22
ATOM     22  C   UNL     1      -1.744  12.552  21.489  0.00  0.00    +0.000 C 
BRANCH  22  23
ATOM     23  C   UNL     1      -1.961  12.792  19.992  0.00  0.00    +0.000 C 
BRANCH  23  25
ATOM     24  C   UNL     1      -3.171  11.465  18.235  0.00  0.00    +0.000 C 
ATOM     25  C   UNL     1      -3.314  12.260  19.525  0.00  0.00    +0.000 C 
ENDBRANCH  23  25
ENDBRANCH  22  23
ENDBRANCH  16  22
ENDBRANCH  12  20
ENDBRANCH   1  14
BRANCH   2  26
ATOM     26  O   UNL     1       3.380   8.416  17.741  0.00  0.00    +0.000 OA
ATOM     27  H   UNL     1       3.377   8.330  16.761  0.00  0.00    +0.000 HD
ENDBRANCH   2  26
BRANCH   6  28
ATOM     28  O   UNL     1       5.961   3.103  15.448  0.00  0.00    +0.000 OA
ATOM     29  H   UNL     1       6.725   3.464  14.970  0.00  0.00    +0.000 HD
ENDBRANCH   6  28
TORSDOF 7
ENDMDL
MODEL 5
REMARK VINA RESULT:      -7.3      2.776      4.765
REMARK  Name = 
REMARK  8 active torsions:
REMARK  status: ('A' for Active; 'I' for Inactive)
REMARK    1  A    between atoms: C_1  and  C_2
REMARK    2  A    between atoms: C_2  and  C_3
REMARK    3  A    between atoms: C_3  and  C_4
REMARK    4  A    between atoms: C_4  and  C_5
REMARK    5  A    between atoms: C_9  and  C_10
REMARK    6  A    between atoms: N_12  and  C_13
REMARK    7  A    between atoms: C_14  and  O_15
REMARK    8  A    between atoms: C_19  and  O_20
REMARK                            x       y       z     vdW  Elec       q    Type
REMARK                         _______ _______ _______ _____ _____    ______ ____
ROOT
ATOM      1  C   UNL     1       2.431   7.661  18.732  0.00  0.00    +0.000 A 
ATOM      2  C   UNL     1       1.991   7.441  19.986  0.00  0.00    +0.000 A 
ATOM      3  C   UNL     1       1.191   8.468  20.658  0.00  0.00    +0.000 A 
ATOM      4  C   UNL     1       1.033   8.534  22.046  0.00  0.00    +0.000 A 
ATOM      5  C   UNL     1       0.226   9.522  22.617  0.00  0.00    +0.000 A 
ATOM      6  C   UNL     1      -0.459  10.410  21.791  0.00  0.00    +0.000 A 
ATOM      7  C   UNL     1      -0.318  10.357  20.411  0.00  0.00    +0.000 A 
ATOM      8  C   UNL     1       0.553   9.417  19.866  0.00  0.00    +0.000 A 
ATOM      9  O   UNL     1       0.846   9.519  18.501  0.00  0.00    +0.000 OA
ATOM     10  C   UNL     1       2.042   8.958  18.091  0.00  0.00    +0.000 A 
ATOM     11  O   UNL     1       2.697   9.408  17.150  0.00  0.00    +0.000 OA
ENDROOT
BRANCH   1  14
ATOM     12  C   UNL     1       4.333   6.111  18.424  0.00  0.00    +0.000 C 
ATOM     13  O   UNL     1       4.644   6.030  19.611  0.00  0.00    +0.000 OA
ATOM     14  N   UNL     1       3.261   6.844  17.965  0.00  0.00    +0.000 N 
ATOM     15  H   UNL     1       2.913   6.651  17.026  0.00  0.00    +0.000 HD
BRANCH  12  20
ATOM     16  C   UNL     1       5.559   4.442  15.236  0.00  0.00    +0.000 A 
ATOM     17  C   UNL     1       6.883   4.178  15.615  0.00  0.00    +0.000 A 
ATOM     18  C   UNL     1       7.333   4.471  16.898  0.00  0.00    +0.000 A 
ATOM     19  C   UNL     1       6.468   5.060  17.811  0.00  0.00    +0.000 A 
ATOM     20  C   UNL     1       5.143   5.349  17.450  0.00  0.00    +0.000 A 
ATOM     21  C   UNL     1       4.685   5.036  16.163  0.00  0.00    +0.000 A 
BRANCH  16  22
ATOM     22  C   UNL     1       5.103   4.132  13.828  0.00  0.00    +0.000 C 
BRANCH  22  23
ATOM     23  C   UNL     1       6.246   3.599  12.959  0.00  0.00    +0.000 C 
BRANCH  23  25
ATOM     24  C   UNL     1       6.790   1.824  11.266  0.00  0.00    +0.000 C 
ATOM     25  C   UNL     1       5.723   2.779  11.781  0.00  0.00    +0.000 C 
ENDBRANCH  23  25
ENDBRANCH  22  23
ENDBRANCH  16  22
ENDBRANCH  12  20
ENDBRANCH   1  14
BRANCH   2  26
ATOM     26  O   UNL     1       2.236   6.331  20.761  0.00  0.00    +0.000 OA
ATOM     27  H   UNL     1       2.950   6.559  21.398  0.00  0.00    +0.000 HD
ENDBRANCH   2  26
BRANCH   6  28
ATOM     28  O   UNL     1      -1.261  11.383  22.310  0.00  0.00    +0.000 OA
ATOM     29  H   UNL     1      -2.035  11.487  21.734  0.00  0.00    +0.000 HD
ENDBRANCH   6  28
TORSDOF 7
ENDMDL
MODEL 6
REMARK VINA RESULT:      -7.3      2.912      8.213
REMARK  Name = 
REMARK  8 active torsions:
REMARK  status: ('A' for Active; 'I' for Inactive)
REMARK    1  A    between atoms: C_1  and  C_2
REMARK    2  A    between atoms: C_2  and  C_3
REMARK    3  A    between atoms: C_3  and  C_4
REMARK    4  A    between atoms: C_4  and  C_5
REMARK    5  A    between atoms: C_9  and  C_10
REMARK    6  A    between atoms: N_12  and  C_13
REMARK    7  A    between atoms: C_14  and  O_15
REMARK    8  A    between atoms: C_19  and  O_20
REMARK                            x       y       z     vdW  Elec       q    Type
REMARK                         _______ _______ _______ _____ _____    ______ ____
ROOT
ATOM      1  C   UNL     1       2.493   7.050  18.937  0.00  0.00    +0.000 A 
ATOM      2  C   UNL     1       2.164   6.125  19.858  0.00  0.00    +0.000 A 
ATOM      3  C   UNL     1       2.894   4.856  19.897  0.00  0.00    +0.000 A 
ATOM      4  C   UNL     1       2.396   3.700  20.506  0.00  0.00    +0.000 A 
ATOM      5  C   UNL     1       3.163   2.531  20.535  0.00  0.00    +0.000 A 
ATOM      6  C   UNL     1       4.448   2.542  19.996  0.00  0.00    +0.000 A 
ATOM      7  C   UNL     1       4.961   3.682  19.392  0.00  0.00    +0.000 A 
ATOM      8  C   UNL     1       4.150   4.810  19.301  0.00  0.00    +0.000 A 
ATOM      9  O   UNL     1       4.600   5.870  18.505  0.00  0.00    +0.000 OA
ATOM     10  C   UNL     1       3.625   6.719  18.013  0.00  0.00    +0.000 A 
ATOM     11  O   UNL     1       3.734   7.296  16.930  0.00  0.00    +0.000 OA
ENDROOT
BRANCH   1  14
ATOM     12  C   UNL     1       1.344   9.121  19.648  0.00  0.00    +0.000 C 
ATOM     13  O   UNL     1       1.437   8.927  20.859  0.00  0.00    +0.000 OA
ATOM     14  N   UNL     1       1.869   8.274  18.697  0.00  0.00    +0.000 N 
ATOM     15  H   UNL     1       1.984   8.629  17.749  0.00  0.00    +0.000 HD
BRANCH  12  20
ATOM     16  C   UNL     1      -1.255  11.546  18.299  0.00  0.00    +0.000 A 
ATOM     17  C   UNL     1      -0.663  12.754  18.695  0.00  0.00    +0.000 A 
ATOM     18  C   UNL     1       0.581  12.771  19.317  0.00  0.00    +0.000 A 
ATOM     19  C   UNL     1       1.236  11.574  19.576  0.00  0.00    +0.000 A 
ATOM     20  C   UNL     1       0.657  10.352  19.203  0.00  0.00    +0.000 A 
ATOM     21  C   UNL     1      -0.588  10.336  18.560  0.00  0.00    +0.000 A 
BRANCH  16  22
ATOM     22  C   UNL     1      -2.618  11.554  17.644  0.00  0.00    +0.000 C 
BRANCH  22  23
ATOM     23  C   UNL     1      -2.805  10.367  16.695  0.00  0.00    +0.000 C 
BRANCH  23  25
ATOM     24  C   UNL     1      -3.019   9.974  14.222  0.00  0.00    +0.000 C 
ATOM     25  C   UNL     1      -3.523  10.778  15.411  0.00  0.00    +0.000 C 
ENDBRANCH  23  25
ENDBRANCH  22  23
ENDBRANCH  16  22
ENDBRANCH  12  20
ENDBRANCH   1  14
BRANCH   2  26
ATOM     26  O   UNL     1       1.159   6.217  20.793  0.00  0.00    +0.000 OA
ATOM     27  H   UNL     1       1.573   6.414  21.663  0.00  0.00    +0.000 HD
ENDBRANCH   2  26
BRANCH   6  28
ATOM     28  O   UNL     1       5.229   1.425  20.011  0.00  0.00    +0.000 OA
ATOM     29  H   UNL     1       5.166   0.990  19.146  0.00  0.00    +0.000 HD
ENDBRANCH   6  28
TORSDOF 7
ENDMDL
MODEL 7
REMARK VINA RESULT:      -7.3      2.462      8.617
REMARK  Name = 
REMARK  8 active torsions:
REMARK  status: ('A' for Active; 'I' for Inactive)
REMARK    1  A    between atoms: C_1  and  C_2
REMARK    2  A    between atoms: C_2  and  C_3
REMARK    3  A    between atoms: C_3  and  C_4
REMARK    4  A    between atoms: C_4  and  C_5
REMARK    5  A    between atoms: C_9  and  C_10
REMARK    6  A    between atoms: N_12  and  C_13
REMARK    7  A    between atoms: C_14  and  O_15
REMARK    8  A    between atoms: C_19  and  O_20
REMARK                            x       y       z     vdW  Elec       q    Type
REMARK                         _______ _______ _______ _____ _____    ______ ____
ROOT
ATOM      1  C   UNL     1       2.635   6.751  19.380  0.00  0.00    +0.000 A 
ATOM      2  C   UNL     1       3.302   7.122  18.269  0.00  0.00    +0.000 A 
ATOM      3  C   UNL     1       4.067   6.122  17.523  0.00  0.00    +0.000 A 
ATOM      4  C   UNL     1       5.094   6.448  16.630  0.00  0.00    +0.000 A 
ATOM      5  C   UNL     1       5.760   5.441  15.924  0.00  0.00    +0.000 A 
ATOM      6  C   UNL     1       5.361   4.116  16.079  0.00  0.00    +0.000 A 
ATOM      7  C   UNL     1       4.340   3.774  16.957  0.00  0.00    +0.000 A 
ATOM      8  C   UNL     1       3.744   4.782  17.710  0.00  0.00    +0.000 A 
ATOM      9  O   UNL     1       2.875   4.396  18.737  0.00  0.00    +0.000 OA
ATOM     10  C   UNL     1       2.705   5.305  19.765  0.00  0.00    +0.000 A 
ATOM     11  O   UNL     1       2.479   4.959  20.926  0.00  0.00    +0.000 OA
ENDROOT
BRANCH   1  14
ATOM     12  C   UNL     1       1.166   8.667  19.915  0.00  0.00    +0.000 C 
ATOM     13  O   UNL     1       0.966   9.021  18.755  0.00  0.00    +0.000 OA
ATOM     14  N   UNL     1       1.921   7.567  20.257  0.00  0.00    +0.000 N 
ATOM     15  H   UNL     1       1.822   7.190  21.199  0.00  0.00    +0.000 HD
BRANCH  12  20
ATOM     16  C   UNL     1      -0.980  11.181  21.793  0.00  0.00    +0.000 A 
ATOM     17  C   UNL     1      -0.856  10.660  23.089  0.00  0.00    +0.000 A 
ATOM     18  C   UNL     1      -0.036   9.566  23.345  0.00  0.00    +0.000 A 
ATOM     19  C   UNL     1       0.649   8.961  22.299  0.00  0.00    +0.000 A 
ATOM     20  C   UNL     1       0.528   9.455  20.991  0.00  0.00    +0.000 A 
ATOM     21  C   UNL     1      -0.283  10.569  20.737  0.00  0.00    +0.000 A 
BRANCH  16  22
ATOM     22  C   UNL     1      -1.895  12.358  21.540  0.00  0.00    +0.000 C 
BRANCH  22  23
ATOM     23  C   UNL     1      -2.681  12.754  22.793  0.00  0.00    +0.000 C 
BRANCH  23  25
ATOM     24  C   UNL     1      -4.967  12.980  23.811  0.00  0.00    +0.000 C 
ATOM     25  C   UNL     1      -4.181  12.832  22.517  0.00  0.00    +0.000 C 
ENDBRANCH  23  25
ENDBRANCH  22  23
ENDBRANCH  16  22
ENDBRANCH  12  20
ENDBRANCH   1  14
BRANCH   2  26
ATOM     26  O   UNL     1       3.379   8.390  17.742  0.00  0.00    +0.000 OA
ATOM     27  H   UNL     1       2.752   8.441  16.985  0.00  0.00    +0.000 HD
ENDBRANCH   2  26
BRANCH   6  28
ATOM     28  O   UNL     1       5.981   3.108  15.403  0.00  0.00    +0.000 OA
ATOM     29  H   UNL     1       6.862   3.413  15.130  0.00  0.00    +0.000 HD
ENDBRANCH   6  28
TORSDOF 7
ENDMDL
MODEL 8
REMARK VINA RESULT:      -7.3      1.662      3.468
REMARK  Name = 
REMARK  8 active torsions:
REMARK  status: ('A' for Active; 'I' for Inactive)
REMARK    1  A    between atoms: C_1  and  C_2
REMARK    2  A    between atoms: C_2  and  C_3
REMARK    3  A    between atoms: C_3  and  C_4
REMARK    4  A    between atoms: C_4  and  C_5
REMARK    5  A    between atoms: C_9  and  C_10
REMARK    6  A    between atoms: N_12  and  C_13
REMARK    7  A    between atoms: C_14  and  O_15
REMARK    8  A    between atoms: C_19  and  O_20
REMARK                            x       y       z     vdW  Elec       q    Type
REMARK                         _______ _______ _______ _____ _____    ______ ____
ROOT
ATOM      1  C   UNL     1       0.882   9.924  19.424  0.00  0.00    +0.000 A 
ATOM      2  C   UNL     1       0.096   9.863  20.516  0.00  0.00    +0.000 A 
ATOM      3  C   UNL     1      -0.365  11.105  21.140  0.00  0.00    +0.000 A 
ATOM      4  C   UNL     1      -0.822  11.178  22.460  0.00  0.00    +0.000 A 
ATOM      5  C   UNL     1      -1.280  12.392  22.981  0.00  0.00    +0.000 A 
ATOM      6  C   UNL     1      -1.326  13.517  22.160  0.00  0.00    +0.000 A 
ATOM      7  C   UNL     1      -0.881  13.461  20.845  0.00  0.00    +0.000 A 
ATOM      8  C   UNL     1      -0.353  12.264  20.371  0.00  0.00    +0.000 A 
ATOM      9  O   UNL     1       0.283  12.285  19.124  0.00  0.00    +0.000 OA
ATOM     10  C   UNL     1       1.215  11.288  18.900  0.00  0.00    +0.000 A 
ATOM     11  O   UNL     1       2.206  11.456  18.187  0.00  0.00    +0.000 OA
ENDROOT
BRANCH   1  14
ATOM     12  C   UNL     1       2.105   7.778  19.312  0.00  0.00    +0.000 C 
ATOM     13  O   UNL     1       2.146   7.574  20.523  0.00  0.00    +0.000 OA
ATOM     14  N   UNL     1       1.477   8.863  18.742  0.00  0.00    +0.000 N 
ATOM     15  H   UNL     1       1.258   8.824  17.747  0.00  0.00    +0.000 HD
BRANCH  12  20
ATOM     16  C   UNL     1       4.517   6.023  16.955  0.00  0.00    +0.000 A 
ATOM     17  C   UNL     1       4.011   4.718  17.044  0.00  0.00    +0.000 A 
ATOM     18  C   UNL     1       2.872   4.443  17.794  0.00  0.00    +0.000 A 
ATOM     19  C   UNL     1       2.242   5.468  18.488  0.00  0.00    +0.000 A 
ATOM     20  C   UNL     1       2.740   6.777  18.427  0.00  0.00    +0.000 A 
ATOM     21  C   UNL     1       3.876   7.059  17.657  0.00  0.00    +0.000 A 
BRANCH  16  22
ATOM     22  C   UNL     1       5.769   6.291  16.150  0.00  0.00    +0.000 C 
BRANCH  22  23
ATOM     23  C   UNL     1       7.015   5.694  16.811  0.00  0.00    +0.000 C 
BRANCH  23  25
ATOM     24  C   UNL     1       7.740   7.971  17.584  0.00  0.00    +0.000 C 
ATOM     25  C   UNL     1       7.479   6.532  18.000  0.00  0.00    +0.000 C 
ENDBRANCH  23  25
ENDBRANCH  22  23
ENDBRANCH  16  22
ENDBRANCH  12  20
ENDBRANCH   1  14
BRANCH   2  26
ATOM     26  O   UNL     1      -0.323   8.725  21.164  0.00  0.00    +0.000 OA
ATOM     27  H   UNL     1      -1.283   8.610  20.983  0.00  0.00    +0.000 HD
ENDBRANCH   2  26
BRANCH   6  28
ATOM     28  O   UNL     1      -1.773  14.716  22.629  0.00  0.00    +0.000 OA
ATOM     29  H   UNL     1      -2.380  14.553  23.369  0.00  0.00    +0.000 HD
ENDBRANCH   6  28
TORSDOF 7
ENDMDL
MODEL 9
REMARK VINA RESULT:      -7.2      1.230      1.429
REMARK  Name = 
REMARK  8 active torsions:
REMARK  status: ('A' for Active; 'I' for Inactive)
REMARK    1  A    between atoms: C_1  and  C_2
REMARK    2  A    between atoms: C_2  and  C_3
REMARK    3  A    between atoms: C_3  and  C_4
REMARK    4  A    between atoms: C_4  and  C_5
REMARK    5  A    between atoms: C_9  and  C_10
REMARK    6  A    between atoms: N_12  and  C_13
REMARK    7  A    between atoms: C_14  and  O_15
REMARK    8  A    between atoms: C_19  and  O_20
REMARK                            x       y       z     vdW  Elec       q    Type
REMARK                         _______ _______ _______ _____ _____    ______ ____
ROOT
ATOM      1  C   UNL     1       0.707   9.634  20.751  0.00  0.00    +0.000 A 
ATOM      2  C   UNL     1       0.667  10.958  20.504  0.00  0.00    +0.000 A 
ATOM      3  C   UNL     1      -0.346  11.782  21.167  0.00  0.00    +0.000 A 
ATOM      4  C   UNL     1      -0.741  13.040  20.699  0.00  0.00    +0.000 A 
ATOM      5  C   UNL     1      -1.690  13.788  21.403  0.00  0.00    +0.000 A 
ATOM      6  C   UNL     1      -2.202  13.293  22.600  0.00  0.00    +0.000 A 
ATOM      7  C   UNL     1      -1.819  12.048  23.082  0.00  0.00    +0.000 A 
ATOM      8  C   UNL     1      -0.934  11.285  22.325  0.00  0.00    +0.000 A 
ATOM      9  O   UNL     1      -0.728   9.956  22.715  0.00  0.00    +0.000 OA
ATOM     10  C   UNL     1      -0.293   9.093  21.726  0.00  0.00    +0.000 A 
ATOM     11  O   UNL     1      -0.589   7.896  21.714  0.00  0.00    +0.000 OA
ENDROOT
BRANCH   1  14
ATOM     12  C   UNL     1       1.743   8.501  18.813  0.00  0.00    +0.000 C 
ATOM     13  O   UNL     1       1.259   9.228  17.948  0.00  0.00    +0.000 OA
ATOM     14  N   UNL     1       1.541   8.683  20.163  0.00  0.00    +0.000 N 
ATOM     15  H   UNL     1       2.175   8.218  20.811  0.00  0.00    +0.000 HD
BRANCH  12  20
ATOM     16  C   UNL     1       3.127   5.039  18.068  0.00  0.00    +0.000 A 
ATOM     17  C   UNL     1       4.177   5.395  17.210  0.00  0.00    +0.000 A 
ATOM     18  C   UNL     1       4.464   6.731  16.947  0.00  0.00    +0.000 A 
ATOM     19  C   UNL     1       3.683   7.727  17.519  0.00  0.00    +0.000 A 
ATOM     20  C   UNL     1       2.617   7.394  18.367  0.00  0.00    +0.000 A 
ATOM     21  C   UNL     1       2.339   6.050  18.648  0.00  0.00    +0.000 A 
BRANCH  16  22
ATOM     22  C   UNL     1       2.823   3.579  18.320  0.00  0.00    +0.000 C 
BRANCH  22  23
ATOM     23  C   UNL     1       1.325   3.278  18.214  0.00  0.00    +0.000 C 
BRANCH  23  25
ATOM     24  C   UNL     1       1.204   3.246  20.723  0.00  0.00    +0.000 C 
ATOM     25  C   UNL     1       0.811   2.528  19.441  0.00  0.00    +0.000 C 
ENDBRANCH  23  25
ENDBRANCH  22  23
ENDBRANCH  16  22
ENDBRANCH  12  20
ENDBRANCH   1  14
BRANCH   2  26
ATOM     26  O   UNL     1       1.479  11.660  19.644  0.00  0.00    +0.000 OA
ATOM     27  H   UNL     1       0.902  12.176  19.037  0.00  0.00    +0.000 HD
ENDBRANCH   2  26
BRANCH   6  28
ATOM     28  O   UNL     1      -3.124  13.995  23.317  0.00  0.00    +0.000 OA
ATOM     29  H   UNL     1      -2.919  14.942  23.245  0.00  0.00    +0.000 HD
ENDBRANCH   6  28
TORSDOF 7
ENDMDL
