MODEL 1
REMARK VINA RESULT:      -8.0      0.000      0.000
REMARK  Name = 
REMARK  5 active torsions:
REMARK  status: ('A' for Active; 'I' for Inactive)
REMARK    1  A    between atoms: C_1  and  C_2
REMARK    2  A    between atoms: C_5  and  C_6
REMARK    3  A    between atoms: C_6  and  C_7
REMARK    4  A    between atoms: N_16  and  C_17
REMARK    5  A    between atoms: C_22  and  C_23
REMARK                            x       y       z     vdW  Elec       q    Type
REMARK                         _______ _______ _______ _____ _____    ______ ____
ROOT
ATOM      1  C   UNL     1      -3.526  12.929  23.780  0.00  0.00    +0.000 C 
ATOM      2  O   UNL     1      -4.272  11.985  24.074  0.00  0.00    +0.000 OA
ATOM      3  N   UNL     1      -2.195  12.740  23.446  0.00  0.00    +0.000 N 
ATOM      4  C   UNL     1      -1.726  11.380  23.291  0.00  0.00    +0.000 C 
ATOM      5  C   UNL     1      -1.468  11.125  21.816  0.00  0.00    +0.000 C 
ATOM      6  C   UNL     1      -0.367  12.074  21.300  0.00  0.00    +0.000 C 
ATOM      7  C   UNL     1      -0.756  13.543  21.604  0.00  0.00    +0.000 C 
ATOM      8  C   UNL     1      -1.207  13.748  23.054  0.00  0.00    +0.000 C 
ATOM      9  C   UNL     1      -0.026  12.000  19.790  0.00  0.00    +0.000 C 
ATOM     10  N   UNL     1       1.054  11.025  20.043  0.00  0.00    +0.000 NA
ATOM     11  C   UNL     1       1.092  11.518  21.454  0.00  0.00    +0.000 C 
ENDROOT
BRANCH  10  12
ATOM     12  C   UNL     1       0.656   9.606  19.900  0.00  0.00    +0.000 C 
ATOM     13  C   UNL     1       0.609   8.869  21.269  0.00  0.00    +0.000 C 
ATOM     14  C   UNL     1       1.395   7.548  21.167  0.00  0.00    +0.000 C 
ATOM     15  C   UNL     1       2.020   7.610  19.813  0.00  0.00    +0.000 A 
ATOM     16  C   UNL     1       2.857   6.660  19.225  0.00  0.00    +0.000 A 
ATOM     17  C   UNL     1       3.309   6.831  17.897  0.00  0.00    +0.000 A 
ATOM     18  C   UNL     1       2.820   7.946  17.192  0.00  0.00    +0.000 A 
ATOM     19  C   UNL     1       1.948   8.855  17.770  0.00  0.00    +0.000 A 
ATOM     20  C   UNL     1       1.603   8.734  19.108  0.00  0.00    +0.000 A 
BRANCH  17  21
ATOM     21  C   UNL     1       4.225   5.898  17.229  0.00  0.00    +0.000 A 
ATOM     22  N   UNL     1       4.076   4.579  17.443  0.00  0.00    +0.000 NA
ATOM     23  C   UNL     1       4.947   3.778  16.799  0.00  0.00    +0.000 A 
ATOM     24  C   UNL     1       5.944   4.234  15.966  0.00  0.00    +0.000 A 
ATOM     25  C   UNL     1       6.013   5.593  15.815  0.00  0.00    +0.000 A 
ATOM     26  N   UNL     1       5.175   6.439  16.430  0.00  0.00    +0.000 NA
ENDBRANCH  17  21
ENDBRANCH  10  12
BRANCH   1  27
ATOM     27  C   UNL     1      -4.117  14.324  23.768  0.00  0.00    +0.000 C 
BRANCH  27  32
ATOM     28  C   UNL     1      -7.527  15.046  19.191  0.00  0.00    +0.000 C 
ATOM     29  C   UNL     1      -6.697  14.858  20.421  0.00  0.00    +0.000 A 
ATOM     30  C   UNL     1      -7.209  14.275  21.574  0.00  0.00    +0.000 A 
ATOM     31  C   UNL     1      -6.387  14.109  22.689  0.00  0.00    +0.000 A 
ATOM     32  C   UNL     1      -5.066  14.547  22.627  0.00  0.00    +0.000 A 
ATOM     33  N   UNL     1      -4.551  15.127  21.515  0.00  0.00    +0.000 NA
ATOM     34  C   UNL     1      -5.370  15.267  20.448  0.00  0.00    +0.000 A 
ENDBRANCH  27  32
ENDBRANCH   1  27
TORSDOF 4
ENDMDL
MODEL 2
REMARK VINA RESULT:      -7.9      2.907      4.665
REMARK  Name = 
REMARK  5 active torsions:
REMARK  status: ('A' for Active; 'I' for Inactive)
REMARK    1  A    between atoms: C_1  and  C_2
REMARK    2  A    between atoms: C_5  and  C_6
REMARK    3  A    between atoms: C_6  and  C_7
REMARK    4  A    between atoms: N_16  and  C_17
REMARK    5  A    between atoms: C_22  and  C_23
REMARK                            x       y       z     vdW  Elec       q    Type
REMARK                         _______ _______ _______ _____ _____    ______ ____
ROOT
ATOM      1  C   UNL     1      -0.806  16.584  21.257  0.00  0.00    +0.000 C 
ATOM      2  O   UNL     1       0.307  17.078  21.029  0.00  0.00    +0.000 OA
ATOM      3  N   UNL     1      -1.231  15.414  20.648  0.00  0.00    +0.000 N 
ATOM      4  C   UNL     1      -0.272  14.684  19.848  0.00  0.00    +0.000 C 
ATOM      5  C   UNL     1       0.100  13.409  20.585  0.00  0.00    +0.000 C 
ATOM      6  C   UNL     1      -1.149  12.521  20.767  0.00  0.00    +0.000 C 
ATOM      7  C   UNL     1      -2.268  13.327  21.472  0.00  0.00    +0.000 C 
ATOM      8  C   UNL     1      -2.497  14.702  20.836  0.00  0.00    +0.000 C 
ATOM      9  C   UNL     1      -0.966  11.207  21.567  0.00  0.00    +0.000 C 
ATOM     10  N   UNL     1      -0.709  10.443  20.329  0.00  0.00    +0.000 NA
ATOM     11  C   UNL     1      -1.415  11.529  19.581  0.00  0.00    +0.000 C 
ENDROOT
BRANCH  10  12
ATOM     12  C   UNL     1       0.721  10.288  19.979  0.00  0.00    +0.000 C 
ATOM     13  C   UNL     1       1.023  10.753  18.526  0.00  0.00    +0.000 C 
ATOM     14  C   UNL     1       1.828   9.661  17.796  0.00  0.00    +0.000 C 
ATOM     15  C   UNL     1       1.840   8.524  18.762  0.00  0.00    +0.000 A 
ATOM     16  C   UNL     1       2.430   7.270  18.583  0.00  0.00    +0.000 A 
ATOM     17  C   UNL     1       2.420   6.321  19.630  0.00  0.00    +0.000 A 
ATOM     18  C   UNL     1       1.865   6.726  20.857  0.00  0.00    +0.000 A 
ATOM     19  C   UNL     1       1.329   7.992  21.039  0.00  0.00    +0.000 A 
ATOM     20  C   UNL     1       1.245   8.871  19.970  0.00  0.00    +0.000 A 
BRANCH  17  21
ATOM     21  C   UNL     1       2.980   4.970  19.499  0.00  0.00    +0.000 A 
ATOM     22  N   UNL     1       2.152   3.914  19.584  0.00  0.00    +0.000 NA
ATOM     23  C   UNL     1       2.729   2.704  19.453  0.00  0.00    +0.000 A 
ATOM     24  C   UNL     1       4.076   2.510  19.247  0.00  0.00    +0.000 A 
ATOM     25  C   UNL     1       4.835   3.648  19.177  0.00  0.00    +0.000 A 
ATOM     26  N   UNL     1       4.316   4.878  19.300  0.00  0.00    +0.000 NA
ENDBRANCH  17  21
ENDBRANCH  10  12
BRANCH   1  27
ATOM     27  C   UNL     1      -1.704  17.285  22.254  0.00  0.00    +0.000 C 
BRANCH  27  32
ATOM     28  C   UNL     1       0.108  16.234  27.613  0.00  0.00    +0.000 C 
ATOM     29  C   UNL     1      -0.361  16.575  26.234  0.00  0.00    +0.000 A 
ATOM     30  C   UNL     1      -0.078  17.801  25.641  0.00  0.00    +0.000 A 
ATOM     31  C   UNL     1      -0.526  18.062  24.346  0.00  0.00    +0.000 A 
ATOM     32  C   UNL     1      -1.264  17.088  23.676  0.00  0.00    +0.000 A 
ATOM     33  N   UNL     1      -1.558  15.891  24.242  0.00  0.00    +0.000 NA
ATOM     34  C   UNL     1      -1.103  15.664  25.494  0.00  0.00    +0.000 A 
ENDBRANCH  27  32
ENDBRANCH   1  27
TORSDOF 4
ENDMDL
MODEL 3
REMARK VINA RESULT:      -7.9      2.707      3.954
REMARK  Name = 
REMARK  5 active torsions:
REMARK  status: ('A' for Active; 'I' for Inactive)
REMARK    1  A    between atoms: C_1  and  C_2
REMARK    2  A    between atoms: C_5  and  C_6
REMARK    3  A    between atoms: C_6  and  C_7
REMARK    4  A    between atoms: N_16  and  C_17
REMARK    5  A    between atoms: C_22  and  C_23
REMARK                            x       y       z     vdW  Elec       q    Type
REMARK                         _______ _______ _______ _____ _____    ______ ____
ROOT
ATOM      1  C   UNL     1      -0.401  16.071  22.006  0.00  0.00    +0.000 C 
ATOM      2  O   UNL     1       0.750  16.380  22.345  0.00  0.00    +0.000 OA
ATOM      3  N   UNL     1      -0.652  15.236  20.930  0.00  0.00    +0.000 N 
ATOM      4  C   UNL     1       0.480  14.595  20.296  0.00  0.00    +0.000 C 
ATOM      5  C   UNL     1       0.445  13.114  20.632  0.00  0.00    +0.000 C 
ATOM      6  C   UNL     1      -0.843  12.476  20.072  0.00  0.00    +0.000 C 
ATOM      7  C   UNL     1      -2.081  13.247  20.595  0.00  0.00    +0.000 C 
ATOM      8  C   UNL     1      -1.946  14.765  20.431  0.00  0.00    +0.000 C 
ATOM      9  C   UNL     1      -1.080  10.977  20.387  0.00  0.00    +0.000 C 
ATOM     10  N   UNL     1      -0.432  10.570  19.123  0.00  0.00    +0.000 NA
ATOM     11  C   UNL     1      -0.716  11.943  18.602  0.00  0.00    +0.000 C 
ENDROOT
BRANCH  10  12
ATOM     12  C   UNL     1       1.008  10.244  19.239  0.00  0.00    +0.000 C 
ATOM     13  C   UNL     1       1.754  10.394  17.882  0.00  0.00    +0.000 C 
ATOM     14  C   UNL     1       2.582   9.125  17.610  0.00  0.00    +0.000 C 
ATOM     15  C   UNL     1       2.185   8.199  18.711  0.00  0.00    +0.000 A 
ATOM     16  C   UNL     1       2.637   6.894  18.922  0.00  0.00    +0.000 A 
ATOM     17  C   UNL     1       2.220   6.170  20.062  0.00  0.00    +0.000 A 
ATOM     18  C   UNL     1       1.405   6.846  20.988  0.00  0.00    +0.000 A 
ATOM     19  C   UNL     1       1.005   8.159  20.794  0.00  0.00    +0.000 A 
ATOM     20  C   UNL     1       1.330   8.817  19.618  0.00  0.00    +0.000 A 
BRANCH  17  21
ATOM     21  C   UNL     1       2.617   4.781  20.326  0.00  0.00    +0.000 A 
ATOM     22  N   UNL     1       3.585   4.230  19.573  0.00  0.00    +0.000 NA
ATOM     23  C   UNL     1       3.903   2.955  19.869  0.00  0.00    +0.000 A 
ATOM     24  C   UNL     1       3.303   2.221  20.867  0.00  0.00    +0.000 A 
ATOM     25  C   UNL     1       2.329   2.872  21.576  0.00  0.00    +0.000 A 
ATOM     26  N   UNL     1       1.970   4.139  21.327  0.00  0.00    +0.000 NA
ENDBRANCH  17  21
ENDBRANCH  10  12
BRANCH   1  27
ATOM     27  C   UNL     1      -1.553  16.616  22.824  0.00  0.00    +0.000 C 
BRANCH  27  32
ATOM     28  C   UNL     1      -5.034  12.448  24.726  0.00  0.00    +0.000 C 
ATOM     29  C   UNL     1      -4.085  13.515  24.282  0.00  0.00    +0.000 A 
ATOM     30  C   UNL     1      -2.721  13.442  24.541  0.00  0.00    +0.000 A 
ATOM     31  C   UNL     1      -1.877  14.457  24.091  0.00  0.00    +0.000 A 
ATOM     32  C   UNL     1      -2.424  15.536  23.398  0.00  0.00    +0.000 A 
ATOM     33  N   UNL     1      -3.752  15.629  23.145  0.00  0.00    +0.000 NA
ATOM     34  C   UNL     1      -4.544  14.626  23.587  0.00  0.00    +0.000 A 
ENDBRANCH  27  32
ENDBRANCH   1  27
TORSDOF 4
ENDMDL
MODEL 4
REMARK VINA RESULT:      -7.9      6.208      7.423
REMARK  Name = 
REMARK  5 active torsions:
REMARK  status: ('A' for Active; 'I' for Inactive)
REMARK    1  A    between atoms: C_1  and  C_2
REMARK    2  A    between atoms: C_5  and  C_6
REMARK    3  A    between atoms: C_6  and  C_7
REMARK    4  A    between atoms: N_16  and  C_17
REMARK    5  A    between atoms: C_22  and  C_23
REMARK                            x       y       z     vdW  Elec       q    Type
REMARK                         _______ _______ _______ _____ _____    ______ ____
ROOT
ATOM      1  C   UNL     1      -2.112  12.846  21.163  0.00  0.00    +0.000 C 
ATOM      2  O   UNL     1      -1.813  11.858  21.848  0.00  0.00    +0.000 OA
ATOM      3  N   UNL     1      -1.305  13.970  21.100  0.00  0.00    +0.000 N 
ATOM      4  C   UNL     1      -0.007  13.904  21.735  0.00  0.00    +0.000 C 
ATOM      5  C   UNL     1       1.058  13.865  20.653  0.00  0.00    +0.000 C 
ATOM      6  C   UNL     1       1.002  15.156  19.809  0.00  0.00    +0.000 C 
ATOM      7  C   UNL     1      -0.429  15.353  19.248  0.00  0.00    +0.000 C 
ATOM      8  C   UNL     1      -1.512  15.192  20.319  0.00  0.00    +0.000 C 
ATOM      9  C   UNL     1       1.975  15.254  18.608  0.00  0.00    +0.000 C 
ATOM     10  N   UNL     1       2.988  15.941  19.436  0.00  0.00    +0.000 NA
ATOM     11  C   UNL     1       1.882  16.330  20.364  0.00  0.00    +0.000 C 
ENDROOT
BRANCH  10  12
ATOM     12  C   UNL     1       4.008  15.053  20.036  0.00  0.00    +0.000 C 
ATOM     13  C   UNL     1       4.360  15.464  21.494  0.00  0.00    +0.000 C 
ATOM     14  C   UNL     1       5.890  15.552  21.647  0.00  0.00    +0.000 C 
ATOM     15  C   UNL     1       6.397  15.356  20.257  0.00  0.00    +0.000 A 
ATOM     16  C   UNL     1       7.729  15.362  19.835  0.00  0.00    +0.000 A 
ATOM     17  C   UNL     1       8.051  15.084  18.487  0.00  0.00    +0.000 A 
ATOM     18  C   UNL     1       6.990  14.734  17.633  0.00  0.00    +0.000 A 
ATOM     19  C   UNL     1       5.677  14.681  18.076  0.00  0.00    +0.000 A 
ATOM     20  C   UNL     1       5.365  15.066  19.371  0.00  0.00    +0.000 A 
BRANCH  17  21
ATOM     21  C   UNL     1       9.422  15.116  17.963  0.00  0.00    +0.000 A 
ATOM     22  N   UNL     1      10.139  13.978  17.951  0.00  0.00    +0.000 NA
ATOM     23  C   UNL     1      11.387  14.076  17.455  0.00  0.00    +0.000 A 
ATOM     24  C   UNL     1      11.940  15.245  16.981  0.00  0.00    +0.000 A 
ATOM     25  C   UNL     1      11.130  16.348  17.037  0.00  0.00    +0.000 A 
ATOM     26  N   UNL     1       9.880  16.311  17.520  0.00  0.00    +0.000 NA
ENDBRANCH  17  21
ENDBRANCH  10  12
BRANCH   1  27
ATOM     27  C   UNL     1      -3.394  12.791  20.358  0.00  0.00    +0.000 C 
BRANCH  27  32
ATOM     28  C   UNL     1      -3.043  10.048  15.313  0.00  0.00    +0.000 C 
ATOM     29  C   UNL     1      -3.073  10.735  16.641  0.00  0.00    +0.000 A 
ATOM     30  C   UNL     1      -1.908  11.059  17.329  0.00  0.00    +0.000 A 
ATOM     31  C   UNL     1      -1.992  11.714  18.558  0.00  0.00    +0.000 A 
ATOM     32  C   UNL     1      -3.248  12.019  19.079  0.00  0.00    +0.000 A 
ATOM     33  N   UNL     1      -4.393  11.702  18.427  0.00  0.00    +0.000 NA
ATOM     34  C   UNL     1      -4.281  11.075  17.235  0.00  0.00    +0.000 A 
ENDBRANCH  27  32
ENDBRANCH   1  27
TORSDOF 4
ENDMDL
MODEL 5
REMARK VINA RESULT:      -7.8      2.991      4.532
REMARK  Name = 
REMARK  5 active torsions:
REMARK  status: ('A' for Active; 'I' for Inactive)
REMARK    1  A    between atoms: C_1  and  C_2
REMARK    2  A    between atoms: C_5  and  C_6
REMARK    3  A    between atoms: C_6  and  C_7
REMARK    4  A    between atoms: N_16  and  C_17
REMARK    5  A    between atoms: C_22  and  C_23
REMARK                            x       y       z     vdW  Elec       q    Type
REMARK                         _______ _______ _______ _____ _____    ______ ____
ROOT
ATOM      1  C   UNL     1      -0.607  16.305  20.674  0.00  0.00    +0.000 C 
ATOM      2  O   UNL     1       0.508  16.773  20.405  0.00  0.00    +0.000 OA
ATOM      3  N   UNL     1      -1.031  15.082  20.180  0.00  0.00    +0.000 N 
ATOM      4  C   UNL     1      -0.069  14.276  19.460  0.00  0.00    +0.000 C 
ATOM      5  C   UNL     1       0.297  13.079  20.321  0.00  0.00    +0.000 C 
ATOM      6  C   UNL     1      -0.954  12.214  20.581  0.00  0.00    +0.000 C 
ATOM      7  C   UNL     1      -2.076  13.087  21.198  0.00  0.00    +0.000 C 
ATOM      8  C   UNL     1      -2.300  14.394  20.430  0.00  0.00    +0.000 C 
ATOM      9  C   UNL     1      -0.778  10.984  21.507  0.00  0.00    +0.000 C 
ATOM     10  N   UNL     1      -0.516  10.103  20.350  0.00  0.00    +0.000 NA
ATOM     11  C   UNL     1      -1.216  11.111  19.497  0.00  0.00    +0.000 C 
ENDROOT
BRANCH  10  12
ATOM     12  C   UNL     1       0.916   9.913  20.025  0.00  0.00    +0.000 C 
ATOM     13  C   UNL     1       1.287  10.512  18.639  0.00  0.00    +0.000 C 
ATOM     14  C   UNL     1       2.062   9.463  17.819  0.00  0.00    +0.000 C 
ATOM     15  C   UNL     1       1.989   8.231  18.659  0.00  0.00    +0.000 A 
ATOM     16  C   UNL     1       2.524   6.975  18.364  0.00  0.00    +0.000 A 
ATOM     17  C   UNL     1       2.435   5.923  19.304  0.00  0.00    +0.000 A 
ATOM     18  C   UNL     1       1.860   6.225  20.551  0.00  0.00    +0.000 A 
ATOM     19  C   UNL     1       1.379   7.491  20.852  0.00  0.00    +0.000 A 
ATOM     20  C   UNL     1       1.372   8.480  19.880  0.00  0.00    +0.000 A 
BRANCH  17  21
ATOM     21  C   UNL     1       2.933   4.566  19.046  0.00  0.00    +0.000 A 
ATOM     22  N   UNL     1       3.176   4.195  17.777  0.00  0.00    +0.000 NA
ATOM     23  C   UNL     1       3.634   2.940  17.610  0.00  0.00    +0.000 A 
ATOM     24  C   UNL     1       3.853   2.054  18.642  0.00  0.00    +0.000 A 
ATOM     25  C   UNL     1       3.574   2.528  19.897  0.00  0.00    +0.000 A 
ATOM     26  N   UNL     1       3.117   3.767  20.123  0.00  0.00    +0.000 NA
ENDBRANCH  17  21
ENDBRANCH  10  12
BRANCH   1  27
ATOM     27  C   UNL     1      -1.510  17.101  21.593  0.00  0.00    +0.000 C 
BRANCH  27  32
ATOM     28  C   UNL     1      -0.428  16.643  27.226  0.00  0.00    +0.000 C 
ATOM     29  C   UNL     1      -0.692  16.696  25.755  0.00  0.00    +0.000 A 
ATOM     30  C   UNL     1      -1.030  15.561  25.025  0.00  0.00    +0.000 A 
ATOM     31  C   UNL     1      -1.281  15.668  23.658  0.00  0.00    +0.000 A 
ATOM     32  C   UNL     1      -1.175  16.915  23.045  0.00  0.00    +0.000 A 
ATOM     33  N   UNL     1      -0.837  18.031  23.737  0.00  0.00    +0.000 NA
ATOM     34  C   UNL     1      -0.607  17.897  25.062  0.00  0.00    +0.000 A 
ENDBRANCH  27  32
ENDBRANCH   1  27
TORSDOF 4
ENDMDL
MODEL 6
REMARK VINA RESULT:      -7.7      3.570      5.307
REMARK  Name = 
REMARK  5 active torsions:
REMARK  status: ('A' for Active; 'I' for Inactive)
REMARK    1  A    between atoms: C_1  and  C_2
REMARK    2  A    between atoms: C_5  and  C_6
REMARK    3  A    between atoms: C_6  and  C_7
REMARK    4  A    between atoms: N_16  and  C_17
REMARK    5  A    between atoms: C_22  and  C_23
REMARK                            x       y       z     vdW  Elec       q    Type
REMARK                         _______ _______ _______ _____ _____    ______ ____
ROOT
ATOM      1  C   UNL     1      -1.003  12.665  18.845  0.00  0.00    +0.000 C 
ATOM      2  O   UNL     1      -1.498  12.454  17.729  0.00  0.00    +0.000 OA
ATOM      3  N   UNL     1      -0.909  11.674  19.808  0.00  0.00    +0.000 N 
ATOM      4  C   UNL     1      -1.260  10.324  19.422  0.00  0.00    +0.000 C 
ATOM      5  C   UNL     1       0.010   9.494  19.360  0.00  0.00    +0.000 C 
ATOM      6  C   UNL     1       0.672   9.437  20.752  0.00  0.00    +0.000 C 
ATOM      7  C   UNL     1       0.911  10.875  21.278  0.00  0.00    +0.000 C 
ATOM      8  C   UNL     1      -0.329  11.765  21.150  0.00  0.00    +0.000 C 
ATOM      9  C   UNL     1       2.025   8.688  20.857  0.00  0.00    +0.000 C 
ATOM     10  N   UNL     1       1.343   7.430  21.226  0.00  0.00    +0.000 NA
ATOM     11  C   UNL     1       0.175   8.257  21.659  0.00  0.00    +0.000 C 
ENDROOT
BRANCH  10  12
ATOM     12  C   UNL     1       1.063   6.519  20.093  0.00  0.00    +0.000 C 
ATOM     13  C   UNL     1       0.798   5.061  20.565  0.00  0.00    +0.000 C 
ATOM     14  C   UNL     1       1.665   4.091  19.741  0.00  0.00    +0.000 C 
ATOM     15  C   UNL     1       2.532   4.993  18.927  0.00  0.00    +0.000 A 
ATOM     16  C   UNL     1       3.520   4.617  18.014  0.00  0.00    +0.000 A 
ATOM     17  C   UNL     1       4.205   5.597  17.261  0.00  0.00    +0.000 A 
ATOM     18  C   UNL     1       3.795   6.933  17.423  0.00  0.00    +0.000 A 
ATOM     19  C   UNL     1       2.777   7.288  18.295  0.00  0.00    +0.000 A 
ATOM     20  C   UNL     1       2.192   6.330  19.108  0.00  0.00    +0.000 A 
BRANCH  17  21
ATOM     21  C   UNL     1       5.284   5.280  16.317  0.00  0.00    +0.000 A 
ATOM     22  N   UNL     1       5.144   4.219  15.504  0.00  0.00    +0.000 NA
ATOM     23  C   UNL     1       6.168   3.986  14.662  0.00  0.00    +0.000 A 
ATOM     24  C   UNL     1       7.308   4.756  14.600  0.00  0.00    +0.000 A 
ATOM     25  C   UNL     1       7.355   5.813  15.470  0.00  0.00    +0.000 A 
ATOM     26  N   UNL     1       6.367   6.094  16.330  0.00  0.00    +0.000 NA
ENDBRANCH  17  21
ENDBRANCH  10  12
BRANCH   1  27
ATOM     27  C   UNL     1      -0.469  14.052  19.135  0.00  0.00    +0.000 C 
BRANCH  27  32
ATOM     28  C   UNL     1       5.082  14.889  17.874  0.00  0.00    +0.000 C 
ATOM     29  C   UNL     1       3.641  14.613  18.166  0.00  0.00    +0.000 A 
ATOM     30  C   UNL     1       3.122  13.322  18.161  0.00  0.00    +0.000 A 
ATOM     31  C   UNL     1       1.774  13.118  18.456  0.00  0.00    +0.000 A 
ATOM     32  C   UNL     1       0.969  14.220  18.737  0.00  0.00    +0.000 A 
ATOM     33  N   UNL     1       1.454  15.486  18.736  0.00  0.00    +0.000 NA
ATOM     34  C   UNL     1       2.765  15.651  18.455  0.00  0.00    +0.000 A 
ENDBRANCH  27  32
ENDBRANCH   1  27
TORSDOF 4
ENDMDL
MODEL 7
REMARK VINA RESULT:      -7.6      2.734      3.884
REMARK  Name = 
REMARK  5 active torsions:
REMARK  status: ('A' for Active; 'I' for Inactive)
REMARK    1  A    between atoms: C_1  and  C_2
REMARK    2  A    between atoms: C_5  and  C_6
REMARK    3  A    between atoms: C_6  and  C_7
REMARK    4  A    between atoms: N_16  and  C_17
REMARK    5  A    between atoms: C_22  and  C_23
REMARK                            x       y       z     vdW  Elec       q    Type
REMARK                         _______ _______ _______ _____ _____    ______ ____
ROOT
ATOM      1  C   UNL     1      -0.338  16.025  22.039  0.00  0.00    +0.000 C 
ATOM      2  O   UNL     1       0.808  16.316  22.408  0.00  0.00    +0.000 OA
ATOM      3  N   UNL     1      -0.575  15.214  20.942  0.00  0.00    +0.000 N 
ATOM      4  C   UNL     1       0.563  14.573  20.318  0.00  0.00    +0.000 C 
ATOM      5  C   UNL     1       0.508  13.087  20.624  0.00  0.00    +0.000 C 
ATOM      6  C   UNL     1      -0.775  12.473  20.025  0.00  0.00    +0.000 C 
ATOM      7  C   UNL     1      -2.016  13.245  20.539  0.00  0.00    +0.000 C 
ATOM      8  C   UNL     1      -1.863  14.764  20.407  0.00  0.00    +0.000 C 
ATOM      9  C   UNL     1      -1.032  10.970  20.305  0.00  0.00    +0.000 C 
ATOM     10  N   UNL     1      -0.362  10.582  19.047  0.00  0.00    +0.000 NA
ATOM     11  C   UNL     1      -0.623  11.967  18.548  0.00  0.00    +0.000 C 
ENDROOT
BRANCH  10  12
ATOM     12  C   UNL     1       1.071  10.240  19.185  0.00  0.00    +0.000 C 
ATOM     13  C   UNL     1       1.836  10.365  17.837  0.00  0.00    +0.000 C 
ATOM     14  C   UNL     1       2.653   9.083  17.590  0.00  0.00    +0.000 C 
ATOM     15  C   UNL     1       2.230   8.174  18.695  0.00  0.00    +0.000 A 
ATOM     16  C   UNL     1       2.663   6.866  18.927  0.00  0.00    +0.000 A 
ATOM     17  C   UNL     1       2.222   6.160  20.069  0.00  0.00    +0.000 A 
ATOM     18  C   UNL     1       1.404   6.857  20.977  0.00  0.00    +0.000 A 
ATOM     19  C   UNL     1       1.023   8.173  20.763  0.00  0.00    +0.000 A 
ATOM     20  C   UNL     1       1.371   8.814  19.584  0.00  0.00    +0.000 A 
BRANCH  17  21
ATOM     21  C   UNL     1       2.599   4.770  20.353  0.00  0.00    +0.000 A 
ATOM     22  N   UNL     1       2.002   4.132  21.375  0.00  0.00    +0.000 NA
ATOM     23  C   UNL     1       2.391   2.860  21.580  0.00  0.00    +0.000 A 
ATOM     24  C   UNL     1       3.338   2.210  20.820  0.00  0.00    +0.000 A 
ATOM     25  C   UNL     1       3.888   2.946  19.804  0.00  0.00    +0.000 A 
ATOM     26  N   UNL     1       3.540   4.216  19.553  0.00  0.00    +0.000 NA
ENDBRANCH  17  21
ENDBRANCH  10  12
BRANCH   1  27
ATOM     27  C   UNL     1      -1.502  16.564  22.844  0.00  0.00    +0.000 C 
BRANCH  27  32
ATOM     28  C   UNL     1      -4.909  12.416  24.916  0.00  0.00    +0.000 C 
ATOM     29  C   UNL     1      -4.076  13.515  24.338  0.00  0.00    +0.000 A 
ATOM     30  C   UNL     1      -4.643  14.672  23.813  0.00  0.00    +0.000 A 
ATOM     31  C   UNL     1      -3.819  15.674  23.300  0.00  0.00    +0.000 A 
ATOM     32  C   UNL     1      -2.438  15.487  23.312  0.00  0.00    +0.000 A 
ATOM     33  N   UNL     1      -1.868  14.362  23.810  0.00  0.00    +0.000 NA
ATOM     34  C   UNL     1      -2.691  13.413  24.307  0.00  0.00    +0.000 A 
ENDBRANCH  27  32
ENDBRANCH   1  27
TORSDOF 4
ENDMDL
MODEL 8
REMARK VINA RESULT:      -7.6      2.930      4.606
REMARK  Name = 
REMARK  5 active torsions:
REMARK  status: ('A' for Active; 'I' for Inactive)
REMARK    1  A    between atoms: C_1  and  C_2
REMARK    2  A    between atoms: C_5  and  C_6
REMARK    3  A    between atoms: C_6  and  C_7
REMARK    4  A    between atoms: N_16  and  C_17
REMARK    5  A    between atoms: C_22  and  C_23
REMARK                            x       y       z     vdW  Elec       q    Type
REMARK                         _______ _______ _______ _____ _____    ______ ____
ROOT
ATOM      1  C   UNL     1      -1.574  16.319  22.726  0.00  0.00    +0.000 C 
ATOM      2  O   UNL     1      -0.547  16.988  22.550  0.00  0.00    +0.000 OA
ATOM      3  N   UNL     1      -1.894  15.236  21.924  0.00  0.00    +0.000 N 
ATOM      4  C   UNL     1      -0.908  14.798  20.959  0.00  0.00    +0.000 C 
ATOM      5  C   UNL     1      -0.336  13.470  21.423  0.00  0.00    +0.000 C 
ATOM      6  C   UNL     1      -1.453  12.406  21.484  0.00  0.00    +0.000 C 
ATOM      7  C   UNL     1      -2.612  12.914  22.377  0.00  0.00    +0.000 C 
ATOM      8  C   UNL     1      -3.049  14.340  22.026  0.00  0.00    +0.000 C 
ATOM      9  C   UNL     1      -1.059  11.003  22.010  0.00  0.00    +0.000 C 
ATOM     10  N   UNL     1      -0.794  10.521  20.639  0.00  0.00    +0.000 NA
ATOM     11  C   UNL     1      -1.675  11.623  20.143  0.00  0.00    +0.000 C 
ENDROOT
BRANCH  10  12
ATOM     12  C   UNL     1       0.618  10.623  20.206  0.00  0.00    +0.000 C 
ATOM     13  C   UNL     1       0.779  11.506  18.936  0.00  0.00    +0.000 C 
ATOM     14  C   UNL     1       1.630  10.755  17.894  0.00  0.00    +0.000 C 
ATOM     15  C   UNL     1       1.810   9.400  18.494  0.00  0.00    +0.000 A 
ATOM     16  C   UNL     1       2.498   8.317  17.942  0.00  0.00    +0.000 A 
ATOM     17  C   UNL     1       2.644   7.117  18.674  0.00  0.00    +0.000 A 
ATOM     18  C   UNL     1       2.137   7.100  19.986  0.00  0.00    +0.000 A 
ATOM     19  C   UNL     1       1.502   8.200  20.542  0.00  0.00    +0.000 A 
ATOM     20  C   UNL     1       1.267   9.329  19.773  0.00  0.00    +0.000 A 
BRANCH  17  21
ATOM     21  C   UNL     1       3.315   5.924  18.142  0.00  0.00    +0.000 A 
ATOM     22  N   UNL     1       2.569   4.855  17.808  0.00  0.00    +0.000 NA
ATOM     23  C   UNL     1       3.246   3.797  17.324  0.00  0.00    +0.000 A 
ATOM     24  C   UNL     1       4.613   3.761  17.164  0.00  0.00    +0.000 A 
ATOM     25  C   UNL     1       5.282   4.898  17.534  0.00  0.00    +0.000 A 
ATOM     26  N   UNL     1       4.662   5.982  18.021  0.00  0.00    +0.000 NA
ENDBRANCH  17  21
ENDBRANCH  10  12
BRANCH   1  27
ATOM     27  C   UNL     1      -2.483  16.699  23.876  0.00  0.00    +0.000 C 
BRANCH  27  32
ATOM     28  C   UNL     1       0.607  17.242  28.700  0.00  0.00    +0.000 C 
ATOM     29  C   UNL     1      -0.230  17.159  27.463  0.00  0.00    +0.000 A 
ATOM     30  C   UNL     1      -0.810  18.285  26.888  0.00  0.00    +0.000 A 
ATOM     31  C   UNL     1      -1.569  18.154  25.725  0.00  0.00    +0.000 A 
ATOM     32  C   UNL     1      -1.741  16.888  25.169  0.00  0.00    +0.000 A 
ATOM     33  N   UNL     1      -1.192  15.778  25.720  0.00  0.00    +0.000 NA
ATOM     34  C   UNL     1      -0.455  15.938  26.841  0.00  0.00    +0.000 A 
ENDBRANCH  27  32
ENDBRANCH   1  27
TORSDOF 4
ENDMDL
MODEL 9
REMARK VINA RESULT:      -7.6      2.945      4.185
REMARK  Name = 
REMARK  5 active torsions:
REMARK  status: ('A' for Active; 'I' for Inactive)
REMARK    1  A    between atoms: C_1  and  C_2
REMARK    2  A    between atoms: C_5  and  C_6
REMARK    3  A    between atoms: C_6  and  C_7
REMARK    4  A    between atoms: N_16  and  C_17
REMARK    5  A    between atoms: C_22  and  C_23
REMARK                            x       y       z     vdW  Elec       q    Type
REMARK                         _______ _______ _______ _____ _____    ______ ____
ROOT
ATOM      1  C   UNL     1       0.520  16.204  20.654  0.00  0.00    +0.000 C 
ATOM      2  O   UNL     1       1.717  16.522  20.661  0.00  0.00    +0.000 OA
ATOM      3  N   UNL     1       0.050  15.122  19.927  0.00  0.00    +0.000 N 
ATOM      4  C   UNL     1       1.025  14.261  19.293  0.00  0.00    +0.000 C 
ATOM      5  C   UNL     1       1.052  12.936  20.034  0.00  0.00    +0.000 C 
ATOM      6  C   UNL     1      -0.327  12.250  19.939  0.00  0.00    +0.000 C 
ATOM      7  C   UNL     1      -1.427  13.211  20.453  0.00  0.00    +0.000 C 
ATOM      8  C   UNL     1      -1.321  14.613  19.844  0.00  0.00    +0.000 C 
ATOM      9  C   UNL     1      -0.501  10.914  20.704  0.00  0.00    +0.000 C 
ATOM     10  N   UNL     1      -0.127  10.135  19.506  0.00  0.00    +0.000 NA
ATOM     11  C   UNL     1      -0.505  11.325  18.684  0.00  0.00    +0.000 C 
ENDROOT
BRANCH  10  12
ATOM     12  C   UNL     1       1.304   9.764  19.426  0.00  0.00    +0.000 C 
ATOM     13  C   UNL     1       1.936  10.155  18.060  0.00  0.00    +0.000 C 
ATOM     14  C   UNL     1       2.691   8.945  17.479  0.00  0.00    +0.000 C 
ATOM     15  C   UNL     1       2.355   7.834  18.417  0.00  0.00    +0.000 A 
ATOM     16  C   UNL     1       2.775   6.504  18.336  0.00  0.00    +0.000 A 
ATOM     17  C   UNL     1       2.430   5.584  19.352  0.00  0.00    +0.000 A 
ATOM     18  C   UNL     1       1.724   6.086  20.460  0.00  0.00    +0.000 A 
ATOM     19  C   UNL     1       1.357   7.420  20.554  0.00  0.00    +0.000 A 
ATOM     20  C   UNL     1       1.604   8.285  19.498  0.00  0.00    +0.000 A 
BRANCH  17  21
ATOM     21  C   UNL     1       2.797   4.163  19.312  0.00  0.00    +0.000 A 
ATOM     22  N   UNL     1       4.053   3.808  19.635  0.00  0.00    +0.000 NA
ATOM     23  C   UNL     1       4.323   2.490  19.580  0.00  0.00    +0.000 A 
ATOM     24  C   UNL     1       3.405   1.528  19.220  0.00  0.00    +0.000 A 
ATOM     25  C   UNL     1       2.155   1.991  18.909  0.00  0.00    +0.000 A 
ATOM     26  N   UNL     1       1.828   3.290  18.945  0.00  0.00    +0.000 NA
ENDBRANCH  17  21
ENDBRANCH  10  12
BRANCH   1  27
ATOM     27  C   UNL     1      -0.438  17.024  21.492  0.00  0.00    +0.000 C 
BRANCH  27  32
ATOM     28  C   UNL     1      -3.681  13.721  24.909  0.00  0.00    +0.000 C 
ATOM     29  C   UNL     1      -2.788  14.575  24.068  0.00  0.00    +0.000 A 
ATOM     30  C   UNL     1      -1.402  14.511  24.164  0.00  0.00    +0.000 A 
ATOM     31  C   UNL     1      -0.614  15.319  23.345  0.00  0.00    +0.000 A 
ATOM     32  C   UNL     1      -1.237  16.189  22.451  0.00  0.00    +0.000 A 
ATOM     33  N   UNL     1      -2.586  16.272  22.350  0.00  0.00    +0.000 NA
ATOM     34  C   UNL     1      -3.322  15.471  23.151  0.00  0.00    +0.000 A 
ENDBRANCH  27  32
ENDBRANCH   1  27
TORSDOF 4
ENDMDL
