MODEL 1
REMARK VINA RESULT:      -7.7      0.000      0.000
REMARK  Name = 
REMARK  11 active torsions:
REMARK  status: ('A' for Active; 'I' for Inactive)
REMARK    1  A    between atoms: C_1  and  C_2
REMARK    2  A    between atoms: C_2  and  O_3
REMARK    3  A    between atoms: O_3  and  C_4
REMARK    4  A    between atoms: C_7  and  C_8
REMARK    5  A    between atoms: C_9  and  C_10
REMARK    6  A    between atoms: C_13  and  C_14
REMARK    7  A    between atoms: C_14  and  C_15
REMARK    8  A    between atoms: C_15  and  C_16
REMARK    9  A    between atoms: C_15  and  N_18
REMARK   10  A    between atoms: C_16  and  C_17
REMARK   11  A    between atoms: C_19  and  C_20
REMARK                            x       y       z     vdW  Elec       q    Type
REMARK                         _______ _______ _______ _____ _____    ______ ____
ROOT
ATOM      1  C   UNL     1       7.435   7.471  17.868  0.00  0.00    +0.000 A 
ATOM      2  C   UNL     1       6.372   7.359  16.967  0.00  0.00    +0.000 A 
ATOM      3  C   UNL     1       5.621   6.178  16.910  0.00  0.00    +0.000 A 
ATOM      4  C   UNL     1       5.929   5.095  17.746  0.00  0.00    +0.000 A 
ATOM      5  C   UNL     1       7.044   5.196  18.593  0.00  0.00    +0.000 A 
ATOM      6  C   UNL     1       7.784   6.379  18.660  0.00  0.00    +0.000 A 
ENDROOT
BRANCH   1   8
ATOM      7  C   UNL     1       8.694   9.762  18.160  0.00  0.00    +0.000 C 
ATOM      8  C   UNL     1       8.139   8.707  18.023  0.00  0.00    +0.000 C 
BRANCH   7  12
ATOM      9  C   UNL     1      10.701  13.461  18.538  0.00  0.00    +0.000 A 
ATOM     10  C   UNL     1       9.498  13.376  17.837  0.00  0.00    +0.000 A 
ATOM     11  C   UNL     1       8.831  12.156  17.728  0.00  0.00    +0.000 A 
ATOM     12  C   UNL     1       9.378  11.008  18.303  0.00  0.00    +0.000 A 
ATOM     13  C   UNL     1      10.591  11.086  18.992  0.00  0.00    +0.000 A 
ATOM     14  C   UNL     1      11.259  12.311  19.100  0.00  0.00    +0.000 A 
BRANCH   9  15
ATOM     15  O   UNL     1      11.250  14.711  18.595  0.00  0.00    +0.000 OA
BRANCH  15  17
ATOM     16  C   UNL     1      11.362  16.547  17.088  0.00  0.00    +0.000 C 
ATOM     17  C   UNL     1      10.465  15.758  18.023  0.00  0.00    +0.000 C 
ENDBRANCH  15  17
ENDBRANCH   9  15
ENDBRANCH   7  12
ENDBRANCH   1   8
BRANCH   4  18
ATOM     18  C   UNL     1       5.011   3.897  17.861  0.00  0.00    +0.000 C 
BRANCH  18  19
ATOM     19  C   UNL     1       3.493   4.143  17.744  0.00  0.00    +0.000 C 
BRANCH  19  20
ATOM     20  N   UNL     1       2.985   4.700  19.007  0.00  0.00    +0.000 N 
ATOM     21  C   UNL     1       2.444   5.962  19.092  0.00  0.00    +0.000 C 
ATOM     22  C   UNL     1       1.978   6.359  20.469  0.00  0.00    +0.000 C 
ATOM     23  O   UNL     1       2.371   6.735  18.138  0.00  0.00    +0.000 OA
ATOM     24  H   UNL     1       2.882   4.077  19.798  0.00  0.00    +0.000 HD
ENDBRANCH  19  20
BRANCH  19  25
ATOM     25  C   UNL     1       2.692   2.899  17.316  0.00  0.00    +0.000 C 
ATOM     26  C   UNL     1       1.832   2.276  18.409  0.00  0.00    +0.000 C 
ENDBRANCH  19  25
ENDBRANCH  18  19
ENDBRANCH   4  18
TORSDOF 8
ENDMDL
MODEL 2
REMARK VINA RESULT:      -7.6      1.195      1.557
REMARK  Name = 
REMARK  11 active torsions:
REMARK  status: ('A' for Active; 'I' for Inactive)
REMARK    1  A    between atoms: C_1  and  C_2
REMARK    2  A    between atoms: C_2  and  O_3
REMARK    3  A    between atoms: O_3  and  C_4
REMARK    4  A    between atoms: C_7  and  C_8
REMARK    5  A    between atoms: C_9  and  C_10
REMARK    6  A    between atoms: C_13  and  C_14
REMARK    7  A    between atoms: C_14  and  C_15
REMARK    8  A    between atoms: C_15  and  C_16
REMARK    9  A    between atoms: C_15  and  N_18
REMARK   10  A    between atoms: C_16  and  C_17
REMARK   11  A    between atoms: C_19  and  C_20
REMARK                            x       y       z     vdW  Elec       q    Type
REMARK                         _______ _______ _______ _____ _____    ______ ____
ROOT
ATOM      1  C   UNL     1       7.585   7.703  17.976  0.00  0.00    +0.000 A 
ATOM      2  C   UNL     1       6.467   7.471  17.170  0.00  0.00    +0.000 A 
ATOM      3  C   UNL     1       5.774   6.258  17.262  0.00  0.00    +0.000 A 
ATOM      4  C   UNL     1       6.195   5.261  18.155  0.00  0.00    +0.000 A 
ATOM      5  C   UNL     1       7.361   5.480  18.905  0.00  0.00    +0.000 A 
ATOM      6  C   UNL     1       8.043   6.697  18.823  0.00  0.00    +0.000 A 
ENDROOT
BRANCH   1   8
ATOM      7  C   UNL     1       8.796  10.038  18.022  0.00  0.00    +0.000 C 
ATOM      8  C   UNL     1       8.235   8.978  17.981  0.00  0.00    +0.000 C 
BRANCH   7  12
ATOM      9  C   UNL     1      10.736  13.789  18.141  0.00  0.00    +0.000 A 
ATOM     10  C   UNL     1      11.468  12.609  18.261  0.00  0.00    +0.000 A 
ATOM     11  C   UNL     1      10.827  11.372  18.205  0.00  0.00    +0.000 A 
ATOM     12  C   UNL     1       9.440  11.312  18.051  0.00  0.00    +0.000 A 
ATOM     13  C   UNL     1       8.701  12.494  17.948  0.00  0.00    +0.000 A 
ATOM     14  C   UNL     1       9.347  13.733  18.005  0.00  0.00    +0.000 A 
BRANCH   9  15
ATOM     15  O   UNL     1      11.476  14.937  18.189  0.00  0.00    +0.000 OA
BRANCH  15  17
ATOM     16  C   UNL     1      11.316  17.103  17.221  0.00  0.00    +0.000 C 
ATOM     17  C   UNL     1      11.611  15.639  16.953  0.00  0.00    +0.000 C 
ENDBRANCH  15  17
ENDBRANCH   9  15
ENDBRANCH   7  12
ENDBRANCH   1   8
BRANCH   4  18
ATOM     18  C   UNL     1       5.349   4.038  18.432  0.00  0.00    +0.000 C 
BRANCH  18  19
ATOM     19  C   UNL     1       3.833   4.244  18.632  0.00  0.00    +0.000 C 
BRANCH  19  20
ATOM     20  N   UNL     1       3.401   3.562  19.862  0.00  0.00    +0.000 N 
ATOM     21  C   UNL     1       2.311   3.978  20.591  0.00  0.00    +0.000 C 
ATOM     22  C   UNL     1       2.021   3.156  21.821  0.00  0.00    +0.000 C 
ATOM     23  O   UNL     1       1.633   4.961  20.298  0.00  0.00    +0.000 OA
ATOM     24  H   UNL     1       3.819   2.669  20.086  0.00  0.00    +0.000 HD
ENDBRANCH  19  20
BRANCH  19  25
ATOM     25  C   UNL     1       2.982   3.813  17.422  0.00  0.00    +0.000 C 
ATOM     26  C   UNL     1       2.640   2.329  17.368  0.00  0.00    +0.000 C 
ENDBRANCH  19  25
ENDBRANCH  18  19
ENDBRANCH   4  18
TORSDOF 8
ENDMDL
MODEL 3
REMARK VINA RESULT:      -7.5      1.140      1.293
REMARK  Name = 
REMARK  11 active torsions:
REMARK  status: ('A' for Active; 'I' for Inactive)
REMARK    1  A    between atoms: C_1  and  C_2
REMARK    2  A    between atoms: C_2  and  O_3
REMARK    3  A    between atoms: O_3  and  C_4
REMARK    4  A    between atoms: C_7  and  C_8
REMARK    5  A    between atoms: C_9  and  C_10
REMARK    6  A    between atoms: C_13  and  C_14
REMARK    7  A    between atoms: C_14  and  C_15
REMARK    8  A    between atoms: C_15  and  C_16
REMARK    9  A    between atoms: C_15  and  N_18
REMARK   10  A    between atoms: C_16  and  C_17
REMARK   11  A    between atoms: C_19  and  C_20
REMARK                            x       y       z     vdW  Elec       q    Type
REMARK                         _______ _______ _______ _____ _____    ______ ____
ROOT
ATOM      1  C   UNL     1       7.402   7.102  17.653  0.00  0.00    +0.000 A 
ATOM      2  C   UNL     1       6.413   7.184  16.669  0.00  0.00    +0.000 A 
ATOM      3  C   UNL     1       5.689   6.043  16.304  0.00  0.00    +0.000 A 
ATOM      4  C   UNL     1       5.950   4.807  16.914  0.00  0.00    +0.000 A 
ATOM      5  C   UNL     1       6.994   4.725  17.847  0.00  0.00    +0.000 A 
ATOM      6  C   UNL     1       7.707   5.867  18.221  0.00  0.00    +0.000 A 
ENDROOT
BRANCH   1   8
ATOM      7  C   UNL     1       8.650   9.266  18.479  0.00  0.00    +0.000 C 
ATOM      8  C   UNL     1       8.071   8.277  18.122  0.00  0.00    +0.000 C 
BRANCH   7  12
ATOM      9  C   UNL     1      10.721  12.708  19.788  0.00  0.00    +0.000 A 
ATOM     10  C   UNL     1      10.671  12.384  18.433  0.00  0.00    +0.000 A 
ATOM     11  C   UNL     1       9.973  11.256  18.003  0.00  0.00    +0.000 A 
ATOM     12  C   UNL     1       9.339  10.431  18.934  0.00  0.00    +0.000 A 
ATOM     13  C   UNL     1       9.402  10.743  20.295  0.00  0.00    +0.000 A 
ATOM     14  C   UNL     1      10.102  11.875  20.723  0.00  0.00    +0.000 A 
BRANCH   9  15
ATOM     15  O   UNL     1      11.415  13.846  20.085  0.00  0.00    +0.000 OA
BRANCH  15  17
ATOM     16  C   UNL     1      12.075  15.766  18.846  0.00  0.00    +0.000 C 
ATOM     17  C   UNL     1      12.333  14.291  19.086  0.00  0.00    +0.000 C 
ENDBRANCH  15  17
ENDBRANCH   9  15
ENDBRANCH   7  12
ENDBRANCH   1   8
BRANCH   4  18
ATOM     18  C   UNL     1       5.045   3.612  16.700  0.00  0.00    +0.000 C 
BRANCH  18  19
ATOM     19  C   UNL     1       3.580   3.729  17.166  0.00  0.00    +0.000 C 
BRANCH  19  20
ATOM     20  N   UNL     1       3.504   4.622  18.333  0.00  0.00    +0.000 N 
ATOM     21  C   UNL     1       2.428   5.449  18.560  0.00  0.00    +0.000 C 
ATOM     22  C   UNL     1       2.529   6.291  19.806  0.00  0.00    +0.000 C 
ATOM     23  O   UNL     1       1.466   5.535  17.799  0.00  0.00    +0.000 OA
ATOM     24  H   UNL     1       4.186   4.504  19.071  0.00  0.00    +0.000 HD
ENDBRANCH  19  20
BRANCH  19  25
ATOM     25  C   UNL     1       2.907   2.373  17.452  0.00  0.00    +0.000 C 
ATOM     26  C   UNL     1       3.332   1.702  18.753  0.00  0.00    +0.000 C 
ENDBRANCH  19  25
ENDBRANCH  18  19
ENDBRANCH   4  18
TORSDOF 8
ENDMDL
MODEL 4
REMARK VINA RESULT:      -7.4      1.185      1.465
REMARK  Name = 
REMARK  11 active torsions:
REMARK  status: ('A' for Active; 'I' for Inactive)
REMARK    1  A    between atoms: C_1  and  C_2
REMARK    2  A    between atoms: C_2  and  O_3
REMARK    3  A    between atoms: O_3  and  C_4
REMARK    4  A    between atoms: C_7  and  C_8
REMARK    5  A    between atoms: C_9  and  C_10
REMARK    6  A    between atoms: C_13  and  C_14
REMARK    7  A    between atoms: C_14  and  C_15
REMARK    8  A    between atoms: C_15  and  C_16
REMARK    9  A    between atoms: C_15  and  N_18
REMARK   10  A    between atoms: C_16  and  C_17
REMARK   11  A    between atoms: C_19  and  C_20
REMARK                            x       y       z     vdW  Elec       q    Type
REMARK                         _______ _______ _______ _____ _____    ______ ____
ROOT
ATOM      1  C   UNL     1       7.332   7.068  17.610  0.00  0.00    +0.000 A 
ATOM      2  C   UNL     1       6.281   7.159  16.694  0.00  0.00    +0.000 A 
ATOM      3  C   UNL     1       5.530   6.022  16.371  0.00  0.00    +0.000 A 
ATOM      4  C   UNL     1       5.827   4.781  16.954  0.00  0.00    +0.000 A 
ATOM      5  C   UNL     1       6.931   4.691  17.816  0.00  0.00    +0.000 A 
ATOM      6  C   UNL     1       7.670   5.828  18.149  0.00  0.00    +0.000 A 
ENDROOT
BRANCH   1   8
ATOM      7  C   UNL     1       8.617   9.208  18.441  0.00  0.00    +0.000 C 
ATOM      8  C   UNL     1       8.035   8.238  18.042  0.00  0.00    +0.000 C 
BRANCH   7  12
ATOM      9  C   UNL     1      10.609  12.674  19.807  0.00  0.00    +0.000 A 
ATOM     10  C   UNL     1      10.028  11.788  20.713  0.00  0.00    +0.000 A 
ATOM     11  C   UNL     1       9.385  10.637  20.259  0.00  0.00    +0.000 A 
ATOM     12  C   UNL     1       9.301  10.379  18.890  0.00  0.00    +0.000 A 
ATOM     13  C   UNL     1       9.868  11.274  17.978  0.00  0.00    +0.000 A 
ATOM     14  C   UNL     1      10.512  12.428  18.436  0.00  0.00    +0.000 A 
BRANCH   9  15
ATOM     15  O   UNL     1      11.228  13.754  20.370  0.00  0.00    +0.000 OA
BRANCH  15  17
ATOM     16  C   UNL     1      11.769  15.809  19.303  0.00  0.00    +0.000 C 
ATOM     17  C   UNL     1      10.686  15.029  20.025  0.00  0.00    +0.000 C 
ENDBRANCH  15  17
ENDBRANCH   9  15
ENDBRANCH   7  12
ENDBRANCH   1   8
BRANCH   4  18
ATOM     18  C   UNL     1       4.907   3.590  16.793  0.00  0.00    +0.000 C 
BRANCH  18  19
ATOM     19  C   UNL     1       3.648   3.531  17.683  0.00  0.00    +0.000 C 
BRANCH  19  20
ATOM     20  N   UNL     1       3.582   4.736  18.523  0.00  0.00    +0.000 N 
ATOM     21  C   UNL     1       2.502   5.589  18.506  0.00  0.00    +0.000 C 
ATOM     22  C   UNL     1       2.614   6.771  19.434  0.00  0.00    +0.000 C 
ATOM     23  O   UNL     1       1.528   5.435  17.771  0.00  0.00    +0.000 OA
ATOM     24  H   UNL     1       4.276   4.852  19.250  0.00  0.00    +0.000 HD
ENDBRANCH  19  20
BRANCH  19  25
ATOM     25  C   UNL     1       3.546   2.249  18.531  0.00  0.00    +0.000 C 
ATOM     26  C   UNL     1       2.154   1.938  19.068  0.00  0.00    +0.000 C 
ENDBRANCH  19  25
ENDBRANCH  18  19
ENDBRANCH   4  18
TORSDOF 8
ENDMDL
MODEL 5
REMARK VINA RESULT:      -7.4      5.779      8.920
REMARK  Name = 
REMARK  11 active torsions:
REMARK  status: ('A' for Active; 'I' for Inactive)
REMARK    1  A    between atoms: C_1  and  C_2
REMARK    2  A    between atoms: C_2  and  O_3
REMARK    3  A    between atoms: O_3  and  C_4
REMARK    4  A    between atoms: C_7  and  C_8
REMARK    5  A    between atoms: C_9  and  C_10
REMARK    6  A    between atoms: C_13  and  C_14
REMARK    7  A    between atoms: C_14  and  C_15
REMARK    8  A    between atoms: C_15  and  C_16
REMARK    9  A    between atoms: C_15  and  N_18
REMARK   10  A    between atoms: C_16  and  C_17
REMARK   11  A    between atoms: C_19  and  C_20
REMARK                            x       y       z     vdW  Elec       q    Type
REMARK                         _______ _______ _______ _____ _____    ______ ____
ROOT
ATOM      1  C   UNL     1       2.360   6.914  19.476  0.00  0.00    +0.000 A 
ATOM      2  C   UNL     1       2.419   5.614  19.987  0.00  0.00    +0.000 A 
ATOM      3  C   UNL     1       3.216   4.648  19.360  0.00  0.00    +0.000 A 
ATOM      4  C   UNL     1       3.956   4.969  18.212  0.00  0.00    +0.000 A 
ATOM      5  C   UNL     1       3.829   6.257  17.670  0.00  0.00    +0.000 A 
ATOM      6  C   UNL     1       3.046   7.224  18.304  0.00  0.00    +0.000 A 
ENDROOT
BRANCH   1   8
ATOM      7  C   UNL     1       1.013   8.795  20.728  0.00  0.00    +0.000 C 
ATOM      8  C   UNL     1       1.645   7.943  20.168  0.00  0.00    +0.000 C 
BRANCH   7  12
ATOM      9  C   UNL     1      -1.169  11.813  22.723  0.00  0.00    +0.000 A 
ATOM     10  C   UNL     1      -1.108  10.521  23.243  0.00  0.00    +0.000 A 
ATOM     11  C   UNL     1      -0.375   9.532  22.591  0.00  0.00    +0.000 A 
ATOM     12  C   UNL     1       0.287   9.827  21.397  0.00  0.00    +0.000 A 
ATOM     13  C   UNL     1       0.214  11.116  20.863  0.00  0.00    +0.000 A 
ATOM     14  C   UNL     1      -0.523  12.107  21.520  0.00  0.00    +0.000 A 
BRANCH   9  15
ATOM     15  O   UNL     1      -1.900  12.701  23.461  0.00  0.00    +0.000 OA
BRANCH  15  17
ATOM     16  C   UNL     1      -4.034  13.709  23.752  0.00  0.00    +0.000 C 
ATOM     17  C   UNL     1      -3.288  12.397  23.598  0.00  0.00    +0.000 C 
ENDBRANCH  15  17
ENDBRANCH   9  15
ENDBRANCH   7  12
ENDBRANCH   1   8
BRANCH   4  18
ATOM     18  C   UNL     1       4.986   4.018  17.643  0.00  0.00    +0.000 C 
BRANCH  18  19
ATOM     19  C   UNL     1       6.079   4.607  16.728  0.00  0.00    +0.000 C 
BRANCH  19  20
ATOM     20  N   UNL     1       5.986   3.996  15.393  0.00  0.00    +0.000 N 
ATOM     21  C   UNL     1       6.676   4.486  14.309  0.00  0.00    +0.000 C 
ATOM     22  C   UNL     1       6.455   3.730  13.023  0.00  0.00    +0.000 C 
ATOM     23  O   UNL     1       7.394   5.483  14.355  0.00  0.00    +0.000 OA
ATOM     24  H   UNL     1       5.531   3.096  15.309  0.00  0.00    +0.000 HD
ENDBRANCH  19  20
BRANCH  19  25
ATOM     25  C   UNL     1       7.503   4.486  17.303  0.00  0.00    +0.000 C 
ATOM     26  C   UNL     1       7.778   5.339  18.536  0.00  0.00    +0.000 C 
ENDBRANCH  19  25
ENDBRANCH  18  19
ENDBRANCH   4  18
TORSDOF 8
ENDMDL
MODEL 6
REMARK VINA RESULT:      -7.2      0.709      1.195
REMARK  Name = 
REMARK  11 active torsions:
REMARK  status: ('A' for Active; 'I' for Inactive)
REMARK    1  A    between atoms: C_1  and  C_2
REMARK    2  A    between atoms: C_2  and  O_3
REMARK    3  A    between atoms: O_3  and  C_4
REMARK    4  A    between atoms: C_7  and  C_8
REMARK    5  A    between atoms: C_9  and  C_10
REMARK    6  A    between atoms: C_13  and  C_14
REMARK    7  A    between atoms: C_14  and  C_15
REMARK    8  A    between atoms: C_15  and  C_16
REMARK    9  A    between atoms: C_15  and  N_18
REMARK   10  A    between atoms: C_16  and  C_17
REMARK   11  A    between atoms: C_19  and  C_20
REMARK                            x       y       z     vdW  Elec       q    Type
REMARK                         _______ _______ _______ _____ _____    ______ ____
ROOT
ATOM      1  C   UNL     1       7.489   7.660  17.936  0.00  0.00    +0.000 A 
ATOM      2  C   UNL     1       7.891   6.501  18.606  0.00  0.00    +0.000 A 
ATOM      3  C   UNL     1       7.226   5.291  18.377  0.00  0.00    +0.000 A 
ATOM      4  C   UNL     1       6.147   5.227  17.483  0.00  0.00    +0.000 A 
ATOM      5  C   UNL     1       5.708   6.413  16.874  0.00  0.00    +0.000 A 
ATOM      6  C   UNL     1       6.382   7.617  17.091  0.00  0.00    +0.000 A 
ENDROOT
BRANCH   1   8
ATOM      7  C   UNL     1       8.855   9.891  18.215  0.00  0.00    +0.000 C 
ATOM      8  C   UNL     1       8.229   8.879  18.066  0.00  0.00    +0.000 C 
BRANCH   7  12
ATOM      9  C   UNL     1      10.995  13.511  18.621  0.00  0.00    +0.000 A 
ATOM     10  C   UNL     1       9.836  13.456  17.849  0.00  0.00    +0.000 A 
ATOM     11  C   UNL     1       9.123  12.264  17.730  0.00  0.00    +0.000 A 
ATOM     12  C   UNL     1       9.583  11.111  18.368  0.00  0.00    +0.000 A 
ATOM     13  C   UNL     1      10.754  11.157  19.129  0.00  0.00    +0.000 A 
ATOM     14  C   UNL     1      11.467  12.355  19.247  0.00  0.00    +0.000 A 
BRANCH   9  15
ATOM     15  O   UNL     1      11.594  14.738  18.680  0.00  0.00    +0.000 OA
BRANCH  15  17
ATOM     16  C   UNL     1      11.555  16.710  17.351  0.00  0.00    +0.000 C 
ATOM     17  C   UNL     1      10.770  15.847  18.321  0.00  0.00    +0.000 C 
ENDBRANCH  15  17
ENDBRANCH   9  15
ENDBRANCH   7  12
ENDBRANCH   1   8
BRANCH   4  18
ATOM     18  C   UNL     1       5.551   3.904  17.054  0.00  0.00    +0.000 C 
BRANCH  18  19
ATOM     19  C   UNL     1       4.064   3.649  17.374  0.00  0.00    +0.000 C 
BRANCH  19  20
ATOM     20  N   UNL     1       3.714   4.306  18.644  0.00  0.00    +0.000 N 
ATOM     21  C   UNL     1       2.613   5.121  18.773  0.00  0.00    +0.000 C 
ATOM     22  C   UNL     1       2.416   5.705  20.148  0.00  0.00    +0.000 C 
ATOM     23  O   UNL     1       1.858   5.393  17.842  0.00  0.00    +0.000 OA
ATOM     24  H   UNL     1       4.203   4.019  19.482  0.00  0.00    +0.000 HD
ENDBRANCH  19  20
BRANCH  19  25
ATOM     25  C   UNL     1       3.677   2.158  17.388  0.00  0.00    +0.000 C 
ATOM     26  C   UNL     1       3.488   1.551  18.773  0.00  0.00    +0.000 C 
ENDBRANCH  19  25
ENDBRANCH  18  19
ENDBRANCH   4  18
TORSDOF 8
ENDMDL
MODEL 7
REMARK VINA RESULT:      -7.2      1.870      2.269
REMARK  Name = 
REMARK  11 active torsions:
REMARK  status: ('A' for Active; 'I' for Inactive)
REMARK    1  A    between atoms: C_1  and  C_2
REMARK    2  A    between atoms: C_2  and  O_3
REMARK    3  A    between atoms: O_3  and  C_4
REMARK    4  A    between atoms: C_7  and  C_8
REMARK    5  A    between atoms: C_9  and  C_10
REMARK    6  A    between atoms: C_13  and  C_14
REMARK    7  A    between atoms: C_14  and  C_15
REMARK    8  A    between atoms: C_15  and  C_16
REMARK    9  A    between atoms: C_15  and  N_18
REMARK   10  A    between atoms: C_16  and  C_17
REMARK   11  A    between atoms: C_19  and  C_20
REMARK                            x       y       z     vdW  Elec       q    Type
REMARK                         _______ _______ _______ _____ _____    ______ ____
ROOT
ATOM      1  C   UNL     1       7.293   7.263  17.595  0.00  0.00    +0.000 A 
ATOM      2  C   UNL     1       6.305   7.245  16.606  0.00  0.00    +0.000 A 
ATOM      3  C   UNL     1       5.590   6.070  16.348  0.00  0.00    +0.000 A 
ATOM      4  C   UNL     1       5.859   4.897  17.070  0.00  0.00    +0.000 A 
ATOM      5  C   UNL     1       6.903   4.911  18.008  0.00  0.00    +0.000 A 
ATOM      6  C   UNL     1       7.606   6.088  18.275  0.00  0.00    +0.000 A 
ENDROOT
BRANCH   1   8
ATOM      7  C   UNL     1       8.487   9.521  18.223  0.00  0.00    +0.000 C 
ATOM      8  C   UNL     1       7.953   8.481  17.954  0.00  0.00    +0.000 C 
BRANCH   7  12
ATOM      9  C   UNL     1      10.443  13.146  19.161  0.00  0.00    +0.000 A 
ATOM     10  C   UNL     1       9.552  13.079  18.090  0.00  0.00    +0.000 A 
ATOM     11  C   UNL     1       8.896  11.884  17.794  0.00  0.00    +0.000 A 
ATOM     12  C   UNL     1       9.148  10.743  18.557  0.00  0.00    +0.000 A 
ATOM     13  C   UNL     1      10.053  10.802  19.619  0.00  0.00    +0.000 A 
ATOM     14  C   UNL     1      10.710  12.002  19.915  0.00  0.00    +0.000 A 
BRANCH   9  15
ATOM     15  O   UNL     1      11.008  14.374  19.366  0.00  0.00    +0.000 OA
BRANCH  15  17
ATOM     16  C   UNL     1       9.858  15.607  21.044  0.00  0.00    +0.000 C 
ATOM     17  C   UNL     1      11.099  14.793  20.728  0.00  0.00    +0.000 C 
ENDBRANCH  15  17
ENDBRANCH   9  15
ENDBRANCH   7  12
ENDBRANCH   1   8
BRANCH   4  18
ATOM     18  C   UNL     1       4.964   3.681  16.967  0.00  0.00    +0.000 C 
BRANCH  18  19
ATOM     19  C   UNL     1       4.065   3.348  18.175  0.00  0.00    +0.000 C 
BRANCH  19  20
ATOM     20  N   UNL     1       4.760   2.399  19.059  0.00  0.00    +0.000 N 
ATOM     21  C   UNL     1       4.365   2.178  20.359  0.00  0.00    +0.000 C 
ATOM     22  C   UNL     1       5.199   1.172  21.111  0.00  0.00    +0.000 C 
ATOM     23  O   UNL     1       3.431   2.772  20.894  0.00  0.00    +0.000 OA
ATOM     24  H   UNL     1       5.443   1.775  18.650  0.00  0.00    +0.000 HD
ENDBRANCH  19  20
BRANCH  19  25
ATOM     25  C   UNL     1       2.667   2.831  17.786  0.00  0.00    +0.000 C 
ATOM     26  C   UNL     1       1.590   3.903  17.672  0.00  0.00    +0.000 C 
ENDBRANCH  19  25
ENDBRANCH  18  19
ENDBRANCH   4  18
TORSDOF 8
ENDMDL
MODEL 8
REMARK VINA RESULT:      -7.2      6.372      8.531
REMARK  Name = 
REMARK  11 active torsions:
REMARK  status: ('A' for Active; 'I' for Inactive)
REMARK    1  A    between atoms: C_1  and  C_2
REMARK    2  A    between atoms: C_2  and  O_3
REMARK    3  A    between atoms: O_3  and  C_4
REMARK    4  A    between atoms: C_7  and  C_8
REMARK    5  A    between atoms: C_9  and  C_10
REMARK    6  A    between atoms: C_13  and  C_14
REMARK    7  A    between atoms: C_14  and  C_15
REMARK    8  A    between atoms: C_15  and  C_16
REMARK    9  A    between atoms: C_15  and  N_18
REMARK   10  A    between atoms: C_16  and  C_17
REMARK   11  A    between atoms: C_19  and  C_20
REMARK                            x       y       z     vdW  Elec       q    Type
REMARK                         _______ _______ _______ _____ _____    ______ ____
ROOT
ATOM      1  C   UNL     1       3.737   6.545  17.605  0.00  0.00    +0.000 A 
ATOM      2  C   UNL     1       4.592   7.006  16.601  0.00  0.00    +0.000 A 
ATOM      3  C   UNL     1       5.364   6.099  15.865  0.00  0.00    +0.000 A 
ATOM      4  C   UNL     1       5.296   4.723  16.130  0.00  0.00    +0.000 A 
ATOM      5  C   UNL     1       4.487   4.283  17.190  0.00  0.00    +0.000 A 
ATOM      6  C   UNL     1       3.706   5.187  17.914  0.00  0.00    +0.000 A 
ENDROOT
BRANCH   1   8
ATOM      7  C   UNL     1       2.083   8.175  18.843  0.00  0.00    +0.000 C 
ATOM      8  C   UNL     1       2.854   7.443  18.288  0.00  0.00    +0.000 C 
BRANCH   7  12
ATOM      9  C   UNL     1      -0.547  10.862  20.770  0.00  0.00    +0.000 A 
ATOM     10  C   UNL     1      -0.204  11.044  19.430  0.00  0.00    +0.000 A 
ATOM     11  C   UNL     1       0.652  10.147  18.793  0.00  0.00    +0.000 A 
ATOM     12  C   UNL     1       1.188   9.071  19.504  0.00  0.00    +0.000 A 
ATOM     13  C   UNL     1       0.861   8.895  20.851  0.00  0.00    +0.000 A 
ATOM     14  C   UNL     1       0.002   9.798  21.488  0.00  0.00    +0.000 A 
BRANCH   9  15
ATOM     15  O   UNL     1      -1.408  11.793  21.277  0.00  0.00    +0.000 OA
BRANCH  15  17
ATOM     16  C   UNL     1      -2.623  12.184  23.284  0.00  0.00    +0.000 C 
ATOM     17  C   UNL     1      -1.242  12.101  22.662  0.00  0.00    +0.000 C 
ENDBRANCH  15  17
ENDBRANCH   9  15
ENDBRANCH   7  12
ENDBRANCH   1   8
BRANCH   4  18
ATOM     18  C   UNL     1       5.947   3.708  15.217  0.00  0.00    +0.000 C 
BRANCH  18  19
ATOM     19  C   UNL     1       6.324   4.162  13.792  0.00  0.00    +0.000 C 
BRANCH  19  20
ATOM     20  N   UNL     1       6.455   2.985  12.919  0.00  0.00    +0.000 N 
ATOM     21  C   UNL     1       5.560   2.712  11.911  0.00  0.00    +0.000 C 
ATOM     22  C   UNL     1       5.857   1.463  11.121  0.00  0.00    +0.000 C 
ATOM     23  O   UNL     1       4.569   3.402  11.678  0.00  0.00    +0.000 OA
ATOM     24  H   UNL     1       7.316   2.454  12.957  0.00  0.00    +0.000 HD
ENDBRANCH  19  20
BRANCH  19  25
ATOM     25  C   UNL     1       7.584   5.047  13.734  0.00  0.00    +0.000 C 
ATOM     26  C   UNL     1       7.927   5.595  12.354  0.00  0.00    +0.000 C 
ENDBRANCH  19  25
ENDBRANCH  18  19
ENDBRANCH   4  18
TORSDOF 8
ENDMDL
MODEL 9
REMARK VINA RESULT:      -7.2      5.070      8.340
REMARK  Name = 
REMARK  11 active torsions:
REMARK  status: ('A' for Active; 'I' for Inactive)
REMARK    1  A    between atoms: C_1  and  C_2
REMARK    2  A    between atoms: C_2  and  O_3
REMARK    3  A    between atoms: O_3  and  C_4
REMARK    4  A    between atoms: C_7  and  C_8
REMARK    5  A    between atoms: C_9  and  C_10
REMARK    6  A    between atoms: C_13  and  C_14
REMARK    7  A    between atoms: C_14  and  C_15
REMARK    8  A    between atoms: C_15  and  C_16
REMARK    9  A    between atoms: C_15  and  N_18
REMARK   10  A    between atoms: C_16  and  C_17
REMARK   11  A    between atoms: C_19  and  C_20
REMARK                            x       y       z     vdW  Elec       q    Type
REMARK                         _______ _______ _______ _____ _____    ______ ____
ROOT
ATOM      1  C   UNL     1       2.757   6.683  18.484  0.00  0.00    +0.000 A 
ATOM      2  C   UNL     1       2.513   5.311  18.593  0.00  0.00    +0.000 A 
ATOM      3  C   UNL     1       3.260   4.402  17.834  0.00  0.00    +0.000 A 
ATOM      4  C   UNL     1       4.254   4.855  16.953  0.00  0.00    +0.000 A 
ATOM      5  C   UNL     1       4.437   6.238  16.801  0.00  0.00    +0.000 A 
ATOM      6  C   UNL     1       3.701   7.144  17.569  0.00  0.00    +0.000 A 
ENDROOT
BRANCH   1   8
ATOM      7  C   UNL     1       1.496   8.375  20.056  0.00  0.00    +0.000 C 
ATOM      8  C   UNL     1       2.087   7.619  19.335  0.00  0.00    +0.000 C 
BRANCH   7  12
ATOM      9  C   UNL     1      -0.515  11.146  22.530  0.00  0.00    +0.000 A 
ATOM     10  C   UNL     1       0.088  11.563  21.344  0.00  0.00    +0.000 A 
ATOM     11  C   UNL     1       0.738  10.642  20.522  0.00  0.00    +0.000 A 
ATOM     12  C   UNL     1       0.805   9.299  20.897  0.00  0.00    +0.000 A 
ATOM     13  C   UNL     1       0.217   8.881  22.093  0.00  0.00    +0.000 A 
ATOM     14  C   UNL     1      -0.434   9.806  22.916  0.00  0.00    +0.000 A 
BRANCH   9  15
ATOM     15  O   UNL     1      -1.139  12.133  23.240  0.00  0.00    +0.000 OA
BRANCH  15  17
ATOM     16  C   UNL     1      -3.251  12.647  22.274  0.00  0.00    +0.000 C 
ATOM     17  C   UNL     1      -2.544  11.966  23.431  0.00  0.00    +0.000 C 
ENDBRANCH  15  17
ENDBRANCH   9  15
ENDBRANCH   7  12
ENDBRANCH   1   8
BRANCH   4  18
ATOM     18  C   UNL     1       5.218   3.897  16.287  0.00  0.00    +0.000 C 
BRANCH  18  19
ATOM     19  C   UNL     1       6.636   4.413  15.968  0.00  0.00    +0.000 C 
BRANCH  19  20
ATOM     20  N   UNL     1       6.949   5.561  16.833  0.00  0.00    +0.000 N 
ATOM     21  C   UNL     1       7.671   5.431  17.997  0.00  0.00    +0.000 C 
ATOM     22  C   UNL     1       7.891   6.718  18.751  0.00  0.00    +0.000 C 
ATOM     23  O   UNL     1       8.081   4.354  18.424  0.00  0.00    +0.000 OA
ATOM     24  H   UNL     1       6.769   6.491  16.478  0.00  0.00    +0.000 HD
ENDBRANCH  19  20
BRANCH  19  25
ATOM     25  C   UNL     1       6.854   4.754  14.481  0.00  0.00    +0.000 C 
ATOM     26  C   UNL     1       5.951   4.007  13.507  0.00  0.00    +0.000 C 
ENDBRANCH  19  25
ENDBRANCH  18  19
ENDBRANCH   4  18
TORSDOF 8
ENDMDL
