MODEL 1
REMARK VINA RESULT:      -7.5      0.000      0.000
REMARK  Name = 
REMARK  7 active torsions:
REMARK  status: ('A' for Active; 'I' for Inactive)
REMARK    1  A    between atoms: C_1  and  C_2
REMARK    2  A    between atoms: C_2  and  O_3
REMARK    3  A    between atoms: O_3  and  C_4
REMARK    4  A    between atoms: C_11  and  O_12
REMARK    5  A    between atoms: C_14  and  C_15
REMARK    6  A    between atoms: C_18  and  O_19
REMARK    7  A    between atoms: O_19  and  C_20
REMARK                            x       y       z     vdW  Elec       q    Type
REMARK                         _______ _______ _______ _____ _____    ______ ____
ROOT
ATOM      1  C   UNL     1       1.563  14.883  19.805  0.00  0.00    +0.000 C 
ATOM      2  O   UNL     1       2.062  15.397  20.801  0.00  0.00    +0.000 OA
ATOM      3  N   UNL     1       0.889  13.644  19.796  0.00  0.00    +0.000 N 
ATOM      4  C   UNL     1       0.194  13.331  18.562  0.00  0.00    +0.000 C 
ATOM      5  C   UNL     1      -0.564  12.036  18.461  0.00  0.00    +0.000 C 
ATOM      6  C   UNL     1      -0.447  11.078  19.619  0.00  0.00    +0.000 C 
ATOM      7  C   UNL     1       0.549   9.971  19.549  0.00  0.00    +0.000 A 
ATOM      8  C   UNL     1       1.351   9.539  18.548  0.00  0.00    +0.000 A 
ATOM      9  N   UNL     1       2.025   8.391  18.573  0.00  0.00    +0.000 NA
ATOM     10  C   UNL     1       1.878   7.618  19.669  0.00  0.00    +0.000 A 
ATOM     11  N   UNL     1       1.273   8.039  20.803  0.00  0.00    +0.000 NA
ATOM     12  C   UNL     1       0.663   9.234  20.697  0.00  0.00    +0.000 A 
ATOM     13  S   UNL     1       0.131  10.251  22.086  0.00  0.00    +0.000 S 
ATOM     14  C   UNL     1      -0.313  11.711  21.000  0.00  0.00    +0.000 C 
ATOM     15  C   UNL     1       0.624  12.941  21.059  0.00  0.00    +0.000 C 
ENDROOT
BRANCH  10  16
ATOM     16  C   UNL     1       2.532   6.287  19.609  0.00  0.00    +0.000 A 
ATOM     17  C   UNL     1       2.147   5.261  20.500  0.00  0.00    +0.000 A 
ATOM     18  C   UNL     1       2.694   3.974  20.439  0.00  0.00    +0.000 A 
ATOM     19  C   UNL     1       3.653   3.669  19.479  0.00  0.00    +0.000 A 
ATOM     20  C   UNL     1       4.103   4.677  18.628  0.00  0.00    +0.000 A 
ATOM     21  C   UNL     1       3.550   5.972  18.694  0.00  0.00    +0.000 A 
BRANCH  19  22
ATOM     22  O   UNL     1       4.113   2.381  19.500  0.00  0.00    +0.000 OA
ATOM     23  C   UNL     1       3.611   1.535  18.471  0.00  0.00    +0.000 C 
ENDBRANCH  19  22
ENDBRANCH  10  16
BRANCH   8  24
ATOM     24  O   UNL     1       1.732  10.407  17.574  0.00  0.00    +0.000 OA
ATOM     25  H   UNL     1       0.924  10.465  17.031  0.00  0.00    +0.000 HD
ENDBRANCH   8  24
BRANCH   1  26
ATOM     26  O   UNL     1       1.555  15.442  18.568  0.00  0.00    +0.000 OA
BRANCH  26  28
ATOM     27  C   UNL     1       3.654  15.550  17.356  0.00  0.00    +0.000 C 
ATOM     28  C   UNL     1       2.617  16.324  18.147  0.00  0.00    +0.000 C 
ENDBRANCH  26  28
ENDBRANCH   1  26
TORSDOF 5
ENDMDL
MODEL 2
REMARK VINA RESULT:      -7.3      3.659      5.026
REMARK  Name = 
REMARK  7 active torsions:
REMARK  status: ('A' for Active; 'I' for Inactive)
REMARK    1  A    between atoms: C_1  and  C_2
REMARK    2  A    between atoms: C_2  and  O_3
REMARK    3  A    between atoms: O_3  and  C_4
REMARK    4  A    between atoms: C_11  and  O_12
REMARK    5  A    between atoms: C_14  and  C_15
REMARK    6  A    between atoms: C_18  and  O_19
REMARK    7  A    between atoms: O_19  and  C_20
REMARK                            x       y       z     vdW  Elec       q    Type
REMARK                         _______ _______ _______ _____ _____    ______ ____
ROOT
ATOM      1  C   UNL     1      -4.647  12.617  21.852  0.00  0.00    +0.000 C 
ATOM      2  O   UNL     1      -5.412  12.786  20.909  0.00  0.00    +0.000 OA
ATOM      3  N   UNL     1      -3.246  12.507  21.736  0.00  0.00    +0.000 N 
ATOM      4  C   UNL     1      -2.520  12.528  22.992  0.00  0.00    +0.000 C 
ATOM      5  C   UNL     1      -1.020  12.428  22.970  0.00  0.00    +0.000 C 
ATOM      6  C   UNL     1      -0.367  12.183  21.633  0.00  0.00    +0.000 C 
ATOM      7  C   UNL     1      -0.009  10.789  21.244  0.00  0.00    +0.000 A 
ATOM      8  C   UNL     1      -0.041   9.623  21.929  0.00  0.00    +0.000 A 
ATOM      9  N   UNL     1       0.526   8.494  21.509  0.00  0.00    +0.000 NA
ATOM     10  C   UNL     1       1.178   8.537  20.329  0.00  0.00    +0.000 A 
ATOM     11  N   UNL     1       1.102   9.581  19.473  0.00  0.00    +0.000 NA
ATOM     12  C   UNL     1       0.464  10.659  19.965  0.00  0.00    +0.000 A 
ATOM     13  S   UNL     1      -0.161  12.032  18.980  0.00  0.00    +0.000 S 
ATOM     14  C   UNL     1      -1.049  12.821  20.428  0.00  0.00    +0.000 C 
ATOM     15  C   UNL     1      -2.594  12.731  20.438  0.00  0.00    +0.000 C 
ENDROOT
BRANCH  10  16
ATOM     16  C   UNL     1       1.913   7.303  19.955  0.00  0.00    +0.000 A 
ATOM     17  C   UNL     1       2.737   7.282  18.808  0.00  0.00    +0.000 A 
ATOM     18  C   UNL     1       3.493   6.159  18.453  0.00  0.00    +0.000 A 
ATOM     19  C   UNL     1       3.450   5.012  19.236  0.00  0.00    +0.000 A 
ATOM     20  C   UNL     1       2.597   4.977  20.338  0.00  0.00    +0.000 A 
ATOM     21  C   UNL     1       1.835   6.109  20.692  0.00  0.00    +0.000 A 
BRANCH  19  22
ATOM     22  O   UNL     1       4.235   3.978  18.806  0.00  0.00    +0.000 OA
ATOM     23  C   UNL     1       3.727   3.243  17.697  0.00  0.00    +0.000 C 
ENDBRANCH  19  22
ENDBRANCH  10  16
BRANCH   8  24
ATOM     24  O   UNL     1      -0.912   9.478  22.963  0.00  0.00    +0.000 OA
ATOM     25  H   UNL     1      -1.538   8.823  22.605  0.00  0.00    +0.000 HD
ENDBRANCH   8  24
BRANCH   1  26
ATOM     26  O   UNL     1      -5.027  12.543  23.153  0.00  0.00    +0.000 OA
BRANCH  26  28
ATOM     27  C   UNL     1      -7.316  12.748  23.932  0.00  0.00    +0.000 C 
ATOM     28  C   UNL     1      -5.999  13.462  23.693  0.00  0.00    +0.000 C 
ENDBRANCH  26  28
ENDBRANCH   1  26
TORSDOF 5
ENDMDL
MODEL 3
REMARK VINA RESULT:      -7.2      0.339      1.012
REMARK  Name = 
REMARK  7 active torsions:
REMARK  status: ('A' for Active; 'I' for Inactive)
REMARK    1  A    between atoms: C_1  and  C_2
REMARK    2  A    between atoms: C_2  and  O_3
REMARK    3  A    between atoms: O_3  and  C_4
REMARK    4  A    between atoms: C_11  and  O_12
REMARK    5  A    between atoms: C_14  and  C_15
REMARK    6  A    between atoms: C_18  and  O_19
REMARK    7  A    between atoms: O_19  and  C_20
REMARK                            x       y       z     vdW  Elec       q    Type
REMARK                         _______ _______ _______ _____ _____    ______ ____
ROOT
ATOM      1  C   UNL     1       1.884  14.867  19.809  0.00  0.00    +0.000 C 
ATOM      2  O   UNL     1       2.374  15.354  20.823  0.00  0.00    +0.000 OA
ATOM      3  N   UNL     1       1.147  13.665  19.774  0.00  0.00    +0.000 N 
ATOM      4  C   UNL     1       0.481  13.389  18.515  0.00  0.00    +0.000 C 
ATOM      5  C   UNL     1      -0.340  12.136  18.384  0.00  0.00    +0.000 C 
ATOM      6  C   UNL     1      -0.315  11.173  19.544  0.00  0.00    +0.000 C 
ATOM      7  C   UNL     1       0.623  10.015  19.506  0.00  0.00    +0.000 A 
ATOM      8  C   UNL     1       1.437   9.542  18.534  0.00  0.00    +0.000 A 
ATOM      9  N   UNL     1       2.048   8.360  18.580  0.00  0.00    +0.000 NA
ATOM     10  C   UNL     1       1.822   7.595  19.669  0.00  0.00    +0.000 A 
ATOM     11  N   UNL     1       1.199   8.047  20.781  0.00  0.00    +0.000 NA
ATOM     12  C   UNL     1       0.658   9.273  20.657  0.00  0.00    +0.000 A 
ATOM     13  S   UNL     1       0.130  10.316  22.028  0.00  0.00    +0.000 S 
ATOM     14  C   UNL     1      -0.197  11.797  20.930  0.00  0.00    +0.000 C 
ATOM     15  C   UNL     1       0.800  12.976  21.024  0.00  0.00    +0.000 C 
ENDROOT
BRANCH  10  16
ATOM     16  C   UNL     1       2.407   6.232  19.629  0.00  0.00    +0.000 A 
ATOM     17  C   UNL     1       3.348   5.887  18.633  0.00  0.00    +0.000 A 
ATOM     18  C   UNL     1       3.968   4.633  18.594  0.00  0.00    +0.000 A 
ATOM     19  C   UNL     1       3.666   3.675  19.554  0.00  0.00    +0.000 A 
ATOM     20  C   UNL     1       2.693   3.960  20.512  0.00  0.00    +0.000 A 
ATOM     21  C   UNL     1       2.070   5.223  20.547  0.00  0.00    +0.000 A 
BRANCH  19  22
ATOM     22  O   UNL     1       4.336   2.489  19.430  0.00  0.00    +0.000 OA
ATOM     23  C   UNL     1       3.686   1.498  18.641  0.00  0.00    +0.000 C 
ENDBRANCH  19  22
ENDBRANCH  10  16
BRANCH   8  24
ATOM     24  O   UNL     1       1.897  10.389  17.576  0.00  0.00    +0.000 OA
ATOM     25  H   UNL     1       1.393  10.098  16.793  0.00  0.00    +0.000 HD
ENDBRANCH   8  24
BRANCH   1  26
ATOM     26  O   UNL     1       1.950  15.426  18.574  0.00  0.00    +0.000 OA
BRANCH  26  28
ATOM     27  C   UNL     1       2.705  17.133  17.025  0.00  0.00    +0.000 C 
ATOM     28  C   UNL     1       3.081  16.233  18.186  0.00  0.00    +0.000 C 
ENDBRANCH  26  28
ENDBRANCH   1  26
TORSDOF 5
ENDMDL
MODEL 4
REMARK VINA RESULT:      -7.2      2.199      2.612
REMARK  Name = 
REMARK  7 active torsions:
REMARK  status: ('A' for Active; 'I' for Inactive)
REMARK    1  A    between atoms: C_1  and  C_2
REMARK    2  A    between atoms: C_2  and  O_3
REMARK    3  A    between atoms: O_3  and  C_4
REMARK    4  A    between atoms: C_11  and  O_12
REMARK    5  A    between atoms: C_14  and  C_15
REMARK    6  A    between atoms: C_18  and  O_19
REMARK    7  A    between atoms: O_19  and  C_20
REMARK                            x       y       z     vdW  Elec       q    Type
REMARK                         _______ _______ _______ _____ _____    ______ ____
ROOT
ATOM      1  C   UNL     1       0.821  13.946  21.172  0.00  0.00    +0.000 C 
ATOM      2  O   UNL     1       1.376  14.209  22.234  0.00  0.00    +0.000 OA
ATOM      3  N   UNL     1       0.463  12.646  20.757  0.00  0.00    +0.000 N 
ATOM      4  C   UNL     1      -0.372  12.587  19.571  0.00  0.00    +0.000 C 
ATOM      5  C   UNL     1      -0.816  11.246  19.058  0.00  0.00    +0.000 C 
ATOM      6  C   UNL     1      -0.254  10.026  19.744  0.00  0.00    +0.000 C 
ATOM      7  C   UNL     1       0.937   9.347  19.157  0.00  0.00    +0.000 A 
ATOM      8  C   UNL     1       1.601   9.533  17.993  0.00  0.00    +0.000 A 
ATOM      9  N   UNL     1       2.513   8.691  17.510  0.00  0.00    +0.000 NA
ATOM     10  C   UNL     1       2.770   7.583  18.236  0.00  0.00    +0.000 A 
ATOM     11  N   UNL     1       2.321   7.398  19.498  0.00  0.00    +0.000 NA
ATOM     12  C   UNL     1       1.443   8.328  19.919  0.00  0.00    +0.000 A 
ATOM     13  S   UNL     1       0.978   8.610  21.636  0.00  0.00    +0.000 S 
ATOM     14  C   UNL     1       0.003  10.159  21.241  0.00  0.00    +0.000 C 
ATOM     15  C   UNL     1       0.623  11.509  21.673  0.00  0.00    +0.000 C 
ENDROOT
BRANCH  10  16
ATOM     16  C   UNL     1       3.687   6.601  17.606  0.00  0.00    +0.000 A 
ATOM     17  C   UNL     1       3.420   5.216  17.694  0.00  0.00    +0.000 A 
ATOM     18  C   UNL     1       4.226   4.260  17.065  0.00  0.00    +0.000 A 
ATOM     19  C   UNL     1       5.333   4.658  16.324  0.00  0.00    +0.000 A 
ATOM     20  C   UNL     1       5.661   6.012  16.272  0.00  0.00    +0.000 A 
ATOM     21  C   UNL     1       4.848   6.972  16.909  0.00  0.00    +0.000 A 
BRANCH  19  22
ATOM     22  O   UNL     1       6.043   3.645  15.742  0.00  0.00    +0.000 OA
ATOM     23  C   UNL     1       6.262   3.775  14.341  0.00  0.00    +0.000 C 
ENDBRANCH  19  22
ENDBRANCH  10  16
BRANCH   8  24
ATOM     24  O   UNL     1       1.571  10.752  17.393  0.00  0.00    +0.000 OA
ATOM     25  H   UNL     1       2.510  10.887  17.169  0.00  0.00    +0.000 HD
ENDBRANCH   8  24
BRANCH   1  26
ATOM     26  O   UNL     1       0.439  14.866  20.250  0.00  0.00    +0.000 OA
BRANCH  26  28
ATOM     27  C   UNL     1      -0.858  16.773  19.498  0.00  0.00    +0.000 C 
ATOM     28  C   UNL     1      -0.118  16.133  20.657  0.00  0.00    +0.000 C 
ENDBRANCH  26  28
ENDBRANCH   1  26
TORSDOF 5
ENDMDL
MODEL 5
REMARK VINA RESULT:      -7.2      1.713      2.253
REMARK  Name = 
REMARK  7 active torsions:
REMARK  status: ('A' for Active; 'I' for Inactive)
REMARK    1  A    between atoms: C_1  and  C_2
REMARK    2  A    between atoms: C_2  and  O_3
REMARK    3  A    between atoms: O_3  and  C_4
REMARK    4  A    between atoms: C_11  and  O_12
REMARK    5  A    between atoms: C_14  and  C_15
REMARK    6  A    between atoms: C_18  and  O_19
REMARK    7  A    between atoms: O_19  and  C_20
REMARK                            x       y       z     vdW  Elec       q    Type
REMARK                         _______ _______ _______ _____ _____    ______ ____
ROOT
ATOM      1  C   UNL     1       1.377  14.399  21.105  0.00  0.00    +0.000 C 
ATOM      2  O   UNL     1       1.854  14.574  22.221  0.00  0.00    +0.000 OA
ATOM      3  N   UNL     1       0.864  13.170  20.638  0.00  0.00    +0.000 N 
ATOM      4  C   UNL     1       0.155  13.241  19.374  0.00  0.00    +0.000 C 
ATOM      5  C   UNL     1      -0.439  11.984  18.800  0.00  0.00    +0.000 C 
ATOM      6  C   UNL     1      -0.146  10.693  19.522  0.00  0.00    +0.000 C 
ATOM      7  C   UNL     1       0.977   9.834  19.048  0.00  0.00    +0.000 A 
ATOM      8  C   UNL     1       1.777   9.912  17.960  0.00  0.00    +0.000 A 
ATOM      9  N   UNL     1       2.591   8.937  17.559  0.00  0.00    +0.000 NA
ATOM     10  C   UNL     1       2.597   7.803  18.292  0.00  0.00    +0.000 A 
ATOM     11  N   UNL     1       1.998   7.693  19.499  0.00  0.00    +0.000 NA
ATOM     12  C   UNL     1       1.239   8.750  19.843  0.00  0.00    +0.000 A 
ATOM     13  S   UNL     1       0.651   9.105  21.508  0.00  0.00    +0.000 S 
ATOM     14  C   UNL     1      -0.025  10.787  21.039  0.00  0.00    +0.000 C 
ATOM     15  C   UNL     1       0.751  12.024  21.550  0.00  0.00    +0.000 C 
ENDROOT
BRANCH  10  16
ATOM     16  C   UNL     1       3.409   6.689  17.744  0.00  0.00    +0.000 A 
ATOM     17  C   UNL     1       4.506   6.955  16.894  0.00  0.00    +0.000 A 
ATOM     18  C   UNL     1       5.334   5.938  16.404  0.00  0.00    +0.000 A 
ATOM     19  C   UNL     1       5.091   4.613  16.747  0.00  0.00    +0.000 A 
ATOM     20  C   UNL     1       3.978   4.311  17.530  0.00  0.00    +0.000 A 
ATOM     21  C   UNL     1       3.145   5.337  18.021  0.00  0.00    +0.000 A 
BRANCH  19  22
ATOM     22  O   UNL     1       5.966   3.702  16.223  0.00  0.00    +0.000 OA
ATOM     23  C   UNL     1       6.950   4.235  15.343  0.00  0.00    +0.000 C 
ENDBRANCH  19  22
ENDBRANCH  10  16
BRANCH   8  24
ATOM     24  O   UNL     1       1.999  11.120  17.376  0.00  0.00    +0.000 OA
ATOM     25  H   UNL     1       1.148  11.572  17.526  0.00  0.00    +0.000 HD
ENDBRANCH   8  24
BRANCH   1  26
ATOM     26  O   UNL     1       1.238  15.366  20.162  0.00  0.00    +0.000 OA
BRANCH  26  28
ATOM     27  C   UNL     1       2.723  15.802  18.294  0.00  0.00    +0.000 C 
ATOM     28  C   UNL     1       2.373  16.145  19.730  0.00  0.00    +0.000 C 
ENDBRANCH  26  28
ENDBRANCH   1  26
TORSDOF 5
ENDMDL
MODEL 6
REMARK VINA RESULT:      -7.0      3.530      4.730
REMARK  Name = 
REMARK  7 active torsions:
REMARK  status: ('A' for Active; 'I' for Inactive)
REMARK    1  A    between atoms: C_1  and  C_2
REMARK    2  A    between atoms: C_2  and  O_3
REMARK    3  A    between atoms: O_3  and  C_4
REMARK    4  A    between atoms: C_11  and  O_12
REMARK    5  A    between atoms: C_14  and  C_15
REMARK    6  A    between atoms: C_18  and  O_19
REMARK    7  A    between atoms: O_19  and  C_20
REMARK                            x       y       z     vdW  Elec       q    Type
REMARK                         _______ _______ _______ _____ _____    ______ ____
ROOT
ATOM      1  C   UNL     1      -4.592  12.631  21.523  0.00  0.00    +0.000 C 
ATOM      2  O   UNL     1      -5.291  12.840  20.537  0.00  0.00    +0.000 OA
ATOM      3  N   UNL     1      -3.188  12.497  21.495  0.00  0.00    +0.000 N 
ATOM      4  C   UNL     1      -2.546  12.470  22.796  0.00  0.00    +0.000 C 
ATOM      5  C   UNL     1      -1.050  12.342  22.868  0.00  0.00    +0.000 C 
ATOM      6  C   UNL     1      -0.315  12.120  21.569  0.00  0.00    +0.000 C 
ATOM      7  C   UNL     1       0.043  10.730  21.166  0.00  0.00    +0.000 A 
ATOM      8  C   UNL     1      -0.055   9.547  21.816  0.00  0.00    +0.000 A 
ATOM      9  N   UNL     1       0.518   8.418  21.403  0.00  0.00    +0.000 NA
ATOM     10  C   UNL     1       1.246   8.480  20.268  0.00  0.00    +0.000 A 
ATOM     11  N   UNL     1       1.244   9.547  19.438  0.00  0.00    +0.000 NA
ATOM     12  C   UNL     1       0.596  10.624  19.918  0.00  0.00    +0.000 A 
ATOM     13  S   UNL     1       0.061  12.034  18.933  0.00  0.00    +0.000 S 
ATOM     14  C   UNL     1      -0.906  12.802  20.341  0.00  0.00    +0.000 C 
ATOM     15  C   UNL     1      -2.449  12.743  20.248  0.00  0.00    +0.000 C 
ENDROOT
BRANCH  10  16
ATOM     16  C   UNL     1       1.982   7.241  19.909  0.00  0.00    +0.000 A 
ATOM     17  C   UNL     1       1.920   6.105  20.747  0.00  0.00    +0.000 A 
ATOM     18  C   UNL     1       2.549   4.900  20.417  0.00  0.00    +0.000 A 
ATOM     19  C   UNL     1       3.266   4.788  19.232  0.00  0.00    +0.000 A 
ATOM     20  C   UNL     1       3.402   5.909  18.415  0.00  0.00    +0.000 A 
ATOM     21  C   UNL     1       2.768   7.123  18.752  0.00  0.00    +0.000 A 
BRANCH  19  22
ATOM     22  O   UNL     1       3.830   3.564  19.002  0.00  0.00    +0.000 OA
ATOM     23  C   UNL     1       3.567   2.572  19.989  0.00  0.00    +0.000 C 
ENDBRANCH  19  22
ENDBRANCH  10  16
BRANCH   8  24
ATOM     24  O   UNL     1      -0.994   9.392  22.787  0.00  0.00    +0.000 OA
ATOM     25  H   UNL     1      -1.821   9.443  22.274  0.00  0.00    +0.000 HD
ENDBRANCH   8  24
BRANCH   1  26
ATOM     26  O   UNL     1      -5.058  12.531  22.794  0.00  0.00    +0.000 OA
BRANCH  26  28
ATOM     27  C   UNL     1      -5.923  14.608  23.701  0.00  0.00    +0.000 C 
ATOM     28  C   UNL     1      -6.261  13.217  23.198  0.00  0.00    +0.000 C 
ENDBRANCH  26  28
ENDBRANCH   1  26
TORSDOF 5
ENDMDL
MODEL 7
REMARK VINA RESULT:      -6.8      1.783      2.238
REMARK  Name = 
REMARK  7 active torsions:
REMARK  status: ('A' for Active; 'I' for Inactive)
REMARK    1  A    between atoms: C_1  and  C_2
REMARK    2  A    between atoms: C_2  and  O_3
REMARK    3  A    between atoms: O_3  and  C_4
REMARK    4  A    between atoms: C_11  and  O_12
REMARK    5  A    between atoms: C_14  and  C_15
REMARK    6  A    between atoms: C_18  and  O_19
REMARK    7  A    between atoms: O_19  and  C_20
REMARK                            x       y       z     vdW  Elec       q    Type
REMARK                         _______ _______ _______ _____ _____    ______ ____
ROOT
ATOM      1  C   UNL     1       1.915  15.161  21.062  0.00  0.00    +0.000 C 
ATOM      2  O   UNL     1       2.257  15.260  22.235  0.00  0.00    +0.000 OA
ATOM      3  N   UNL     1       1.246  14.046  20.515  0.00  0.00    +0.000 N 
ATOM      4  C   UNL     1       0.747  14.229  19.165  0.00  0.00    +0.000 C 
ATOM      5  C   UNL     1       0.008  13.100  18.501  0.00  0.00    +0.000 C 
ATOM      6  C   UNL     1      -0.058  11.790  19.245  0.00  0.00    +0.000 C 
ATOM      7  C   UNL     1       0.933  10.723  18.925  0.00  0.00    +0.000 A 
ATOM      8  C   UNL     1       1.877  10.626  17.961  0.00  0.00    +0.000 A 
ATOM      9  N   UNL     1       2.535   9.505  17.669  0.00  0.00    +0.000 NA
ATOM     10  C   UNL     1       2.219   8.405  18.384  0.00  0.00    +0.000 A 
ATOM     11  N   UNL     1       1.448   8.434  19.495  0.00  0.00    +0.000 NA
ATOM     12  C   UNL     1       0.867   9.623  19.738  0.00  0.00    +0.000 A 
ATOM     13  S   UNL     1       0.131  10.114  21.308  0.00  0.00    +0.000 S 
ATOM     14  C   UNL     1      -0.135  11.886  20.765  0.00  0.00    +0.000 C 
ATOM     15  C   UNL     1       0.787  12.959  21.391  0.00  0.00    +0.000 C 
ENDROOT
BRANCH  10  16
ATOM     16  C   UNL     1       2.869   7.145  17.945  0.00  0.00    +0.000 A 
ATOM     17  C   UNL     1       4.120   7.178  17.289  0.00  0.00    +0.000 A 
ATOM     18  C   UNL     1       4.795   6.012  16.912  0.00  0.00    +0.000 A 
ATOM     19  C   UNL     1       4.239   4.766  17.178  0.00  0.00    +0.000 A 
ATOM     20  C   UNL     1       2.976   4.700  17.765  0.00  0.00    +0.000 A 
ATOM     21  C   UNL     1       2.298   5.877  18.141  0.00  0.00    +0.000 A 
BRANCH  19  22
ATOM     22  O   UNL     1       4.987   3.693  16.778  0.00  0.00    +0.000 OA
ATOM     23  C   UNL     1       5.969   3.967  15.785  0.00  0.00    +0.000 C 
ENDBRANCH  19  22
ENDBRANCH  10  16
BRANCH   8  24
ATOM     24  O   UNL     1       2.407  11.757  17.426  0.00  0.00    +0.000 OA
ATOM     25  H   UNL     1       2.949  11.399  16.699  0.00  0.00    +0.000 HD
ENDBRANCH   8  24
BRANCH   1  26
ATOM     26  O   UNL     1       2.099  16.119  20.119  0.00  0.00    +0.000 OA
BRANCH  26  28
ATOM     27  C   UNL     1       0.562  17.950  19.707  0.00  0.00    +0.000 C 
ATOM     28  C   UNL     1       1.830  17.506  20.411  0.00  0.00    +0.000 C 
ENDBRANCH  26  28
ENDBRANCH   1  26
TORSDOF 5
ENDMDL
MODEL 8
REMARK VINA RESULT:      -6.8      1.784      2.025
REMARK  Name = 
REMARK  7 active torsions:
REMARK  status: ('A' for Active; 'I' for Inactive)
REMARK    1  A    between atoms: C_1  and  C_2
REMARK    2  A    between atoms: C_2  and  O_3
REMARK    3  A    between atoms: O_3  and  C_4
REMARK    4  A    between atoms: C_11  and  O_12
REMARK    5  A    between atoms: C_14  and  C_15
REMARK    6  A    between atoms: C_18  and  O_19
REMARK    7  A    between atoms: O_19  and  C_20
REMARK                            x       y       z     vdW  Elec       q    Type
REMARK                         _______ _______ _______ _____ _____    ______ ____
ROOT
ATOM      1  C   UNL     1       1.287  14.820  21.261  0.00  0.00    +0.000 C 
ATOM      2  O   UNL     1       1.579  14.913  22.449  0.00  0.00    +0.000 OA
ATOM      3  N   UNL     1       0.740  13.668  20.660  0.00  0.00    +0.000 N 
ATOM      4  C   UNL     1       0.272  13.847  19.298  0.00  0.00    +0.000 C 
ATOM      5  C   UNL     1      -0.339  12.678  18.577  0.00  0.00    +0.000 C 
ATOM      6  C   UNL     1      -0.312  11.345  19.281  0.00  0.00    +0.000 C 
ATOM      7  C   UNL     1       0.782  10.380  18.968  0.00  0.00    +0.000 A 
ATOM      8  C   UNL     1       1.763  10.398  18.037  0.00  0.00    +0.000 A 
ATOM      9  N   UNL     1       2.529   9.350  17.738  0.00  0.00    +0.000 NA
ATOM     10  C   UNL     1       2.289   8.204  18.410  0.00  0.00    +0.000 A 
ATOM     11  N   UNL     1       1.481   8.130  19.492  0.00  0.00    +0.000 NA
ATOM     12  C   UNL     1       0.787   9.254  19.747  0.00  0.00    +0.000 A 
ATOM     13  S   UNL     1      -0.042   9.629  21.302  0.00  0.00    +0.000 S 
ATOM     14  C   UNL     1      -0.448  11.387  20.799  0.00  0.00    +0.000 C 
ATOM     15  C   UNL     1       0.351  12.518  21.488  0.00  0.00    +0.000 C 
ENDROOT
BRANCH  10  16
ATOM     16  C   UNL     1       3.065   7.021  17.961  0.00  0.00    +0.000 A 
ATOM     17  C   UNL     1       2.589   5.716  18.218  0.00  0.00    +0.000 A 
ATOM     18  C   UNL     1       3.258   4.575  17.760  0.00  0.00    +0.000 A 
ATOM     19  C   UNL     1       4.432   4.701  17.027  0.00  0.00    +0.000 A 
ATOM     20  C   UNL     1       4.963   5.972  16.812  0.00  0.00    +0.000 A 
ATOM     21  C   UNL     1       4.287   7.119  17.277  0.00  0.00    +0.000 A 
BRANCH  19  22
ATOM     22  O   UNL     1       4.997   3.524  16.619  0.00  0.00    +0.000 OA
ATOM     23  C   UNL     1       5.958   3.636  15.575  0.00  0.00    +0.000 C 
ENDBRANCH  19  22
ENDBRANCH  10  16
BRANCH   8  24
ATOM     24  O   UNL     1       2.207  11.588  17.553  0.00  0.00    +0.000 OA
ATOM     25  H   UNL     1       1.786  12.221  18.165  0.00  0.00    +0.000 HD
ENDBRANCH   8  24
BRANCH   1  26
ATOM     26  O   UNL     1       1.416  15.820  20.352  0.00  0.00    +0.000 OA
BRANCH  26  28
ATOM     27  C   UNL     1       2.726  17.857  20.484  0.00  0.00    +0.000 C 
ATOM     28  C   UNL     1       1.387  17.202  20.764  0.00  0.00    +0.000 C 
ENDBRANCH  26  28
ENDBRANCH   1  26
TORSDOF 5
ENDMDL
MODEL 9
REMARK VINA RESULT:      -6.7      1.650      2.021
REMARK  Name = 
REMARK  7 active torsions:
REMARK  status: ('A' for Active; 'I' for Inactive)
REMARK    1  A    between atoms: C_1  and  C_2
REMARK    2  A    between atoms: C_2  and  O_3
REMARK    3  A    between atoms: O_3  and  C_4
REMARK    4  A    between atoms: C_11  and  O_12
REMARK    5  A    between atoms: C_14  and  C_15
REMARK    6  A    between atoms: C_18  and  O_19
REMARK    7  A    between atoms: O_19  and  C_20
REMARK                            x       y       z     vdW  Elec       q    Type
REMARK                         _______ _______ _______ _____ _____    ______ ____
ROOT
ATOM      1  C   UNL     1       0.177  14.645  21.578  0.00  0.00    +0.000 C 
ATOM      2  O   UNL     1       0.680  14.927  22.661  0.00  0.00    +0.000 OA
ATOM      3  N   UNL     1      -0.200  13.344  21.185  0.00  0.00    +0.000 N 
ATOM      4  C   UNL     1      -0.970  13.271  19.957  0.00  0.00    +0.000 C 
ATOM      5  C   UNL     1      -1.428  11.927  19.464  0.00  0.00    +0.000 C 
ATOM      6  C   UNL     1      -0.945  10.714  20.220  0.00  0.00    +0.000 C 
ATOM      7  C   UNL     1       0.253   9.979  19.723  0.00  0.00    +0.000 A 
ATOM      8  C   UNL     1       0.987  10.105  18.593  0.00  0.00    +0.000 A 
ATOM      9  N   UNL     1       1.896   9.219  18.190  0.00  0.00    +0.000 NA
ATOM     10  C   UNL     1       2.075   8.129  18.964  0.00  0.00    +0.000 A 
ATOM     11  N   UNL     1       1.551   8.001  20.204  0.00  0.00    +0.000 NA
ATOM     12  C   UNL     1       0.683   8.971  20.545  0.00  0.00    +0.000 A 
ATOM     13  S   UNL     1       0.132   9.326  22.223  0.00  0.00    +0.000 S 
ATOM     14  C   UNL     1      -0.768  10.890  21.724  0.00  0.00    +0.000 C 
ATOM     15  C   UNL     1      -0.128  12.234  22.146  0.00  0.00    +0.000 C 
ENDROOT
BRANCH  10  16
ATOM     16  C   UNL     1       2.994   7.098  18.420  0.00  0.00    +0.000 A 
ATOM     17  C   UNL     1       3.003   5.792  18.960  0.00  0.00    +0.000 A 
ATOM     18  C   UNL     1       3.810   4.775  18.438  0.00  0.00    +0.000 A 
ATOM     19  C   UNL     1       4.640   5.029  17.353  0.00  0.00    +0.000 A 
ATOM     20  C   UNL     1       4.702   6.323  16.838  0.00  0.00    +0.000 A 
ATOM     21  C   UNL     1       3.890   7.346  17.367  0.00  0.00    +0.000 A 
BRANCH  19  22
ATOM     22  O   UNL     1       5.376   3.963  16.915  0.00  0.00    +0.000 OA
ATOM     23  C   UNL     1       6.457   4.280  16.046  0.00  0.00    +0.000 C 
ENDBRANCH  19  22
ENDBRANCH  10  16
BRANCH   8  24
ATOM     24  O   UNL     1       1.030  11.303  17.953  0.00  0.00    +0.000 OA
ATOM     25  H   UNL     1       0.737  11.059  17.055  0.00  0.00    +0.000 HD
ENDBRANCH   8  24
BRANCH   1  26
ATOM     26  O   UNL     1      -0.123  15.545  20.607  0.00  0.00    +0.000 OA
BRANCH  26  28
ATOM     27  C   UNL     1       1.792  15.779  19.137  0.00  0.00    +0.000 C 
ATOM     28  C   UNL     1       0.872  16.471  20.123  0.00  0.00    +0.000 C 
ENDBRANCH  26  28
ENDBRANCH   1  26
TORSDOF 5
ENDMDL
