MODEL 1
REMARK VINA RESULT:      -8.8      0.000      0.000
REMARK  Name = 
REMARK  7 active torsions:
REMARK  status: ('A' for Active; 'I' for Inactive)
REMARK    1  A    between atoms: C_1  and  O_2
REMARK    2  A    between atoms: O_2  and  C_3
REMARK    3  A    between atoms: C_7  and  C_8
REMARK    4  A    between atoms: C_11  and  C_12
REMARK    5  A    between atoms: N_15  and  C_16
REMARK    6  A    between atoms: C_16  and  C_17
REMARK    7  A    between atoms: C_22  and  C_23
REMARK                            x       y       z     vdW  Elec       q    Type
REMARK                         _______ _______ _______ _____ _____    ______ ____
ROOT
ATOM      1  C   UNL     1       8.517   8.995  18.190  0.00  0.00    +0.000 A 
ATOM      2  N   UNL     1       7.831   9.024  17.037  0.00  0.00    +0.000 NA
ATOM      3  O   UNL     1       7.210   7.767  16.990  0.00  0.00    +0.000 OA
ATOM      4  C   UNL     1       7.605   7.100  18.111  0.00  0.00    +0.000 A 
ATOM      5  N   UNL     1       8.411   7.805  18.867  0.00  0.00    +0.000 NA
ENDROOT
BRANCH   1  10
ATOM      6  C   UNL     1      10.873  11.907  18.493  0.00  0.00    +0.000 A 
ATOM      7  C   UNL     1      10.831  12.145  19.864  0.00  0.00    +0.000 A 
ATOM      8  C   UNL     1      10.000  11.393  20.696  0.00  0.00    +0.000 A 
ATOM      9  C   UNL     1       9.206  10.375  20.157  0.00  0.00    +0.000 A 
ATOM     10  C   UNL     1       9.250  10.109  18.785  0.00  0.00    +0.000 A 
ATOM     11  C   UNL     1      10.074  10.894  17.959  0.00  0.00    +0.000 A 
BRANCH   6  13
ATOM     12  C   UNL     1      11.221  13.952  17.330  0.00  0.00    +0.000 C 
ATOM     13  O   UNL     1      11.731  12.702  17.783  0.00  0.00    +0.000 OA
ENDBRANCH   6  13
ENDBRANCH   1  10
BRANCH   4  14
ATOM     14  C   UNL     1       7.058   5.749  18.417  0.00  0.00    +0.000 C 
ATOM     15  C   UNL     1       6.831   4.979  17.113  0.00  0.00    +0.000 C 
ATOM     16  C   UNL     1       5.344   5.171  16.869  0.00  0.00    +0.000 C 
ATOM     17  N   UNL     1       4.742   5.026  18.203  0.00  0.00    +0.000 NA
ATOM     18  C   UNL     1       5.684   5.730  19.105  0.00  0.00    +0.000 C 
BRANCH  17  19
ATOM     19  C   UNL     1       4.575   3.595  18.530  0.00  0.00    +0.000 C 
BRANCH  19  20
ATOM     20  C   UNL     1       3.369   3.284  19.398  0.00  0.00    +0.000 A 
ATOM     21  C   UNL     1       3.599   2.760  20.684  0.00  0.00    +0.000 A 
ATOM     22  C   UNL     1       2.546   2.536  21.569  0.00  0.00    +0.000 A 
ATOM     23  C   UNL     1       1.246   2.843  21.186  0.00  0.00    +0.000 A 
ATOM     24  C   UNL     1       0.998   3.353  19.913  0.00  0.00    +0.000 A 
ATOM     25  C   UNL     1       2.045   3.562  18.998  0.00  0.00    +0.000 A 
ATOM     26  C   UNL     1       1.697   4.128  17.648  0.00  0.00    +0.000 C 
ENDBRANCH  19  20
ENDBRANCH  17  19
ENDBRANCH   4  14
TORSDOF 5
ENDMDL
MODEL 2
REMARK VINA RESULT:      -8.4      1.364      1.945
REMARK  Name = 
REMARK  7 active torsions:
REMARK  status: ('A' for Active; 'I' for Inactive)
REMARK    1  A    between atoms: C_1  and  O_2
REMARK    2  A    between atoms: O_2  and  C_3
REMARK    3  A    between atoms: C_7  and  C_8
REMARK    4  A    between atoms: C_11  and  C_12
REMARK    5  A    between atoms: N_15  and  C_16
REMARK    6  A    between atoms: C_16  and  C_17
REMARK    7  A    between atoms: C_22  and  C_23
REMARK                            x       y       z     vdW  Elec       q    Type
REMARK                         _______ _______ _______ _____ _____    ______ ____
ROOT
ATOM      1  C   UNL     1       8.578   9.243  18.277  0.00  0.00    +0.000 A 
ATOM      2  N   UNL     1       7.777   9.492  17.229  0.00  0.00    +0.000 NA
ATOM      3  O   UNL     1       7.130   8.267  17.009  0.00  0.00    +0.000 OA
ATOM      4  C   UNL     1       7.625   7.399  17.936  0.00  0.00    +0.000 A 
ATOM      5  N   UNL     1       8.517   7.946  18.723  0.00  0.00    +0.000 NA
ENDROOT
BRANCH   1  10
ATOM      6  C   UNL     1       9.693  11.596  20.986  0.00  0.00    +0.000 A 
ATOM      7  C   UNL     1      10.775  12.221  20.371  0.00  0.00    +0.000 A 
ATOM      8  C   UNL     1      11.180  11.850  19.088  0.00  0.00    +0.000 A 
ATOM      9  C   UNL     1      10.490  10.847  18.398  0.00  0.00    +0.000 A 
ATOM     10  C   UNL     1       9.390  10.223  18.993  0.00  0.00    +0.000 A 
ATOM     11  C   UNL     1       9.011  10.593  20.296  0.00  0.00    +0.000 A 
BRANCH   6  13
ATOM     12  C   UNL     1       9.017  13.423  22.351  0.00  0.00    +0.000 C 
ATOM     13  O   UNL     1       9.384  12.052  22.239  0.00  0.00    +0.000 OA
ENDBRANCH   6  13
ENDBRANCH   1  10
BRANCH   4  14
ATOM     14  C   UNL     1       7.084   6.014  18.035  0.00  0.00    +0.000 C 
ATOM     15  C   UNL     1       5.826   5.889  17.170  0.00  0.00    +0.000 C 
ATOM     16  C   UNL     1       4.709   6.051  18.186  0.00  0.00    +0.000 C 
ATOM     17  N   UNL     1       5.170   5.281  19.351  0.00  0.00    +0.000 NA
ATOM     18  C   UNL     1       6.620   5.582  19.434  0.00  0.00    +0.000 C 
BRANCH  17  19
ATOM     19  C   UNL     1       4.879   3.845  19.155  0.00  0.00    +0.000 C 
BRANCH  19  20
ATOM     20  C   UNL     1       3.434   3.457  19.407  0.00  0.00    +0.000 A 
ATOM     21  C   UNL     1       2.975   3.449  20.738  0.00  0.00    +0.000 A 
ATOM     22  C   UNL     1       1.638   3.191  21.036  0.00  0.00    +0.000 A 
ATOM     23  C   UNL     1       0.736   2.947  20.007  0.00  0.00    +0.000 A 
ATOM     24  C   UNL     1       1.175   2.940  18.685  0.00  0.00    +0.000 A 
ATOM     25  C   UNL     1       2.524   3.173  18.366  0.00  0.00    +0.000 A 
ATOM     26  C   UNL     1       2.917   3.162  16.913  0.00  0.00    +0.000 C 
ENDBRANCH  19  20
ENDBRANCH  17  19
ENDBRANCH   4  14
TORSDOF 5
ENDMDL
MODEL 3
REMARK VINA RESULT:      -8.2      0.498      1.391
REMARK  Name = 
REMARK  7 active torsions:
REMARK  status: ('A' for Active; 'I' for Inactive)
REMARK    1  A    between atoms: C_1  and  O_2
REMARK    2  A    between atoms: O_2  and  C_3
REMARK    3  A    between atoms: C_7  and  C_8
REMARK    4  A    between atoms: C_11  and  C_12
REMARK    5  A    between atoms: N_15  and  C_16
REMARK    6  A    between atoms: C_16  and  C_17
REMARK    7  A    between atoms: C_22  and  C_23
REMARK                            x       y       z     vdW  Elec       q    Type
REMARK                         _______ _______ _______ _____ _____    ______ ____
ROOT
ATOM      1  C   UNL     1       8.460   8.889  18.109  0.00  0.00    +0.000 A 
ATOM      2  N   UNL     1       7.929   8.831  16.877  0.00  0.00    +0.000 NA
ATOM      3  O   UNL     1       7.276   7.590  16.857  0.00  0.00    +0.000 OA
ATOM      4  C   UNL     1       7.500   7.017  18.073  0.00  0.00    +0.000 A 
ATOM      5  N   UNL     1       8.225   7.767  18.865  0.00  0.00    +0.000 NA
ENDROOT
BRANCH   1  10
ATOM      6  C   UNL     1      10.578  11.982  18.364  0.00  0.00    +0.000 A 
ATOM      7  C   UNL     1      10.645  12.149  19.745  0.00  0.00    +0.000 A 
ATOM      8  C   UNL     1       9.962  11.286  20.603  0.00  0.00    +0.000 A 
ATOM      9  C   UNL     1       9.210  10.229  20.081  0.00  0.00    +0.000 A 
ATOM     10  C   UNL     1       9.148  10.034  18.698  0.00  0.00    +0.000 A 
ATOM     11  C   UNL     1       9.822  10.929  17.847  0.00  0.00    +0.000 A 
BRANCH   6  13
ATOM     12  C   UNL     1      10.964  14.258  17.793  0.00  0.00    +0.000 C 
ATOM     13  O   UNL     1      11.296  12.883  17.626  0.00  0.00    +0.000 OA
ENDBRANCH   6  13
ENDBRANCH   1  10
BRANCH   4  14
ATOM     14  C   UNL     1       6.871   5.712  18.418  0.00  0.00    +0.000 C 
ATOM     15  C   UNL     1       7.098   4.713  17.279  0.00  0.00    +0.000 C 
ATOM     16  C   UNL     1       5.785   4.777  16.517  0.00  0.00    +0.000 C 
ATOM     17  N   UNL     1       4.762   4.835  17.572  0.00  0.00    +0.000 NA
ATOM     18  C   UNL     1       5.345   5.737  18.594  0.00  0.00    +0.000 C 
BRANCH  17  19
ATOM     19  C   UNL     1       4.482   3.475  18.080  0.00  0.00    +0.000 C 
BRANCH  19  20
ATOM     20  C   UNL     1       3.418   3.414  19.159  0.00  0.00    +0.000 A 
ATOM     21  C   UNL     1       2.211   4.105  18.937  0.00  0.00    +0.000 A 
ATOM     22  C   UNL     1       1.156   4.019  19.842  0.00  0.00    +0.000 A 
ATOM     23  C   UNL     1       1.285   3.232  20.981  0.00  0.00    +0.000 A 
ATOM     24  C   UNL     1       2.475   2.550  21.223  0.00  0.00    +0.000 A 
ATOM     25  C   UNL     1       3.560   2.644  20.334  0.00  0.00    +0.000 A 
ATOM     26  C   UNL     1       4.807   1.866  20.659  0.00  0.00    +0.000 C 
ENDBRANCH  19  20
ENDBRANCH  17  19
ENDBRANCH   4  14
TORSDOF 5
ENDMDL
MODEL 4
REMARK VINA RESULT:      -8.2      5.269      7.771
REMARK  Name = 
REMARK  7 active torsions:
REMARK  status: ('A' for Active; 'I' for Inactive)
REMARK    1  A    between atoms: C_1  and  O_2
REMARK    2  A    between atoms: O_2  and  C_3
REMARK    3  A    between atoms: C_7  and  C_8
REMARK    4  A    between atoms: C_11  and  C_12
REMARK    5  A    between atoms: N_15  and  C_16
REMARK    6  A    between atoms: C_16  and  C_17
REMARK    7  A    between atoms: C_22  and  C_23
REMARK                            x       y       z     vdW  Elec       q    Type
REMARK                         _______ _______ _______ _____ _____    ______ ____
ROOT
ATOM      1  C   UNL     1       1.271   9.207  19.476  0.00  0.00    +0.000 A 
ATOM      2  N   UNL     1       1.386   9.755  18.256  0.00  0.00    +0.000 NA
ATOM      3  O   UNL     1       2.068   8.776  17.517  0.00  0.00    +0.000 OA
ATOM      4  C   UNL     1       2.313   7.747  18.375  0.00  0.00    +0.000 A 
ATOM      5  N   UNL     1       1.856   7.969  19.583  0.00  0.00    +0.000 NA
ENDROOT
BRANCH   1  10
ATOM      6  C   UNL     1      -0.732  11.635  21.527  0.00  0.00    +0.000 A 
ATOM      7  C   UNL     1      -0.756  10.990  22.761  0.00  0.00    +0.000 A 
ATOM      8  C   UNL     1      -0.162   9.737  22.924  0.00  0.00    +0.000 A 
ATOM      9  C   UNL     1       0.479   9.120  21.845  0.00  0.00    +0.000 A 
ATOM     10  C   UNL     1       0.530   9.762  20.604  0.00  0.00    +0.000 A 
ATOM     11  C   UNL     1      -0.096  11.013  20.452  0.00  0.00    +0.000 A 
BRANCH   6  13
ATOM     12  C   UNL     1      -0.696  13.873  20.723  0.00  0.00    +0.000 C 
ATOM     13  O   UNL     1      -1.338  12.861  21.492  0.00  0.00    +0.000 OA
ENDBRANCH   6  13
ENDBRANCH   1  10
BRANCH   4  14
ATOM     14  C   UNL     1       2.958   6.496  17.887  0.00  0.00    +0.000 C 
ATOM     15  C   UNL     1       2.278   5.282  18.528  0.00  0.00    +0.000 C 
ATOM     16  C   UNL     1       3.220   4.939  19.669  0.00  0.00    +0.000 C 
ATOM     17  N   UNL     1       4.561   5.111  19.089  0.00  0.00    +0.000 NA
ATOM     18  C   UNL     1       4.441   6.328  18.251  0.00  0.00    +0.000 C 
BRANCH  17  19
ATOM     19  C   UNL     1       4.938   3.905  18.321  0.00  0.00    +0.000 C 
BRANCH  19  20
ATOM     20  C   UNL     1       5.629   4.191  17.001  0.00  0.00    +0.000 A 
ATOM     21  C   UNL     1       4.868   4.081  15.821  0.00  0.00    +0.000 A 
ATOM     22  C   UNL     1       5.411   4.416  14.582  0.00  0.00    +0.000 A 
ATOM     23  C   UNL     1       6.720   4.877  14.503  0.00  0.00    +0.000 A 
ATOM     24  C   UNL     1       7.491   4.981  15.659  0.00  0.00    +0.000 A 
ATOM     25  C   UNL     1       6.969   4.624  16.915  0.00  0.00    +0.000 A 
ATOM     26  C   UNL     1       7.860   4.778  18.117  0.00  0.00    +0.000 C 
ENDBRANCH  19  20
ENDBRANCH  17  19
ENDBRANCH   4  14
TORSDOF 5
ENDMDL
MODEL 5
REMARK VINA RESULT:      -8.1      1.262      2.267
REMARK  Name = 
REMARK  7 active torsions:
REMARK  status: ('A' for Active; 'I' for Inactive)
REMARK    1  A    between atoms: C_1  and  O_2
REMARK    2  A    between atoms: O_2  and  C_3
REMARK    3  A    between atoms: C_7  and  C_8
REMARK    4  A    between atoms: C_11  and  C_12
REMARK    5  A    between atoms: N_15  and  C_16
REMARK    6  A    between atoms: C_16  and  C_17
REMARK    7  A    between atoms: C_22  and  C_23
REMARK                            x       y       z     vdW  Elec       q    Type
REMARK                         _______ _______ _______ _____ _____    ______ ____
ROOT
ATOM      1  C   UNL     1       8.576   9.068  18.199  0.00  0.00    +0.000 A 
ATOM      2  N   UNL     1       7.813   9.182  17.100  0.00  0.00    +0.000 NA
ATOM      3  O   UNL     1       7.123   7.962  17.049  0.00  0.00    +0.000 OA
ATOM      4  C   UNL     1       7.558   7.228  18.113  0.00  0.00    +0.000 A 
ATOM      5  N   UNL     1       8.452   7.857  18.835  0.00  0.00    +0.000 NA
ENDROOT
BRANCH   1  10
ATOM      6  C   UNL     1       9.872  11.566  20.688  0.00  0.00    +0.000 A 
ATOM      7  C   UNL     1      10.827  12.234  19.927  0.00  0.00    +0.000 A 
ATOM      8  C   UNL     1      11.092  11.847  18.612  0.00  0.00    +0.000 A 
ATOM      9  C   UNL     1      10.385  10.785  18.039  0.00  0.00    +0.000 A 
ATOM     10  C   UNL     1       9.409  10.115  18.783  0.00  0.00    +0.000 A 
ATOM     11  C   UNL     1       9.173  10.503  20.114  0.00  0.00    +0.000 A 
BRANCH   6  13
ATOM     12  C   UNL     1       8.831  13.165  22.109  0.00  0.00    +0.000 C 
ATOM     13  O   UNL     1       9.694  12.042  21.959  0.00  0.00    +0.000 OA
ENDBRANCH   6  13
ENDBRANCH   1  10
BRANCH   4  14
ATOM     14  C   UNL     1       6.960   5.896  18.404  0.00  0.00    +0.000 C 
ATOM     15  C   UNL     1       7.483   4.865  17.399  0.00  0.00    +0.000 C 
ATOM     16  C   UNL     1       6.355   4.790  16.385  0.00  0.00    +0.000 C 
ATOM     17  N   UNL     1       5.134   4.817  17.205  0.00  0.00    +0.000 NA
ATOM     18  C   UNL     1       5.432   5.810  18.266  0.00  0.00    +0.000 C 
BRANCH  17  19
ATOM     19  C   UNL     1       4.848   3.466  17.730  0.00  0.00    +0.000 C 
BRANCH  19  20
ATOM     20  C   UNL     1       3.493   3.326  18.400  0.00  0.00    +0.000 A 
ATOM     21  C   UNL     1       2.363   3.805  17.710  0.00  0.00    +0.000 A 
ATOM     22  C   UNL     1       1.079   3.629  18.223  0.00  0.00    +0.000 A 
ATOM     23  C   UNL     1       0.903   2.962  19.429  0.00  0.00    +0.000 A 
ATOM     24  C   UNL     1       2.011   2.491  20.131  0.00  0.00    +0.000 A 
ATOM     25  C   UNL     1       3.315   2.681  19.643  0.00  0.00    +0.000 A 
ATOM     26  C   UNL     1       4.458   2.130  20.452  0.00  0.00    +0.000 C 
ENDBRANCH  19  20
ENDBRANCH  17  19
ENDBRANCH   4  14
TORSDOF 5
ENDMDL
MODEL 6
REMARK VINA RESULT:      -8.1      6.584      9.081
REMARK  Name = 
REMARK  7 active torsions:
REMARK  status: ('A' for Active; 'I' for Inactive)
REMARK    1  A    between atoms: C_1  and  O_2
REMARK    2  A    between atoms: O_2  and  C_3
REMARK    3  A    between atoms: C_7  and  C_8
REMARK    4  A    between atoms: C_11  and  C_12
REMARK    5  A    between atoms: N_15  and  C_16
REMARK    6  A    between atoms: C_16  and  C_17
REMARK    7  A    between atoms: C_22  and  C_23
REMARK                            x       y       z     vdW  Elec       q    Type
REMARK                         _______ _______ _______ _____ _____    ______ ____
ROOT
ATOM      1  C   UNL     1       3.035   6.999  18.333  0.00  0.00    +0.000 A 
ATOM      2  N   UNL     1       2.616   6.913  19.605  0.00  0.00    +0.000 NA
ATOM      3  O   UNL     1       1.825   8.059  19.771  0.00  0.00    +0.000 OA
ATOM      4  C   UNL     1       1.866   8.730  18.586  0.00  0.00    +0.000 A 
ATOM      5  N   UNL     1       2.600   8.128  17.684  0.00  0.00    +0.000 NA
ENDROOT
BRANCH   1  10
ATOM      6  C   UNL     1       5.450   5.490  15.882  0.00  0.00    +0.000 A 
ATOM      7  C   UNL     1       5.179   4.133  16.038  0.00  0.00    +0.000 A 
ATOM      8  C   UNL     1       4.242   3.694  16.974  0.00  0.00    +0.000 A 
ATOM      9  C   UNL     1       3.552   4.621  17.763  0.00  0.00    +0.000 A 
ATOM     10  C   UNL     1       3.798   5.989  17.606  0.00  0.00    +0.000 A 
ATOM     11  C   UNL     1       4.764   6.411  16.674  0.00  0.00    +0.000 A 
BRANCH   6  13
ATOM     12  C   UNL     1       6.925   4.711  14.187  0.00  0.00    +0.000 C 
ATOM     13  O   UNL     1       6.380   5.799  14.927  0.00  0.00    +0.000 OA
ENDBRANCH   6  13
ENDBRANCH   1  10
BRANCH   4  14
ATOM     14  C   UNL     1       1.057   9.966  18.391  0.00  0.00    +0.000 C 
ATOM     15  C   UNL     1       0.857  10.668  19.737  0.00  0.00    +0.000 C 
ATOM     16  C   UNL     1      -0.532  10.211  20.145  0.00  0.00    +0.000 C 
ATOM     17  N   UNL     1      -1.307  10.261  18.896  0.00  0.00    +0.000 NA
ATOM     18  C   UNL     1      -0.371   9.748  17.867  0.00  0.00    +0.000 C 
BRANCH  17  19
ATOM     19  C   UNL     1      -1.762  11.644  18.638  0.00  0.00    +0.000 C 
BRANCH  19  20
ATOM     20  C   UNL     1      -3.257  11.785  18.428  0.00  0.00    +0.000 A 
ATOM     21  C   UNL     1      -4.030  12.281  19.496  0.00  0.00    +0.000 A 
ATOM     22  C   UNL     1      -5.394  12.522  19.346  0.00  0.00    +0.000 A 
ATOM     23  C   UNL     1      -6.007  12.282  18.121  0.00  0.00    +0.000 A 
ATOM     24  C   UNL     1      -5.260  11.782  17.057  0.00  0.00    +0.000 A 
ATOM     25  C   UNL     1      -3.889  11.508  17.197  0.00  0.00    +0.000 A 
ATOM     26  C   UNL     1      -3.149  10.983  15.996  0.00  0.00    +0.000 C 
ENDBRANCH  19  20
ENDBRANCH  17  19
ENDBRANCH   4  14
TORSDOF 5
ENDMDL
MODEL 7
REMARK VINA RESULT:      -7.9      1.184      1.846
REMARK  Name = 
REMARK  7 active torsions:
REMARK  status: ('A' for Active; 'I' for Inactive)
REMARK    1  A    between atoms: C_1  and  O_2
REMARK    2  A    between atoms: O_2  and  C_3
REMARK    3  A    between atoms: C_7  and  C_8
REMARK    4  A    between atoms: C_11  and  C_12
REMARK    5  A    between atoms: N_15  and  C_16
REMARK    6  A    between atoms: C_16  and  C_17
REMARK    7  A    between atoms: C_22  and  C_23
REMARK                            x       y       z     vdW  Elec       q    Type
REMARK                         _______ _______ _______ _____ _____    ______ ____
ROOT
ATOM      1  C   UNL     1       8.443   8.770  18.156  0.00  0.00    +0.000 A 
ATOM      2  N   UNL     1       8.107   8.529  16.879  0.00  0.00    +0.000 NA
ATOM      3  O   UNL     1       7.553   7.241  16.920  0.00  0.00    +0.000 OA
ATOM      4  C   UNL     1       7.634   6.828  18.217  0.00  0.00    +0.000 A 
ATOM      5  N   UNL     1       8.179   7.722  19.004  0.00  0.00    +0.000 NA
ENDROOT
BRANCH   1  10
ATOM      6  C   UNL     1       9.472  11.382  20.652  0.00  0.00    +0.000 A 
ATOM      7  C   UNL     1       9.750  12.460  19.815  0.00  0.00    +0.000 A 
ATOM      8  C   UNL     1       9.650  12.332  18.429  0.00  0.00    +0.000 A 
ATOM      9  C   UNL     1       9.255  11.115  17.864  0.00  0.00    +0.000 A 
ATOM     10  C   UNL     1       8.954  10.028  18.690  0.00  0.00    +0.000 A 
ATOM     11  C   UNL     1       9.084  10.168  20.084  0.00  0.00    +0.000 A 
BRANCH   6  13
ATOM     12  C   UNL     1       8.604  12.465  22.584  0.00  0.00    +0.000 C 
ATOM     13  O   UNL     1       9.596  11.631  21.992  0.00  0.00    +0.000 OA
ENDBRANCH   6  13
ENDBRANCH   1  10
BRANCH   4  14
ATOM     14  C   UNL     1       7.053   5.520  18.628  0.00  0.00    +0.000 C 
ATOM     15  C   UNL     1       7.082   4.548  17.444  0.00  0.00    +0.000 C 
ATOM     16  C   UNL     1       5.665   4.641  16.907  0.00  0.00    +0.000 C 
ATOM     17  N   UNL     1       4.826   4.680  18.114  0.00  0.00    +0.000 NA
ATOM     18  C   UNL     1       5.576   5.551  19.050  0.00  0.00    +0.000 C 
BRANCH  17  19
ATOM     19  C   UNL     1       4.616   3.310  18.629  0.00  0.00    +0.000 C 
BRANCH  19  20
ATOM     20  C   UNL     1       3.362   3.138  19.465  0.00  0.00    +0.000 A 
ATOM     21  C   UNL     1       3.509   2.672  20.786  0.00  0.00    +0.000 A 
ATOM     22  C   UNL     1       2.413   2.575  21.641  0.00  0.00    +0.000 A 
ATOM     23  C   UNL     1       1.153   2.953  21.192  0.00  0.00    +0.000 A 
ATOM     24  C   UNL     1       0.987   3.406  19.886  0.00  0.00    +0.000 A 
ATOM     25  C   UNL     1       2.076   3.486  19.001  0.00  0.00    +0.000 A 
ATOM     26  C   UNL     1       1.818   3.999  17.610  0.00  0.00    +0.000 C 
ENDBRANCH  19  20
ENDBRANCH  17  19
ENDBRANCH   4  14
TORSDOF 5
ENDMDL
MODEL 8
REMARK VINA RESULT:      -7.8      6.688      9.005
REMARK  Name = 
REMARK  7 active torsions:
REMARK  status: ('A' for Active; 'I' for Inactive)
REMARK    1  A    between atoms: C_1  and  O_2
REMARK    2  A    between atoms: O_2  and  C_3
REMARK    3  A    between atoms: C_7  and  C_8
REMARK    4  A    between atoms: C_11  and  C_12
REMARK    5  A    between atoms: N_15  and  C_16
REMARK    6  A    between atoms: C_16  and  C_17
REMARK    7  A    between atoms: C_22  and  C_23
REMARK                            x       y       z     vdW  Elec       q    Type
REMARK                         _______ _______ _______ _____ _____    ______ ____
ROOT
ATOM      1  C   UNL     1       2.894   7.067  18.400  0.00  0.00    +0.000 A 
ATOM      2  N   UNL     1       2.539   7.035  19.694  0.00  0.00    +0.000 NA
ATOM      3  O   UNL     1       1.684   8.140  19.829  0.00  0.00    +0.000 OA
ATOM      4  C   UNL     1       1.631   8.737  18.605  0.00  0.00    +0.000 A 
ATOM      5  N   UNL     1       2.361   8.125  17.706  0.00  0.00    +0.000 NA
ENDROOT
BRANCH   1  10
ATOM      6  C   UNL     1       5.429   5.575  16.062  0.00  0.00    +0.000 A 
ATOM      7  C   UNL     1       5.134   4.219  16.176  0.00  0.00    +0.000 A 
ATOM      8  C   UNL     1       4.141   3.773  17.049  0.00  0.00    +0.000 A 
ATOM      9  C   UNL     1       3.417   4.694  17.814  0.00  0.00    +0.000 A 
ATOM     10  C   UNL     1       3.686   6.061  17.699  0.00  0.00    +0.000 A 
ATOM     11  C   UNL     1       4.708   6.489  16.832  0.00  0.00    +0.000 A 
BRANCH   6  13
ATOM     12  C   UNL     1       6.847   4.850  14.295  0.00  0.00    +0.000 C 
ATOM     13  O   UNL     1       6.415   5.890  15.167  0.00  0.00    +0.000 OA
ENDBRANCH   6  13
ENDBRANCH   1  10
BRANCH   4  14
ATOM     14  C   UNL     1       0.737   9.907  18.376  0.00  0.00    +0.000 C 
ATOM     15  C   UNL     1       1.526  11.204  18.576  0.00  0.00    +0.000 C 
ATOM     16  C   UNL     1       1.151  11.605  19.992  0.00  0.00    +0.000 C 
ATOM     17  N   UNL     1      -0.290  11.319  20.075  0.00  0.00    +0.000 NA
ATOM     18  C   UNL     1      -0.447  10.037  19.346  0.00  0.00    +0.000 C 
BRANCH  17  19
ATOM     19  C   UNL     1      -1.061  12.430  19.481  0.00  0.00    +0.000 C 
BRANCH  19  20
ATOM     20  C   UNL     1      -2.561  12.336  19.689  0.00  0.00    +0.000 A 
ATOM     21  C   UNL     1      -3.088  12.798  20.911  0.00  0.00    +0.000 A 
ATOM     22  C   UNL     1      -4.463  12.826  21.136  0.00  0.00    +0.000 A 
ATOM     23  C   UNL     1      -5.335  12.404  20.139  0.00  0.00    +0.000 A 
ATOM     24  C   UNL     1      -4.831  11.934  18.929  0.00  0.00    +0.000 A 
ATOM     25  C   UNL     1      -3.446  11.874  18.692  0.00  0.00    +0.000 A 
ATOM     26  C   UNL     1      -2.982  11.367  17.353  0.00  0.00    +0.000 C 
ENDBRANCH  19  20
ENDBRANCH  17  19
ENDBRANCH   4  14
TORSDOF 5
ENDMDL
MODEL 9
REMARK VINA RESULT:      -7.8      1.719      2.571
REMARK  Name = 
REMARK  7 active torsions:
REMARK  status: ('A' for Active; 'I' for Inactive)
REMARK    1  A    between atoms: C_1  and  O_2
REMARK    2  A    between atoms: O_2  and  C_3
REMARK    3  A    between atoms: C_7  and  C_8
REMARK    4  A    between atoms: C_11  and  C_12
REMARK    5  A    between atoms: N_15  and  C_16
REMARK    6  A    between atoms: C_16  and  C_17
REMARK    7  A    between atoms: C_22  and  C_23
REMARK                            x       y       z     vdW  Elec       q    Type
REMARK                         _______ _______ _______ _____ _____    ______ ____
ROOT
ATOM      1  C   UNL     1       8.509   9.389  18.199  0.00  0.00    +0.000 A 
ATOM      2  N   UNL     1       9.049   8.493  19.041  0.00  0.00    +0.000 NA
ATOM      3  O   UNL     1       8.359   7.307  18.750  0.00  0.00    +0.000 OA
ATOM      4  C   UNL     1       7.456   7.616  17.777  0.00  0.00    +0.000 A 
ATOM      5  N   UNL     1       7.503   8.875  17.418  0.00  0.00    +0.000 NA
ENDROOT
BRANCH   1  10
ATOM      6  C   UNL     1       8.351  13.090  17.575  0.00  0.00    +0.000 A 
ATOM      7  C   UNL     1       9.703  13.399  17.444  0.00  0.00    +0.000 A 
ATOM      8  C   UNL     1      10.679  12.415  17.606  0.00  0.00    +0.000 A 
ATOM      9  C   UNL     1      10.306  11.097  17.888  0.00  0.00    +0.000 A 
ATOM     10  C   UNL     1       8.953  10.765  18.004  0.00  0.00    +0.000 A 
ATOM     11  C   UNL     1       7.983  11.775  17.863  0.00  0.00    +0.000 A 
BRANCH   6  13
ATOM     12  C   UNL     1       7.874  15.393  17.929  0.00  0.00    +0.000 C 
ATOM     13  O   UNL     1       7.487  14.135  17.386  0.00  0.00    +0.000 OA
ENDBRANCH   6  13
ENDBRANCH   1  10
BRANCH   4  14
ATOM     14  C   UNL     1       6.606   6.553  17.173  0.00  0.00    +0.000 C 
ATOM     15  C   UNL     1       5.148   6.755  17.600  0.00  0.00    +0.000 C 
ATOM     16  C   UNL     1       5.001   5.771  18.747  0.00  0.00    +0.000 C 
ATOM     17  N   UNL     1       5.724   4.575  18.289  0.00  0.00    +0.000 NA
ATOM     18  C   UNL     1       6.928   5.116  17.613  0.00  0.00    +0.000 C 
BRANCH  17  19
ATOM     19  C   UNL     1       4.861   3.773  17.397  0.00  0.00    +0.000 C 
BRANCH  19  20
ATOM     20  C   UNL     1       3.506   3.421  17.982  0.00  0.00    +0.000 A 
ATOM     21  C   UNL     1       2.364   4.006  17.402  0.00  0.00    +0.000 A 
ATOM     22  C   UNL     1       1.083   3.660  17.828  0.00  0.00    +0.000 A 
ATOM     23  C   UNL     1       0.922   2.716  18.834  0.00  0.00    +0.000 A 
ATOM     24  C   UNL     1       2.041   2.135  19.428  0.00  0.00    +0.000 A 
ATOM     25  C   UNL     1       3.341   2.489  19.029  0.00  0.00    +0.000 A 
ATOM     26  C   UNL     1       4.497   1.807  19.708  0.00  0.00    +0.000 C 
ENDBRANCH  19  20
ENDBRANCH  17  19
ENDBRANCH   4  14
TORSDOF 5
ENDMDL
