MODEL 1
REMARK VINA RESULT:      -7.0      0.000      0.000
REMARK  Name = 
REMARK  7 active torsions:
REMARK  status: ('A' for Active; 'I' for Inactive)
REMARK    1  A    between atoms: S_2  and  N_4
REMARK    2  A    between atoms: S_2  and  C_19
REMARK    3  A    between atoms: N_4  and  C_5
REMARK    4  A    between atoms: C_5  and  C_6
REMARK    5  A    between atoms: C_6  and  N_7
REMARK    6  A    between atoms: C_11  and  C_12
REMARK    7  A    between atoms: C_12  and  N_13
REMARK                            x       y       z     vdW  Elec       q    Type
REMARK                         _______ _______ _______ _____ _____    ______ ____
ROOT
ATOM      1  C   UNL     1       1.604   6.786  20.656  0.00  0.00    +0.000 C 
ENDROOT
BRANCH   1   2
ATOM      2  N   UNL     1       2.213   5.487  20.270  0.00  0.00    +0.000 NA
ATOM      3  C   UNL     1       1.232   4.390  20.371  0.00  0.00    +0.000 C 
ATOM      4  C   UNL     1       1.811   3.038  19.967  0.00  0.00    +0.000 C 
ATOM      5  C   UNL     1       2.427   3.116  18.575  0.00  0.00    +0.000 C 
ATOM      6  C   UNL     1       3.467   4.244  18.487  0.00  0.00    +0.000 C 
ATOM      7  C   UNL     1       2.815   5.564  18.926  0.00  0.00    +0.000 C 
BRANCH   6   8
ATOM      8  C   UNL     1       4.740   3.975  19.307  0.00  0.00    +0.000 C 
BRANCH   8   9
ATOM      9  N   UNL     1       5.916   4.644  18.795  0.00  0.00    +0.000 N 
ATOM     10  C   UNL     1       6.384   4.643  17.519  0.00  0.00    +0.000 A 
ATOM     11  N   UNL     1       7.499   5.333  17.460  0.00  0.00    +0.000 NA
ATOM     12  C   UNL     1       7.677   5.736  18.753  0.00  0.00    +0.000 A 
ATOM     13  N   UNL     1       6.733   5.338  19.609  0.00  0.00    +0.000 NA
ENDBRANCH   8   9
ENDBRANCH   6   8
ENDBRANCH   1   2
BRANCH   1  14
ATOM     14  C   UNL     1       1.935   7.960  19.714  0.00  0.00    +0.000 C 
BRANCH  14  15
ATOM     15  N   UNL     1       1.091   9.141  19.951  0.00  0.00    +0.000 NA
ATOM     16  H   UNL     1       0.130   8.948  20.233  0.00  0.00    +0.000 HD
BRANCH  15  18
ATOM     17  O   UNL     1       1.620  11.525  19.258  0.00  0.00    +0.000 OA
ATOM     18  S   UNL     1       1.132  10.288  18.689  0.00  0.00    +0.000 S 
ATOM     19  O   UNL     1       1.746   9.663  17.538  0.00  0.00    +0.000 OA
BRANCH  18  20
ATOM     20  C   UNL     1      -0.601  10.514  18.351  0.00  0.00    +0.000 A 
ATOM     21  C   UNL     1      -1.304  11.475  19.082  0.00  0.00    +0.000 A 
ATOM     22  C   UNL     1      -2.671  11.641  18.867  0.00  0.00    +0.000 A 
ATOM     23  C   UNL     1      -3.325  10.861  17.912  0.00  0.00    +0.000 A 
ATOM     24  C   UNL     1      -2.615   9.914  17.170  0.00  0.00    +0.000 A 
ATOM     25  C   UNL     1      -1.248   9.734  17.386  0.00  0.00    +0.000 A 
ENDBRANCH  18  20
ENDBRANCH  15  18
ENDBRANCH  14  15
ENDBRANCH   1  14
TORSDOF 7
ENDMDL
MODEL 2
REMARK VINA RESULT:      -7.0      2.060      3.723
REMARK  Name = 
REMARK  7 active torsions:
REMARK  status: ('A' for Active; 'I' for Inactive)
REMARK    1  A    between atoms: S_2  and  N_4
REMARK    2  A    between atoms: S_2  and  C_19
REMARK    3  A    between atoms: N_4  and  C_5
REMARK    4  A    between atoms: C_5  and  C_6
REMARK    5  A    between atoms: C_6  and  N_7
REMARK    6  A    between atoms: C_11  and  C_12
REMARK    7  A    between atoms: C_12  and  N_13
REMARK                            x       y       z     vdW  Elec       q    Type
REMARK                         _______ _______ _______ _____ _____    ______ ____
ROOT
ATOM      1  C   UNL     1       3.548   7.855  17.731  0.00  0.00    +0.000 C 
ENDROOT
BRANCH   1   2
ATOM      2  N   UNL     1       3.958   6.554  17.142  0.00  0.00    +0.000 NA
ATOM      3  C   UNL     1       5.047   6.734  16.164  0.00  0.00    +0.000 C 
ATOM      4  C   UNL     1       5.512   5.421  15.545  0.00  0.00    +0.000 C 
ATOM      5  C   UNL     1       5.892   4.423  16.634  0.00  0.00    +0.000 C 
ATOM      6  C   UNL     1       4.741   4.221  17.632  0.00  0.00    +0.000 C 
ATOM      7  C   UNL     1       4.319   5.587  18.195  0.00  0.00    +0.000 C 
BRANCH   6   8
ATOM      8  C   UNL     1       3.528   3.488  17.036  0.00  0.00    +0.000 C 
BRANCH   8   9
ATOM      9  N   UNL     1       2.571   3.042  18.025  0.00  0.00    +0.000 N 
ATOM     10  C   UNL     1       2.801   2.254  19.109  0.00  0.00    +0.000 A 
ATOM     11  N   UNL     1       1.672   2.040  19.743  0.00  0.00    +0.000 NA
ATOM     12  C   UNL     1       0.763   2.726  18.988  0.00  0.00    +0.000 A 
ATOM     13  N   UNL     1       1.267   3.356  17.924  0.00  0.00    +0.000 NA
ENDBRANCH   8   9
ENDBRANCH   6   8
ENDBRANCH   1   2
BRANCH   1  14
ATOM     14  C   UNL     1       2.026   8.037  17.899  0.00  0.00    +0.000 C 
BRANCH  14  15
ATOM     15  N   UNL     1       1.563   9.377  17.509  0.00  0.00    +0.000 NA
ATOM     16  H   UNL     1       2.199   9.910  16.917  0.00  0.00    +0.000 HD
BRANCH  15  18
ATOM     17  O   UNL     1       1.049   9.488  19.992  0.00  0.00    +0.000 OA
ATOM     18  S   UNL     1       1.014  10.328  18.815  0.00  0.00    +0.000 S 
ATOM     19  O   UNL     1       1.685  11.608  18.750  0.00  0.00    +0.000 OA
BRANCH  18  20
ATOM     20  C   UNL     1      -0.699  10.567  18.392  0.00  0.00    +0.000 A 
ATOM     21  C   UNL     1      -1.431  11.530  19.092  0.00  0.00    +0.000 A 
ATOM     22  C   UNL     1      -2.784  11.706  18.810  0.00  0.00    +0.000 A 
ATOM     23  C   UNL     1      -3.395  10.934  17.821  0.00  0.00    +0.000 A 
ATOM     24  C   UNL     1      -2.656   9.985  17.111  0.00  0.00    +0.000 A 
ATOM     25  C   UNL     1      -1.302   9.796  17.394  0.00  0.00    +0.000 A 
ENDBRANCH  18  20
ENDBRANCH  15  18
ENDBRANCH  14  15
ENDBRANCH   1  14
TORSDOF 7
ENDMDL
MODEL 3
REMARK VINA RESULT:      -6.9      2.389      2.731
REMARK  Name = 
REMARK  7 active torsions:
REMARK  status: ('A' for Active; 'I' for Inactive)
REMARK    1  A    between atoms: S_2  and  N_4
REMARK    2  A    between atoms: S_2  and  C_19
REMARK    3  A    between atoms: N_4  and  C_5
REMARK    4  A    between atoms: C_5  and  C_6
REMARK    5  A    between atoms: C_6  and  N_7
REMARK    6  A    between atoms: C_11  and  C_12
REMARK    7  A    between atoms: C_12  and  N_13
REMARK                            x       y       z     vdW  Elec       q    Type
REMARK                         _______ _______ _______ _____ _____    ______ ____
ROOT
ATOM      1  C   UNL     1       2.387   6.863  19.787  0.00  0.00    +0.000 C 
ENDROOT
BRANCH   1   2
ATOM      2  N   UNL     1       2.511   5.422  19.450  0.00  0.00    +0.000 NA
ATOM      3  C   UNL     1       1.488   4.623  20.149  0.00  0.00    +0.000 C 
ATOM      4  C   UNL     1       1.567   3.137  19.818  0.00  0.00    +0.000 C 
ATOM      5  C   UNL     1       1.516   2.922  18.310  0.00  0.00    +0.000 C 
ATOM      6  C   UNL     1       2.604   3.736  17.593  0.00  0.00    +0.000 C 
ATOM      7  C   UNL     1       2.469   5.214  17.990  0.00  0.00    +0.000 C 
BRANCH   6   8
ATOM      8  C   UNL     1       4.032   3.236  17.867  0.00  0.00    +0.000 C 
BRANCH   8   9
ATOM      9  N   UNL     1       5.057   3.988  17.177  0.00  0.00    +0.000 N 
ATOM     10  C   UNL     1       6.098   4.672  17.724  0.00  0.00    +0.000 A 
ATOM     11  N   UNL     1       6.786   5.257  16.772  0.00  0.00    +0.000 NA
ATOM     12  C   UNL     1       6.108   4.900  15.641  0.00  0.00    +0.000 A 
ATOM     13  N   UNL     1       5.041   4.122  15.838  0.00  0.00    +0.000 NA
ENDBRANCH   8   9
ENDBRANCH   6   8
ENDBRANCH   1   2
BRANCH   1  14
ATOM     14  C   UNL     1       1.395   7.178  20.925  0.00  0.00    +0.000 C 
BRANCH  14  15
ATOM     15  N   UNL     1       1.638   8.486  21.552  0.00  0.00    +0.000 NA
ATOM     16  H   UNL     1       2.406   8.519  22.222  0.00  0.00    +0.000 HD
BRANCH  15  18
ATOM     17  O   UNL     1      -0.833   8.250  22.082  0.00  0.00    +0.000 OA
ATOM     18  S   UNL     1       0.239   9.214  22.201  0.00  0.00    +0.000 S 
ATOM     19  O   UNL     1       0.598   9.830  23.459  0.00  0.00    +0.000 OA
BRANCH  18  20
ATOM     20  C   UNL     1      -0.080  10.502  21.013  0.00  0.00    +0.000 A 
ATOM     21  C   UNL     1      -1.025  11.483  21.330  0.00  0.00    +0.000 A 
ATOM     22  C   UNL     1      -1.324  12.476  20.400  0.00  0.00    +0.000 A 
ATOM     23  C   UNL     1      -0.669  12.497  19.168  0.00  0.00    +0.000 A 
ATOM     24  C   UNL     1       0.287  11.525  18.862  0.00  0.00    +0.000 A 
ATOM     25  C   UNL     1       0.586  10.521  19.784  0.00  0.00    +0.000 A 
ENDBRANCH  18  20
ENDBRANCH  15  18
ENDBRANCH  14  15
ENDBRANCH   1  14
TORSDOF 7
ENDMDL
MODEL 4
REMARK VINA RESULT:      -6.8      2.709      2.901
REMARK  Name = 
REMARK  7 active torsions:
REMARK  status: ('A' for Active; 'I' for Inactive)
REMARK    1  A    between atoms: S_2  and  N_4
REMARK    2  A    between atoms: S_2  and  C_19
REMARK    3  A    between atoms: N_4  and  C_5
REMARK    4  A    between atoms: C_5  and  C_6
REMARK    5  A    between atoms: C_6  and  N_7
REMARK    6  A    between atoms: C_11  and  C_12
REMARK    7  A    between atoms: C_12  and  N_13
REMARK                            x       y       z     vdW  Elec       q    Type
REMARK                         _______ _______ _______ _____ _____    ______ ____
ROOT
ATOM      1  C   UNL     1       2.441   6.998  20.030  0.00  0.00    +0.000 C 
ENDROOT
BRANCH   1   2
ATOM      2  N   UNL     1       2.412   5.529  19.811  0.00  0.00    +0.000 NA
ATOM      3  C   UNL     1       1.272   4.910  20.511  0.00  0.00    +0.000 C 
ATOM      4  C   UNL     1       1.193   3.402  20.300  0.00  0.00    +0.000 C 
ATOM      5  C   UNL     1       1.186   3.071  18.812  0.00  0.00    +0.000 C 
ATOM      6  C   UNL     1       2.393   3.697  18.095  0.00  0.00    +0.000 C 
ATOM      7  C   UNL     1       2.413   5.209  18.371  0.00  0.00    +0.000 C 
BRANCH   6   8
ATOM      8  C   UNL     1       3.739   3.063  18.485  0.00  0.00    +0.000 C 
BRANCH   8   9
ATOM      9  N   UNL     1       4.889   3.759  17.950  0.00  0.00    +0.000 N 
ATOM     10  C   UNL     1       5.202   3.967  16.643  0.00  0.00    +0.000 A 
ATOM     11  N   UNL     1       6.345   4.606  16.562  0.00  0.00    +0.000 NA
ATOM     12  C   UNL     1       6.701   4.762  17.872  0.00  0.00    +0.000 A 
ATOM     13  N   UNL     1       5.840   4.259  18.760  0.00  0.00    +0.000 NA
ENDBRANCH   8   9
ENDBRANCH   6   8
ENDBRANCH   1   2
BRANCH   1  14
ATOM     14  C   UNL     1       1.223   7.562  20.789  0.00  0.00    +0.000 C 
BRANCH  14  15
ATOM     15  N   UNL     1       1.584   8.624  21.742  0.00  0.00    +0.000 NA
ATOM     16  H   UNL     1       2.343   8.401  22.385  0.00  0.00    +0.000 HD
BRANCH  15  18
ATOM     17  O   UNL     1      -0.883   8.429  22.308  0.00  0.00    +0.000 OA
ATOM     18  S   UNL     1       0.253   9.283  22.580  0.00  0.00    +0.000 S 
ATOM     19  O   UNL     1       0.684   9.601  23.924  0.00  0.00    +0.000 OA
BRANCH  18  20
ATOM     20  C   UNL     1      -0.012  10.806  21.697  0.00  0.00    +0.000 A 
ATOM     21  C   UNL     1      -1.159  11.552  21.983  0.00  0.00    +0.000 A 
ATOM     22  C   UNL     1      -1.411  12.726  21.275  0.00  0.00    +0.000 A 
ATOM     23  C   UNL     1      -0.510  13.156  20.299  0.00  0.00    +0.000 A 
ATOM     24  C   UNL     1       0.643  12.417  20.029  0.00  0.00    +0.000 A 
ATOM     25  C   UNL     1       0.899  11.236  20.727  0.00  0.00    +0.000 A 
ENDBRANCH  18  20
ENDBRANCH  15  18
ENDBRANCH  14  15
ENDBRANCH   1  14
TORSDOF 7
ENDMDL
MODEL 5
REMARK VINA RESULT:      -6.8      1.930      3.549
REMARK  Name = 
REMARK  7 active torsions:
REMARK  status: ('A' for Active; 'I' for Inactive)
REMARK    1  A    between atoms: S_2  and  N_4
REMARK    2  A    between atoms: S_2  and  C_19
REMARK    3  A    between atoms: N_4  and  C_5
REMARK    4  A    between atoms: C_5  and  C_6
REMARK    5  A    between atoms: C_6  and  N_7
REMARK    6  A    between atoms: C_11  and  C_12
REMARK    7  A    between atoms: C_12  and  N_13
REMARK                            x       y       z     vdW  Elec       q    Type
REMARK                         _______ _______ _______ _____ _____    ______ ____
ROOT
ATOM      1  C   UNL     1       2.182   7.270  17.973  0.00  0.00    +0.000 C 
ENDROOT
BRANCH   1   2
ATOM      2  N   UNL     1       3.324   6.321  17.918  0.00  0.00    +0.000 NA
ATOM      3  C   UNL     1       4.499   6.941  17.277  0.00  0.00    +0.000 C 
ATOM      4  C   UNL     1       5.702   6.007  17.215  0.00  0.00    +0.000 C 
ATOM      5  C   UNL     1       6.035   5.470  18.603  0.00  0.00    +0.000 C 
ATOM      6  C   UNL     1       4.812   4.802  19.251  0.00  0.00    +0.000 C 
ATOM      7  C   UNL     1       3.641   5.797  19.260  0.00  0.00    +0.000 C 
BRANCH   6   8
ATOM      8  C   UNL     1       4.394   3.488  18.571  0.00  0.00    +0.000 C 
BRANCH   8   9
ATOM      9  N   UNL     1       3.092   3.007  18.981  0.00  0.00    +0.000 N 
ATOM     10  C   UNL     1       1.997   2.802  18.201  0.00  0.00    +0.000 A 
ATOM     11  N   UNL     1       0.996   2.399  18.948  0.00  0.00    +0.000 NA
ATOM     12  C   UNL     1       1.539   2.380  20.201  0.00  0.00    +0.000 A 
ATOM     13  N   UNL     1       2.821   2.745  20.272  0.00  0.00    +0.000 NA
ENDBRANCH   8   9
ENDBRANCH   6   8
ENDBRANCH   1   2
BRANCH   1  14
ATOM     14  C   UNL     1       2.577   8.760  17.907  0.00  0.00    +0.000 C 
BRANCH  14  15
ATOM     15  N   UNL     1       1.455   9.633  17.531  0.00  0.00    +0.000 NA
ATOM     16  H   UNL     1       1.600  10.206  16.699  0.00  0.00    +0.000 HD
BRANCH  15  18
ATOM     17  O   UNL     1       0.950   9.773  20.014  0.00  0.00    +0.000 OA
ATOM     18  S   UNL     1       0.849  10.577  18.816  0.00  0.00    +0.000 S 
ATOM     19  O   UNL     1       1.430  11.898  18.713  0.00  0.00    +0.000 OA
BRANCH  18  20
ATOM     20  C   UNL     1      -0.878  10.687  18.401  0.00  0.00    +0.000 A 
ATOM     21  C   UNL     1      -1.385   9.827  17.421  0.00  0.00    +0.000 A 
ATOM     22  C   UNL     1      -2.724   9.923  17.047  0.00  0.00    +0.000 A 
ATOM     23  C   UNL     1      -3.553  10.861  17.663  0.00  0.00    +0.000 A 
ATOM     24  C   UNL     1      -3.048  11.705  18.654  0.00  0.00    +0.000 A 
ATOM     25  C   UNL     1      -1.705  11.623  19.028  0.00  0.00    +0.000 A 
ENDBRANCH  18  20
ENDBRANCH  15  18
ENDBRANCH  14  15
ENDBRANCH   1  14
TORSDOF 7
ENDMDL
MODEL 6
REMARK VINA RESULT:      -6.7      6.642      9.583
REMARK  Name = 
REMARK  7 active torsions:
REMARK  status: ('A' for Active; 'I' for Inactive)
REMARK    1  A    between atoms: S_2  and  N_4
REMARK    2  A    between atoms: S_2  and  C_19
REMARK    3  A    between atoms: N_4  and  C_5
REMARK    4  A    between atoms: C_5  and  C_6
REMARK    5  A    between atoms: C_6  and  N_7
REMARK    6  A    between atoms: C_11  and  C_12
REMARK    7  A    between atoms: C_12  and  N_13
REMARK                            x       y       z     vdW  Elec       q    Type
REMARK                         _______ _______ _______ _____ _____    ______ ____
ROOT
ATOM      1  C   UNL     1       8.351   9.242  17.547  0.00  0.00    +0.000 C 
ENDROOT
BRANCH   1   2
ATOM      2  N   UNL     1       8.824  10.376  18.382  0.00  0.00    +0.000 NA
ATOM      3  C   UNL     1       9.057   9.950  19.775  0.00  0.00    +0.000 C 
ATOM      4  C   UNL     1       9.560  11.080  20.665  0.00  0.00    +0.000 C 
ATOM      5  C   UNL     1      10.802  11.725  20.058  0.00  0.00    +0.000 C 
ATOM      6  C   UNL     1      10.541  12.191  18.618  0.00  0.00    +0.000 C 
ATOM      7  C   UNL     1      10.021  11.005  17.791  0.00  0.00    +0.000 C 
BRANCH   6   8
ATOM      8  C   UNL     1       9.570  13.380  18.519  0.00  0.00    +0.000 C 
BRANCH   8   9
ATOM      9  N   UNL     1      10.193  14.608  18.077  0.00  0.00    +0.000 N 
ATOM     10  C   UNL     1      10.009  15.861  18.573  0.00  0.00    +0.000 A 
ATOM     11  N   UNL     1      10.723  16.717  17.880  0.00  0.00    +0.000 NA
ATOM     12  C   UNL     1      11.332  15.923  16.950  0.00  0.00    +0.000 A 
ATOM     13  N   UNL     1      11.039  14.623  17.030  0.00  0.00    +0.000 NA
ENDBRANCH   8   9
ENDBRANCH   6   8
ENDBRANCH   1   2
BRANCH   1  14
ATOM     14  C   UNL     1       8.195   7.906  18.301  0.00  0.00    +0.000 C 
BRANCH  14  15
ATOM     15  N   UNL     1       7.428   6.906  17.542  0.00  0.00    +0.000 NA
ATOM     16  H   UNL     1       6.488   7.187  17.265  0.00  0.00    +0.000 HD
BRANCH  15  18
ATOM     17  O   UNL     1       8.086   4.462  17.344  0.00  0.00    +0.000 OA
ATOM     18  S   UNL     1       7.410   5.357  18.258  0.00  0.00    +0.000 S 
ATOM     19  O   UNL     1       7.804   5.500  19.642  0.00  0.00    +0.000 OA
BRANCH  18  20
ATOM     20  C   UNL     1       5.677   4.954  18.202  0.00  0.00    +0.000 A 
ATOM     21  C   UNL     1       4.858   5.387  19.249  0.00  0.00    +0.000 A 
ATOM     22  C   UNL     1       3.506   5.047  19.251  0.00  0.00    +0.000 A 
ATOM     23  C   UNL     1       2.976   4.295  18.202  0.00  0.00    +0.000 A 
ATOM     24  C   UNL     1       3.795   3.880  17.149  0.00  0.00    +0.000 A 
ATOM     25  C   UNL     1       5.152   4.208  17.144  0.00  0.00    +0.000 A 
ENDBRANCH  18  20
ENDBRANCH  15  18
ENDBRANCH  14  15
ENDBRANCH   1  14
TORSDOF 7
ENDMDL
MODEL 7
REMARK VINA RESULT:      -6.7      1.518      1.968
REMARK  Name = 
REMARK  7 active torsions:
REMARK  status: ('A' for Active; 'I' for Inactive)
REMARK    1  A    between atoms: S_2  and  N_4
REMARK    2  A    between atoms: S_2  and  C_19
REMARK    3  A    between atoms: N_4  and  C_5
REMARK    4  A    between atoms: C_5  and  C_6
REMARK    5  A    between atoms: C_6  and  N_7
REMARK    6  A    between atoms: C_11  and  C_12
REMARK    7  A    between atoms: C_12  and  N_13
REMARK                            x       y       z     vdW  Elec       q    Type
REMARK                         _______ _______ _______ _____ _____    ______ ____
ROOT
ATOM      1  C   UNL     1       2.185   7.554  18.101  0.00  0.00    +0.000 C 
ENDROOT
BRANCH   1   2
ATOM      2  N   UNL     1       2.949   6.405  18.652  0.00  0.00    +0.000 NA
ATOM      3  C   UNL     1       2.296   5.863  19.858  0.00  0.00    +0.000 C 
ATOM      4  C   UNL     1       3.038   4.669  20.449  0.00  0.00    +0.000 C 
ATOM      5  C   UNL     1       3.248   3.593  19.389  0.00  0.00    +0.000 C 
ATOM      6  C   UNL     1       3.954   4.162  18.149  0.00  0.00    +0.000 C 
ATOM      7  C   UNL     1       3.158   5.368  17.625  0.00  0.00    +0.000 C 
BRANCH   6   8
ATOM      8  C   UNL     1       5.420   4.554  18.398  0.00  0.00    +0.000 C 
BRANCH   8   9
ATOM      9  N   UNL     1       6.173   4.798  17.187  0.00  0.00    +0.000 N 
ATOM     10  C   UNL     1       7.001   5.843  16.917  0.00  0.00    +0.000 A 
ATOM     11  N   UNL     1       7.468   5.729  15.696  0.00  0.00    +0.000 NA
ATOM     12  C   UNL     1       6.880   4.579  15.250  0.00  0.00    +0.000 A 
ATOM     13  N   UNL     1       6.077   3.973  16.128  0.00  0.00    +0.000 NA
ENDBRANCH   8   9
ENDBRANCH   6   8
ENDBRANCH   1   2
BRANCH   1  14
ATOM     14  C   UNL     1       1.824   8.644  19.131  0.00  0.00    +0.000 C 
BRANCH  14  15
ATOM     15  N   UNL     1       1.220   9.836  18.516  0.00  0.00    +0.000 NA
ATOM     16  H   UNL     1       1.876  10.519  18.137  0.00  0.00    +0.000 HD
BRANCH  15  18
ATOM     17  O   UNL     1      -0.286   9.676  20.553  0.00  0.00    +0.000 OA
ATOM     18  S   UNL     1       0.047  10.600  19.491  0.00  0.00    +0.000 S 
ATOM     19  O   UNL     1       0.491  11.953  19.746  0.00  0.00    +0.000 OA
BRANCH  18  20
ATOM     20  C   UNL     1      -1.351  10.662  18.391  0.00  0.00    +0.000 A 
ATOM     21  C   UNL     1      -2.380  11.567  18.670  0.00  0.00    +0.000 A 
ATOM     22  C   UNL     1      -3.505  11.604  17.849  0.00  0.00    +0.000 A 
ATOM     23  C   UNL     1      -3.590  10.753  16.746  0.00  0.00    +0.000 A 
ATOM     24  C   UNL     1      -2.553   9.864  16.460  0.00  0.00    +0.000 A 
ATOM     25  C   UNL     1      -1.426   9.813  17.283  0.00  0.00    +0.000 A 
ENDBRANCH  18  20
ENDBRANCH  15  18
ENDBRANCH  14  15
ENDBRANCH   1  14
TORSDOF 7
ENDMDL
MODEL 8
REMARK VINA RESULT:      -6.7      1.293      1.872
REMARK  Name = 
REMARK  7 active torsions:
REMARK  status: ('A' for Active; 'I' for Inactive)
REMARK    1  A    between atoms: S_2  and  N_4
REMARK    2  A    between atoms: S_2  and  C_19
REMARK    3  A    between atoms: N_4  and  C_5
REMARK    4  A    between atoms: C_5  and  C_6
REMARK    5  A    between atoms: C_6  and  N_7
REMARK    6  A    between atoms: C_11  and  C_12
REMARK    7  A    between atoms: C_12  and  N_13
REMARK                            x       y       z     vdW  Elec       q    Type
REMARK                         _______ _______ _______ _____ _____    ______ ____
ROOT
ATOM      1  C   UNL     1       2.558   7.823  18.122  0.00  0.00    +0.000 C 
ENDROOT
BRANCH   1   2
ATOM      2  N   UNL     1       2.835   6.563  18.859  0.00  0.00    +0.000 NA
ATOM      3  C   UNL     1       1.892   6.385  19.978  0.00  0.00    +0.000 C 
ATOM      4  C   UNL     1       2.128   5.093  20.753  0.00  0.00    +0.000 C 
ATOM      5  C   UNL     1       2.117   3.895  19.811  0.00  0.00    +0.000 C 
ATOM      6  C   UNL     1       3.122   4.078  18.663  0.00  0.00    +0.000 C 
ATOM      7  C   UNL     1       2.831   5.405  17.946  0.00  0.00    +0.000 C 
BRANCH   6   8
ATOM      8  C   UNL     1       4.591   4.024  19.115  0.00  0.00    +0.000 C 
BRANCH   8   9
ATOM      9  N   UNL     1       5.540   4.195  18.037  0.00  0.00    +0.000 N 
ATOM     10  C   UNL     1       5.372   3.885  16.723  0.00  0.00    +0.000 A 
ATOM     11  N   UNL     1       6.476   4.151  16.065  0.00  0.00    +0.000 NA
ATOM     12  C   UNL     1       7.307   4.622  17.040  0.00  0.00    +0.000 A 
ATOM     13  N   UNL     1       6.779   4.668  18.266  0.00  0.00    +0.000 NA
ENDBRANCH   8   9
ENDBRANCH   6   8
ENDBRANCH   1   2
BRANCH   1  14
ATOM     14  C   UNL     1       1.700   8.847  18.892  0.00  0.00    +0.000 C 
BRANCH  14  15
ATOM     15  N   UNL     1       1.273   9.980  18.057  0.00  0.00    +0.000 NA
ATOM     16  H   UNL     1       1.987  10.371  17.443  0.00  0.00    +0.000 HD
BRANCH  15  18
ATOM     17  O   UNL     1       0.521  10.850  20.320  0.00  0.00    +0.000 OA
ATOM     18  S   UNL     1       0.477  11.217  18.922  0.00  0.00    +0.000 S 
ATOM     19  O   UNL     1       0.964  12.488  18.434  0.00  0.00    +0.000 OA
BRANCH  18  20
ATOM     20  C   UNL     1      -1.206  11.011  18.379  0.00  0.00    +0.000 A 
ATOM     21  C   UNL     1      -1.484  10.023  17.429  0.00  0.00    +0.000 A 
ATOM     22  C   UNL     1      -2.786   9.871  16.956  0.00  0.00    +0.000 A 
ATOM     23  C   UNL     1      -3.804  10.691  17.444  0.00  0.00    +0.000 A 
ATOM     24  C   UNL     1      -3.525  11.664  18.405  0.00  0.00    +0.000 A 
ATOM     25  C   UNL     1      -2.223  11.830  18.878  0.00  0.00    +0.000 A 
ENDBRANCH  18  20
ENDBRANCH  15  18
ENDBRANCH  14  15
ENDBRANCH   1  14
TORSDOF 7
ENDMDL
MODEL 9
REMARK VINA RESULT:      -6.6      1.583      2.021
REMARK  Name = 
REMARK  7 active torsions:
REMARK  status: ('A' for Active; 'I' for Inactive)
REMARK    1  A    between atoms: S_2  and  N_4
REMARK    2  A    between atoms: S_2  and  C_19
REMARK    3  A    between atoms: N_4  and  C_5
REMARK    4  A    between atoms: C_5  and  C_6
REMARK    5  A    between atoms: C_6  and  N_7
REMARK    6  A    between atoms: C_11  and  C_12
REMARK    7  A    between atoms: C_12  and  N_13
REMARK                            x       y       z     vdW  Elec       q    Type
REMARK                         _______ _______ _______ _____ _____    ______ ____
ROOT
ATOM      1  C   UNL     1       1.661   7.980  20.633  0.00  0.00    +0.000 C 
ENDROOT
BRANCH   1   2
ATOM      2  N   UNL     1       2.449   6.915  19.960  0.00  0.00    +0.000 NA
ATOM      3  C   UNL     1       1.943   5.576  20.317  0.00  0.00    +0.000 C 
ATOM      4  C   UNL     1       2.712   4.450  19.634  0.00  0.00    +0.000 C 
ATOM      5  C   UNL     1       2.736   4.659  18.124  0.00  0.00    +0.000 C 
ATOM      6  C   UNL     1       3.289   6.046  17.761  0.00  0.00    +0.000 C 
ATOM      7  C   UNL     1       2.477   7.121  18.500  0.00  0.00    +0.000 C 
BRANCH   6   8
ATOM      8  C   UNL     1       4.790   6.209  18.058  0.00  0.00    +0.000 C 
BRANCH   8   9
ATOM      9  N   UNL     1       5.650   5.630  17.050  0.00  0.00    +0.000 N 
ATOM     10  C   UNL     1       6.815   4.953  17.240  0.00  0.00    +0.000 A 
ATOM     11  N   UNL     1       7.322   4.618  16.076  0.00  0.00    +0.000 NA
ATOM     12  C   UNL     1       6.417   5.130  15.190  0.00  0.00    +0.000 A 
ATOM     13  N   UNL     1       5.375   5.759  15.739  0.00  0.00    +0.000 NA
ENDBRANCH   8   9
ENDBRANCH   6   8
ENDBRANCH   1   2
BRANCH   1  14
ATOM     14  C   UNL     1       1.203   9.126  19.709  0.00  0.00    +0.000 C 
BRANCH  14  15
ATOM     15  N   UNL     1      -0.163   9.587  20.001  0.00  0.00    +0.000 NA
ATOM     16  H   UNL     1      -0.913   8.966  19.697  0.00  0.00    +0.000 HD
BRANCH  15  18
ATOM     17  O   UNL     1      -1.059  11.871  20.649  0.00  0.00    +0.000 OA
ATOM     18  S   UNL     1      -0.472  11.192  19.514  0.00  0.00    +0.000 S 
ATOM     19  O   UNL     1       0.704  11.687  18.832  0.00  0.00    +0.000 OA
BRANCH  18  20
ATOM     20  C   UNL     1      -1.766  10.962  18.314  0.00  0.00    +0.000 A 
ATOM     21  C   UNL     1      -2.940  11.710  18.446  0.00  0.00    +0.000 A 
ATOM     22  C   UNL     1      -3.985  11.517  17.545  0.00  0.00    +0.000 A 
ATOM     23  C   UNL     1      -3.847  10.593  16.507  0.00  0.00    +0.000 A 
ATOM     24  C   UNL     1      -2.666   9.861  16.368  0.00  0.00    +0.000 A 
ATOM     25  C   UNL     1      -1.618  10.042  17.272  0.00  0.00    +0.000 A 
ENDBRANCH  18  20
ENDBRANCH  15  18
ENDBRANCH  14  15
ENDBRANCH   1  14
TORSDOF 7
ENDMDL
