MODEL 1
REMARK VINA RESULT:      -6.4      0.000      0.000
REMARK  Name = 
REMARK  2 active torsions:
REMARK  status: ('A' for Active; 'I' for Inactive)
REMARK    1  A    between atoms: C_4  and  C_5
REMARK    2  A    between atoms: C_7  and  C_8
REMARK                            x       y       z     vdW  Elec       q    Type
REMARK                         _______ _______ _______ _____ _____    ______ ____
ROOT
ATOM      1  C   UNL     1       3.723   4.894  17.687  0.00  0.00    +0.000 C 
ATOM      2  C   UNL     1       4.416   4.120  16.592  0.00  0.00    +0.000 C 
ATOM      3  C   UNL     1       5.150   4.408  17.874  0.00  0.00    +0.000 C 
ENDROOT
BRANCH   1   7
ATOM      4  C   UNL     1       0.588   3.010  20.022  0.00  0.00    +0.000 A 
ATOM      5  C   UNL     1       1.219   4.158  20.492  0.00  0.00    +0.000 A 
ATOM      6  C   UNL     1       2.215   4.769  19.728  0.00  0.00    +0.000 A 
ATOM      7  C   UNL     1       2.617   4.243  18.488  0.00  0.00    +0.000 A 
ATOM      8  C   UNL     1       1.949   3.098  18.026  0.00  0.00    +0.000 A 
ATOM      9  C   UNL     1       0.947   2.483  18.783  0.00  0.00    +0.000 A 
ENDBRANCH   1   7
BRANCH   3  10
ATOM     10  C   UNL     1       6.268   5.356  17.888  0.00  0.00    +0.000 C 
ATOM     11  N   UNL     1       6.283   6.423  17.146  0.00  0.00    +0.000 NA
ATOM     12  C   UNL     1       7.564   7.082  17.552  0.00  0.00    +0.000 C 
ATOM     13  C   UNL     1       8.002   6.403  18.860  0.00  0.00    +0.000 C 
ATOM     14  N   UNL     1       7.287   5.151  18.771  0.00  0.00    +0.000 N 
ATOM     15  H   UNL     1       7.067   4.664  19.631  0.00  0.00    +0.000 HD
ENDBRANCH   3  10
TORSDOF 2
ENDMDL
MODEL 2
REMARK VINA RESULT:      -6.4      0.052      1.285
REMARK  Name = 
REMARK  2 active torsions:
REMARK  status: ('A' for Active; 'I' for Inactive)
REMARK    1  A    between atoms: C_4  and  C_5
REMARK    2  A    between atoms: C_7  and  C_8
REMARK                            x       y       z     vdW  Elec       q    Type
REMARK                         _______ _______ _______ _____ _____    ______ ____
ROOT
ATOM      1  C   UNL     1       3.734   4.912  17.718  0.00  0.00    +0.000 C 
ATOM      2  C   UNL     1       4.409   4.154  16.601  0.00  0.00    +0.000 C 
ATOM      3  C   UNL     1       5.167   4.429  17.872  0.00  0.00    +0.000 C 
ENDROOT
BRANCH   1   7
ATOM      4  C   UNL     1       0.575   3.026  20.017  0.00  0.00    +0.000 A 
ATOM      5  C   UNL     1       0.931   2.521  18.770  0.00  0.00    +0.000 A 
ATOM      6  C   UNL     1       1.961   3.123  18.043  0.00  0.00    +0.000 A 
ATOM      7  C   UNL     1       2.646   4.248  18.532  0.00  0.00    +0.000 A 
ATOM      8  C   UNL     1       2.283   4.723  19.802  0.00  0.00    +0.000 A 
ATOM      9  C   UNL     1       1.257   4.123  20.539  0.00  0.00    +0.000 A 
ENDBRANCH   1   7
BRANCH   3  10
ATOM     10  C   UNL     1       6.282   5.380  17.876  0.00  0.00    +0.000 C 
ATOM     11  N   UNL     1       6.304   6.428  17.106  0.00  0.00    +0.000 NA
ATOM     12  C   UNL     1       7.577   7.101  17.511  0.00  0.00    +0.000 C 
ATOM     13  C   UNL     1       8.000   6.458  18.842  0.00  0.00    +0.000 C 
ATOM     14  N   UNL     1       7.290   5.202  18.777  0.00  0.00    +0.000 N 
ATOM     15  H   UNL     1       7.060   4.737  19.646  0.00  0.00    +0.000 HD
ENDBRANCH   3  10
TORSDOF 2
ENDMDL
MODEL 3
REMARK VINA RESULT:      -6.3      0.252      1.672
REMARK  Name = 
REMARK  2 active torsions:
REMARK  status: ('A' for Active; 'I' for Inactive)
REMARK    1  A    between atoms: C_4  and  C_5
REMARK    2  A    between atoms: C_7  and  C_8
REMARK                            x       y       z     vdW  Elec       q    Type
REMARK                         _______ _______ _______ _____ _____    ______ ____
ROOT
ATOM      1  C   UNL     1       3.701   4.999  17.907  0.00  0.00    +0.000 C 
ATOM      2  C   UNL     1       4.462   4.337  16.783  0.00  0.00    +0.000 C 
ATOM      3  C   UNL     1       5.142   4.559  18.108  0.00  0.00    +0.000 C 
ENDROOT
BRANCH   1   7
ATOM      4  C   UNL     1       0.505   2.857  19.913  0.00  0.00    +0.000 A 
ATOM      5  C   UNL     1       0.953   2.438  18.664  0.00  0.00    +0.000 A 
ATOM      6  C   UNL     1       1.994   3.122  18.031  0.00  0.00    +0.000 A 
ATOM      7  C   UNL     1       2.600   4.246  18.619  0.00  0.00    +0.000 A 
ATOM      8  C   UNL     1       2.144   4.634  19.889  0.00  0.00    +0.000 A 
ATOM      9  C   UNL     1       1.106   3.951  20.531  0.00  0.00    +0.000 A 
ENDBRANCH   1   7
BRANCH   3  10
ATOM     10  C   UNL     1       6.216   5.549  18.230  0.00  0.00    +0.000 C 
ATOM     11  N   UNL     1       7.219   5.388  19.041  0.00  0.00    +0.000 NA
ATOM     12  C   UNL     1       8.056   6.598  18.764  0.00  0.00    +0.000 C 
ATOM     13  C   UNL     1       7.533   7.191  17.445  0.00  0.00    +0.000 C 
ATOM     14  N   UNL     1       6.201   6.634  17.404  0.00  0.00    +0.000 N 
ATOM     15  H   UNL     1       5.756   6.526  16.502  0.00  0.00    +0.000 HD
ENDBRANCH   3  10
TORSDOF 2
ENDMDL
MODEL 4
REMARK VINA RESULT:      -6.3      0.454      1.138
REMARK  Name = 
REMARK  2 active torsions:
REMARK  status: ('A' for Active; 'I' for Inactive)
REMARK    1  A    between atoms: C_4  and  C_5
REMARK    2  A    between atoms: C_7  and  C_8
REMARK                            x       y       z     vdW  Elec       q    Type
REMARK                         _______ _______ _______ _____ _____    ______ ____
ROOT
ATOM      1  C   UNL     1       3.678   5.372  17.910  0.00  0.00    +0.000 C 
ATOM      2  C   UNL     1       4.352   4.814  16.680  0.00  0.00    +0.000 C 
ATOM      3  C   UNL     1       5.123   4.907  17.969  0.00  0.00    +0.000 C 
ENDROOT
BRANCH   1   7
ATOM      4  C   UNL     1       0.678   3.029  19.991  0.00  0.00    +0.000 A 
ATOM      5  C   UNL     1       1.274   4.118  20.618  0.00  0.00    +0.000 A 
ATOM      6  C   UNL     1       2.227   4.879  19.936  0.00  0.00    +0.000 A 
ATOM      7  C   UNL     1       2.618   4.562  18.624  0.00  0.00    +0.000 A 
ATOM      8  C   UNL     1       1.985   3.472  18.006  0.00  0.00    +0.000 A 
ATOM      9  C   UNL     1       1.026   2.709  18.681  0.00  0.00    +0.000 A 
ENDBRANCH   1   7
BRANCH   3  10
ATOM     10  C   UNL     1       6.216   5.874  18.108  0.00  0.00    +0.000 C 
ATOM     11  N   UNL     1       7.192   5.704  18.949  0.00  0.00    +0.000 NA
ATOM     12  C   UNL     1       8.062   6.891  18.680  0.00  0.00    +0.000 C 
ATOM     13  C   UNL     1       7.590   7.477  17.339  0.00  0.00    +0.000 C 
ATOM     14  N   UNL     1       6.248   6.948  17.268  0.00  0.00    +0.000 N 
ATOM     15  H   UNL     1       5.825   6.837  16.355  0.00  0.00    +0.000 HD
ENDBRANCH   3  10
TORSDOF 2
ENDMDL
MODEL 5
REMARK VINA RESULT:      -6.2      2.483      5.820
REMARK  Name = 
REMARK  2 active torsions:
REMARK  status: ('A' for Active; 'I' for Inactive)
REMARK    1  A    between atoms: C_4  and  C_5
REMARK    2  A    between atoms: C_7  and  C_8
REMARK                            x       y       z     vdW  Elec       q    Type
REMARK                         _______ _______ _______ _____ _____    ______ ____
ROOT
ATOM      1  C   UNL     1       4.145   5.058  18.258  0.00  0.00    +0.000 C 
ATOM      2  C   UNL     1       2.911   5.812  17.823  0.00  0.00    +0.000 C 
ATOM      3  C   UNL     1       3.111   5.499  19.282  0.00  0.00    +0.000 C 
ENDROOT
BRANCH   1   7
ATOM      4  C   UNL     1       8.004   7.040  18.254  0.00  0.00    +0.000 A 
ATOM      5  C   UNL     1       7.759   5.985  19.127  0.00  0.00    +0.000 A 
ATOM      6  C   UNL     1       6.521   5.340  19.112  0.00  0.00    +0.000 A 
ATOM      7  C   UNL     1       5.494   5.741  18.240  0.00  0.00    +0.000 A 
ATOM      8  C   UNL     1       5.774   6.793  17.354  0.00  0.00    +0.000 A 
ATOM      9  C   UNL     1       7.014   7.441  17.360  0.00  0.00    +0.000 A 
ENDBRANCH   1   7
BRANCH   3  10
ATOM     10  C   UNL     1       2.253   4.516  19.950  0.00  0.00    +0.000 C 
ATOM     11  N   UNL     1       1.372   3.810  19.305  0.00  0.00    +0.000 NA
ATOM     12  C   UNL     1       0.812   2.932  20.379  0.00  0.00    +0.000 C 
ATOM     13  C   UNL     1       1.786   3.025  21.565  0.00  0.00    +0.000 C 
ATOM     14  N   UNL     1       2.445   4.278  21.279  0.00  0.00    +0.000 N 
ATOM     15  H   UNL     1       3.376   4.424  21.648  0.00  0.00    +0.000 HD
ENDBRANCH   3  10
TORSDOF 2
ENDMDL
MODEL 6
REMARK VINA RESULT:      -6.2      1.835      2.530
REMARK  Name = 
REMARK  2 active torsions:
REMARK  status: ('A' for Active; 'I' for Inactive)
REMARK    1  A    between atoms: C_4  and  C_5
REMARK    2  A    between atoms: C_7  and  C_8
REMARK                            x       y       z     vdW  Elec       q    Type
REMARK                         _______ _______ _______ _____ _____    ______ ____
ROOT
ATOM      1  C   UNL     1       4.778   4.321  18.129  0.00  0.00    +0.000 C 
ATOM      2  C   UNL     1       5.662   5.512  18.413  0.00  0.00    +0.000 C 
ATOM      3  C   UNL     1       4.966   5.406  17.082  0.00  0.00    +0.000 C 
ENDROOT
BRANCH   1   7
ATOM      4  C   UNL     1       0.959   3.930  20.151  0.00  0.00    +0.000 A 
ATOM      5  C   UNL     1       1.932   4.789  20.651  0.00  0.00    +0.000 A 
ATOM      6  C   UNL     1       3.153   4.923  19.986  0.00  0.00    +0.000 A 
ATOM      7  C   UNL     1       3.438   4.194  18.819  0.00  0.00    +0.000 A 
ATOM      8  C   UNL     1       2.431   3.352  18.322  0.00  0.00    +0.000 A 
ATOM      9  C   UNL     1       1.204   3.216  18.981  0.00  0.00    +0.000 A 
ENDBRANCH   1   7
BRANCH   3  10
ATOM     10  C   UNL     1       5.738   5.145  15.863  0.00  0.00    +0.000 C 
ATOM     11  N   UNL     1       6.969   5.539  15.723  0.00  0.00    +0.000 NA
ATOM     12  C   UNL     1       7.331   4.993  14.377  0.00  0.00    +0.000 C 
ATOM     13  C   UNL     1       6.250   3.958  14.026  0.00  0.00    +0.000 C 
ATOM     14  N   UNL     1       5.169   4.392  14.879  0.00  0.00    +0.000 N 
ATOM     15  H   UNL     1       4.475   3.709  15.157  0.00  0.00    +0.000 HD
ENDBRANCH   3  10
TORSDOF 2
ENDMDL
MODEL 7
REMARK VINA RESULT:      -6.2      1.029      1.263
REMARK  Name = 
REMARK  2 active torsions:
REMARK  status: ('A' for Active; 'I' for Inactive)
REMARK    1  A    between atoms: C_4  and  C_5
REMARK    2  A    between atoms: C_7  and  C_8
REMARK                            x       y       z     vdW  Elec       q    Type
REMARK                         _______ _______ _______ _____ _____    ______ ____
ROOT
ATOM      1  C   UNL     1       3.545   6.104  18.795  0.00  0.00    +0.000 C 
ATOM      2  C   UNL     1       3.370   6.929  17.543  0.00  0.00    +0.000 C 
ATOM      3  C   UNL     1       4.480   5.915  17.612  0.00  0.00    +0.000 C 
ENDROOT
BRANCH   1   7
ATOM      4  C   UNL     1       0.738   2.941  19.765  0.00  0.00    +0.000 A 
ATOM      5  C   UNL     1       1.283   3.728  20.774  0.00  0.00    +0.000 A 
ATOM      6  C   UNL     1       2.173   4.755  20.454  0.00  0.00    +0.000 A 
ATOM      7  C   UNL     1       2.553   5.012  19.125  0.00  0.00    +0.000 A 
ATOM      8  C   UNL     1       1.971   4.219  18.123  0.00  0.00    +0.000 A 
ATOM      9  C   UNL     1       1.075   3.191  18.436  0.00  0.00    +0.000 A 
ENDBRANCH   1   7
BRANCH   3  10
ATOM     10  C   UNL     1       5.877   6.354  17.685  0.00  0.00    +0.000 C 
ATOM     11  N   UNL     1       6.293   7.447  17.116  0.00  0.00    +0.000 NA
ATOM     12  C   UNL     1       7.733   7.493  17.518  0.00  0.00    +0.000 C 
ATOM     13  C   UNL     1       7.893   6.485  18.668  0.00  0.00    +0.000 C 
ATOM     14  N   UNL     1       6.750   5.631  18.443  0.00  0.00    +0.000 N 
ATOM     15  H   UNL     1       6.370   5.123  19.232  0.00  0.00    +0.000 HD
ENDBRANCH   3  10
TORSDOF 2
ENDMDL
MODEL 8
REMARK VINA RESULT:      -6.2      2.501      5.850
REMARK  Name = 
REMARK  2 active torsions:
REMARK  status: ('A' for Active; 'I' for Inactive)
REMARK    1  A    between atoms: C_4  and  C_5
REMARK    2  A    between atoms: C_7  and  C_8
REMARK                            x       y       z     vdW  Elec       q    Type
REMARK                         _______ _______ _______ _____ _____    ______ ____
ROOT
ATOM      1  C   UNL     1       4.068   5.114  18.260  0.00  0.00    +0.000 C 
ATOM      2  C   UNL     1       2.845   5.922  17.900  0.00  0.00    +0.000 C 
ATOM      3  C   UNL     1       3.063   5.505  19.330  0.00  0.00    +0.000 C 
ENDROOT
BRANCH   1   7
ATOM      4  C   UNL     1       7.991   6.967  18.216  0.00  0.00    +0.000 A 
ATOM      5  C   UNL     1       7.001   7.401  17.340  0.00  0.00    +0.000 A 
ATOM      6  C   UNL     1       5.735   6.812  17.371  0.00  0.00    +0.000 A 
ATOM      7  C   UNL     1       5.432   5.768  18.262  0.00  0.00    +0.000 A 
ATOM      8  C   UNL     1       6.440   5.364  19.151  0.00  0.00    +0.000 A 
ATOM      9  C   UNL     1       7.709   5.953  19.129  0.00  0.00    +0.000 A 
ENDBRANCH   1   7
BRANCH   3  10
ATOM     10  C   UNL     1       2.195   4.497  19.946  0.00  0.00    +0.000 C 
ATOM     11  N   UNL     1       1.366   3.776  19.251  0.00  0.00    +0.000 NA
ATOM     12  C   UNL     1       0.771   2.877  20.289  0.00  0.00    +0.000 C 
ATOM     13  C   UNL     1       1.679   2.984  21.525  0.00  0.00    +0.000 C 
ATOM     14  N   UNL     1       2.321   4.255  21.282  0.00  0.00    +0.000 N 
ATOM     15  H   UNL     1       3.228   4.421  21.701  0.00  0.00    +0.000 HD
ENDBRANCH   3  10
TORSDOF 2
ENDMDL
MODEL 9
REMARK VINA RESULT:      -6.2      1.012      1.736
REMARK  Name = 
REMARK  2 active torsions:
REMARK  status: ('A' for Active; 'I' for Inactive)
REMARK    1  A    between atoms: C_4  and  C_5
REMARK    2  A    between atoms: C_7  and  C_8
REMARK                            x       y       z     vdW  Elec       q    Type
REMARK                         _______ _______ _______ _____ _____    ______ ____
ROOT
ATOM      1  C   UNL     1       3.585   5.990  18.931  0.00  0.00    +0.000 C 
ATOM      2  C   UNL     1       3.353   6.948  17.787  0.00  0.00    +0.000 C 
ATOM      3  C   UNL     1       4.446   5.918  17.681  0.00  0.00    +0.000 C 
ENDROOT
BRANCH   1   7
ATOM      4  C   UNL     1       0.697   2.840  19.679  0.00  0.00    +0.000 A 
ATOM      5  C   UNL     1       1.163   3.072  18.389  0.00  0.00    +0.000 A 
ATOM      6  C   UNL     1       2.105   4.076  18.158  0.00  0.00    +0.000 A 
ATOM      7  C   UNL     1       2.592   4.882  19.201  0.00  0.00    +0.000 A 
ATOM      8  C   UNL     1       2.124   4.613  20.497  0.00  0.00    +0.000 A 
ATOM      9  C   UNL     1       1.184   3.605  20.737  0.00  0.00    +0.000 A 
ENDBRANCH   1   7
BRANCH   3  10
ATOM     10  C   UNL     1       5.853   6.327  17.717  0.00  0.00    +0.000 C 
ATOM     11  N   UNL     1       6.289   7.373  17.078  0.00  0.00    +0.000 NA
ATOM     12  C   UNL     1       7.733   7.410  17.466  0.00  0.00    +0.000 C 
ATOM     13  C   UNL     1       7.880   6.473  18.676  0.00  0.00    +0.000 C 
ATOM     14  N   UNL     1       6.716   5.633  18.513  0.00  0.00    +0.000 N 
ATOM     15  H   UNL     1       6.331   5.184  19.334  0.00  0.00    +0.000 HD
ENDBRANCH   3  10
TORSDOF 2
ENDMDL
