MODEL 1
REMARK VINA RESULT:      -9.5      0.000      0.000
REMARK  Name = 
REMARK  5 active torsions:
REMARK  status: ('A' for Active; 'I' for Inactive)
REMARK    1  A    between atoms: C_4  and  C_5
REMARK    2  A    between atoms: C_5  and  C_6
REMARK    3  A    between atoms: C_5  and  C_12
REMARK    4  A    between atoms: N_18  and  C_19
REMARK    5  A    between atoms: C_19  and  C_20
REMARK                            x       y       z     vdW  Elec       q    Type
REMARK                         _______ _______ _______ _____ _____    ______ ____
ROOT
ATOM      1  C   UNL     1       4.030   5.844  18.608  0.00  0.00    +0.000 A 
ATOM      2  N   UNL     1       4.365   5.408  19.843  0.00  0.00    +0.000 NA
ATOM      3  O   UNL     1       5.748   5.409  19.910  0.00  0.00    +0.000 OA
ATOM      4  C   UNL     1       6.229   5.829  18.728  0.00  0.00    +0.000 A 
ATOM      5  C   UNL     1       5.214   6.059  17.836  0.00  0.00    +0.000 A 
ATOM      6  C   UNL     1       5.486   6.486  16.439  0.00  0.00    +0.000 C 
ATOM      7  N   UNL     1       6.915   6.276  16.059  0.00  0.00    +0.000 NA
ATOM      8  C   UNL     1       7.822   6.752  17.144  0.00  0.00    +0.000 C 
ATOM      9  C   UNL     1       7.674   5.991  18.489  0.00  0.00    +0.000 C 
ENDROOT
BRANCH   1  10
ATOM     10  C   UNL     1       2.557   5.964  18.283  0.00  0.00    +0.000 C 
BRANCH  10  14
ATOM     11  C   UNL     1       0.813   2.354  19.982  0.00  0.00    +0.000 A 
ATOM     12  C   UNL     1       1.056   3.470  20.776  0.00  0.00    +0.000 A 
ATOM     13  C   UNL     1       1.553   4.649  20.207  0.00  0.00    +0.000 A 
ATOM     14  C   UNL     1       1.842   4.724  18.831  0.00  0.00    +0.000 A 
ATOM     15  C   UNL     1       1.599   3.576  18.056  0.00  0.00    +0.000 A 
ATOM     16  C   UNL     1       1.072   2.412  18.618  0.00  0.00    +0.000 A 
ENDBRANCH  10  14
BRANCH  10  17
ATOM     17  C   UNL     1       1.997   7.306  18.748  0.00  0.00    +0.000 A 
ATOM     18  C   UNL     1       1.741   7.605  20.096  0.00  0.00    +0.000 A 
ATOM     19  C   UNL     1       1.235   8.851  20.470  0.00  0.00    +0.000 A 
ATOM     20  C   UNL     1       1.026   9.839  19.518  0.00  0.00    +0.000 A 
ATOM     21  C   UNL     1       1.341   9.599  18.186  0.00  0.00    +0.000 A 
ATOM     22  C   UNL     1       1.835   8.350  17.810  0.00  0.00    +0.000 A 
ENDBRANCH  10  17
ENDBRANCH   1  10
BRANCH   7  23
ATOM     23  C   UNL     1       7.225   4.884  15.676  0.00  0.00    +0.000 C 
BRANCH  23  24
ATOM     24  C   UNL     1       6.880   4.510  14.254  0.00  0.00    +0.000 A 
ATOM     25  C   UNL     1       5.770   3.735  13.909  0.00  0.00    +0.000 A 
ATOM     26  C   UNL     1       5.548   3.395  12.578  0.00  0.00    +0.000 A 
ATOM     27  C   UNL     1       6.424   3.880  11.621  0.00  0.00    +0.000 A 
ATOM     28  N   UNL     1       7.476   4.678  11.904  0.00  0.00    +0.000 NA
ATOM     29  C   UNL     1       7.674   4.977  13.208  0.00  0.00    +0.000 A 
ENDBRANCH  23  24
ENDBRANCH   7  23
TORSDOF 5
ENDMDL
MODEL 2
REMARK VINA RESULT:      -9.1      0.501      1.265
REMARK  Name = 
REMARK  5 active torsions:
REMARK  status: ('A' for Active; 'I' for Inactive)
REMARK    1  A    between atoms: C_4  and  C_5
REMARK    2  A    between atoms: C_5  and  C_6
REMARK    3  A    between atoms: C_5  and  C_12
REMARK    4  A    between atoms: N_18  and  C_19
REMARK    5  A    between atoms: C_19  and  C_20
REMARK                            x       y       z     vdW  Elec       q    Type
REMARK                         _______ _______ _______ _____ _____    ______ ____
ROOT
ATOM      1  C   UNL     1       4.052   5.868  18.626  0.00  0.00    +0.000 A 
ATOM      2  N   UNL     1       4.385   5.406  19.852  0.00  0.00    +0.000 NA
ATOM      3  O   UNL     1       5.768   5.391  19.916  0.00  0.00    +0.000 OA
ATOM      4  C   UNL     1       6.251   5.827  18.741  0.00  0.00    +0.000 A 
ATOM      5  C   UNL     1       5.237   6.084  17.856  0.00  0.00    +0.000 A 
ATOM      6  C   UNL     1       5.511   6.534  16.466  0.00  0.00    +0.000 C 
ATOM      7  N   UNL     1       6.936   6.315  16.079  0.00  0.00    +0.000 NA
ATOM      8  C   UNL     1       7.850   6.761  17.171  0.00  0.00    +0.000 C 
ATOM      9  C   UNL     1       7.697   5.978  18.502  0.00  0.00    +0.000 C 
ENDROOT
BRANCH   1  10
ATOM     10  C   UNL     1       2.579   6.009  18.307  0.00  0.00    +0.000 C 
BRANCH  10  14
ATOM     11  C   UNL     1       0.789   2.431  20.023  0.00  0.00    +0.000 A 
ATOM     12  C   UNL     1       1.111   3.521  20.825  0.00  0.00    +0.000 A 
ATOM     13  C   UNL     1       1.623   4.692  20.253  0.00  0.00    +0.000 A 
ATOM     14  C   UNL     1       1.847   4.785  18.867  0.00  0.00    +0.000 A 
ATOM     15  C   UNL     1       1.524   3.663  18.083  0.00  0.00    +0.000 A 
ATOM     16  C   UNL     1       0.982   2.507  18.649  0.00  0.00    +0.000 A 
ENDBRANCH  10  14
BRANCH  10  17
ATOM     17  C   UNL     1       2.043   7.363  18.765  0.00  0.00    +0.000 A 
ATOM     18  C   UNL     1       1.743   8.410  17.878  0.00  0.00    +0.000 A 
ATOM     19  C   UNL     1       1.248   9.627  18.347  0.00  0.00    +0.000 A 
ATOM     20  C   UNL     1       0.992   9.807  19.700  0.00  0.00    +0.000 A 
ATOM     21  C   UNL     1       1.207   8.764  20.593  0.00  0.00    +0.000 A 
ATOM     22  C   UNL     1       1.714   7.552  20.126  0.00  0.00    +0.000 A 
ENDBRANCH  10  17
ENDBRANCH   1  10
BRANCH   7  23
ATOM     23  C   UNL     1       7.230   4.927  15.671  0.00  0.00    +0.000 C 
BRANCH  23  24
ATOM     24  C   UNL     1       7.032   4.626  14.204  0.00  0.00    +0.000 A 
ATOM     25  C   UNL     1       7.795   5.208  13.188  0.00  0.00    +0.000 A 
ATOM     26  C   UNL     1       7.518   4.913  11.857  0.00  0.00    +0.000 A 
ATOM     27  C   UNL     1       6.509   4.006  11.581  0.00  0.00    +0.000 A 
ATOM     28  N   UNL     1       5.785   3.378  12.532  0.00  0.00    +0.000 NA
ATOM     29  C   UNL     1       6.068   3.697  13.815  0.00  0.00    +0.000 A 
ENDBRANCH  23  24
ENDBRANCH   7  23
TORSDOF 5
ENDMDL
MODEL 3
REMARK VINA RESULT:      -9.0      0.535      1.273
REMARK  Name = 
REMARK  5 active torsions:
REMARK  status: ('A' for Active; 'I' for Inactive)
REMARK    1  A    between atoms: C_4  and  C_5
REMARK    2  A    between atoms: C_5  and  C_6
REMARK    3  A    between atoms: C_5  and  C_12
REMARK    4  A    between atoms: N_18  and  C_19
REMARK    5  A    between atoms: C_19  and  C_20
REMARK                            x       y       z     vdW  Elec       q    Type
REMARK                         _______ _______ _______ _____ _____    ______ ____
ROOT
ATOM      1  C   UNL     1       4.157   5.777  18.633  0.00  0.00    +0.000 A 
ATOM      2  N   UNL     1       4.511   5.339  19.862  0.00  0.00    +0.000 NA
ATOM      3  O   UNL     1       5.893   5.400  19.929  0.00  0.00    +0.000 OA
ATOM      4  C   UNL     1       6.355   5.856  18.754  0.00  0.00    +0.000 A 
ATOM      5  C   UNL     1       5.331   6.053  17.864  0.00  0.00    +0.000 A 
ATOM      6  C   UNL     1       5.584   6.510  16.473  0.00  0.00    +0.000 C 
ATOM      7  N   UNL     1       7.020   6.366  16.091  0.00  0.00    +0.000 NA
ATOM      8  C   UNL     1       7.906   6.867  17.183  0.00  0.00    +0.000 C 
ATOM      9  C   UNL     1       7.791   6.084  18.518  0.00  0.00    +0.000 C 
ENDROOT
BRANCH   1  10
ATOM     10  C   UNL     1       2.680   5.836  18.309  0.00  0.00    +0.000 C 
BRANCH  10  14
ATOM     11  C   UNL     1       0.506   2.357  19.766  0.00  0.00    +0.000 A 
ATOM     12  C   UNL     1       0.946   2.422  18.447  0.00  0.00    +0.000 A 
ATOM     13  C   UNL     1       1.703   3.514  18.007  0.00  0.00    +0.000 A 
ATOM     14  C   UNL     1       2.013   4.578  18.875  0.00  0.00    +0.000 A 
ATOM     15  C   UNL     1       1.544   4.491  20.198  0.00  0.00    +0.000 A 
ATOM     16  C   UNL     1       0.817   3.386  20.645  0.00  0.00    +0.000 A 
ENDBRANCH  10  14
BRANCH  10  17
ATOM     17  C   UNL     1       2.070   7.162  18.757  0.00  0.00    +0.000 A 
ATOM     18  C   UNL     1       1.835   7.482  20.104  0.00  0.00    +0.000 A 
ATOM     19  C   UNL     1       1.282   8.712  20.462  0.00  0.00    +0.000 A 
ATOM     20  C   UNL     1       1.003   9.667  19.493  0.00  0.00    +0.000 A 
ATOM     21  C   UNL     1       1.295   9.408  18.158  0.00  0.00    +0.000 A 
ATOM     22  C   UNL     1       1.836   8.174  17.799  0.00  0.00    +0.000 A 
ENDBRANCH  10  17
ENDBRANCH   1  10
BRANCH   7  23
ATOM     23  C   UNL     1       7.390   4.994  15.690  0.00  0.00    +0.000 C 
BRANCH  23  24
ATOM     24  C   UNL     1       7.103   4.639  14.251  0.00  0.00    +0.000 A 
ATOM     25  C   UNL     1       7.835   5.142  13.173  0.00  0.00    +0.000 A 
ATOM     26  C   UNL     1       7.477   4.802  11.871  0.00  0.00    +0.000 A 
ATOM     27  C   UNL     1       6.418   3.928  11.689  0.00  0.00    +0.000 A 
ATOM     28  N   UNL     1       5.720   3.374  12.703  0.00  0.00    +0.000 NA
ATOM     29  C   UNL     1       6.083   3.737  13.955  0.00  0.00    +0.000 A 
ENDBRANCH  23  24
ENDBRANCH   7  23
TORSDOF 5
ENDMDL
MODEL 4
REMARK VINA RESULT:      -9.0      0.210      1.280
REMARK  Name = 
REMARK  5 active torsions:
REMARK  status: ('A' for Active; 'I' for Inactive)
REMARK    1  A    between atoms: C_4  and  C_5
REMARK    2  A    between atoms: C_5  and  C_6
REMARK    3  A    between atoms: C_5  and  C_12
REMARK    4  A    between atoms: N_18  and  C_19
REMARK    5  A    between atoms: C_19  and  C_20
REMARK                            x       y       z     vdW  Elec       q    Type
REMARK                         _______ _______ _______ _____ _____    ______ ____
ROOT
ATOM      1  C   UNL     1       4.238   5.797  18.646  0.00  0.00    +0.000 A 
ATOM      2  N   UNL     1       4.586   5.362  19.878  0.00  0.00    +0.000 NA
ATOM      3  O   UNL     1       5.967   5.420  19.951  0.00  0.00    +0.000 OA
ATOM      4  C   UNL     1       6.435   5.872  18.776  0.00  0.00    +0.000 A 
ATOM      5  C   UNL     1       5.416   6.069  17.881  0.00  0.00    +0.000 A 
ATOM      6  C   UNL     1       5.676   6.521  16.490  0.00  0.00    +0.000 C 
ATOM      7  N   UNL     1       7.113   6.374  16.114  0.00  0.00    +0.000 NA
ATOM      8  C   UNL     1       7.995   6.876  17.208  0.00  0.00    +0.000 C 
ATOM      9  C   UNL     1       7.873   6.096  18.545  0.00  0.00    +0.000 C 
ENDROOT
BRANCH   1  10
ATOM     10  C   UNL     1       2.763   5.858  18.315  0.00  0.00    +0.000 C 
BRANCH  10  14
ATOM     11  C   UNL     1       0.545   2.470  19.915  0.00  0.00    +0.000 A 
ATOM     12  C   UNL     1       0.882   2.528  18.566  0.00  0.00    +0.000 A 
ATOM     13  C   UNL     1       1.654   3.588  18.075  0.00  0.00    +0.000 A 
ATOM     14  C   UNL     1       2.083   4.627  18.923  0.00  0.00    +0.000 A 
ATOM     15  C   UNL     1       1.715   4.548  20.279  0.00  0.00    +0.000 A 
ATOM     16  C   UNL     1       0.974   3.474  20.774  0.00  0.00    +0.000 A 
ENDBRANCH  10  14
BRANCH  10  17
ATOM     17  C   UNL     1       2.164   7.205  18.714  0.00  0.00    +0.000 A 
ATOM     18  C   UNL     1       1.816   8.196  17.783  0.00  0.00    +0.000 A 
ATOM     19  C   UNL     1       1.265   9.408  18.200  0.00  0.00    +0.000 A 
ATOM     20  C   UNL     1       0.999   9.635  19.543  0.00  0.00    +0.000 A 
ATOM     21  C   UNL     1       1.262   8.644  20.481  0.00  0.00    +0.000 A 
ATOM     22  C   UNL     1       1.825   7.437  20.066  0.00  0.00    +0.000 A 
ENDBRANCH  10  17
ENDBRANCH   1  10
BRANCH   7  23
ATOM     23  C   UNL     1       7.483   5.000  15.719  0.00  0.00    +0.000 C 
BRANCH  23  24
ATOM     24  C   UNL     1       7.020   4.573  14.347  0.00  0.00    +0.000 A 
ATOM     25  C   UNL     1       5.886   3.788  14.126  0.00  0.00    +0.000 A 
ATOM     26  C   UNL     1       5.552   3.398  12.832  0.00  0.00    +0.000 A 
ATOM     27  C   UNL     1       6.344   3.845  11.787  0.00  0.00    +0.000 A 
ATOM     28  N   UNL     1       7.415   4.652  11.950  0.00  0.00    +0.000 NA
ATOM     29  C   UNL     1       7.721   4.999  13.220  0.00  0.00    +0.000 A 
ENDBRANCH  23  24
ENDBRANCH   7  23
TORSDOF 5
ENDMDL
MODEL 5
REMARK VINA RESULT:      -8.5      3.288      7.962
REMARK  Name = 
REMARK  5 active torsions:
REMARK  status: ('A' for Active; 'I' for Inactive)
REMARK    1  A    between atoms: C_4  and  C_5
REMARK    2  A    between atoms: C_5  and  C_6
REMARK    3  A    between atoms: C_5  and  C_12
REMARK    4  A    between atoms: N_18  and  C_19
REMARK    5  A    between atoms: C_19  and  C_20
REMARK                            x       y       z     vdW  Elec       q    Type
REMARK                         _______ _______ _______ _____ _____    ______ ____
ROOT
ATOM      1  C   UNL     1       2.444   6.910  19.052  0.00  0.00    +0.000 A 
ATOM      2  N   UNL     1       2.479   6.580  20.363  0.00  0.00    +0.000 NA
ATOM      3  O   UNL     1       1.792   7.569  21.046  0.00  0.00    +0.000 OA
ATOM      4  C   UNL     1       1.365   8.480  20.157  0.00  0.00    +0.000 A 
ATOM      5  C   UNL     1       1.791   8.172  18.891  0.00  0.00    +0.000 A 
ATOM      6  C   UNL     1       1.490   9.052  17.732  0.00  0.00    +0.000 C 
ATOM      7  N   UNL     1       1.028  10.405  18.163  0.00  0.00    +0.000 NA
ATOM      8  C   UNL     1       0.020  10.291  19.257  0.00  0.00    +0.000 C 
ATOM      9  C   UNL     1       0.554   9.642  20.562  0.00  0.00    +0.000 C 
ENDROOT
BRANCH   1  10
ATOM     10  C   UNL     1       3.107   5.965  18.074  0.00  0.00    +0.000 C 
BRANCH  10  14
ATOM     11  C   UNL     1       7.452   6.234  18.170  0.00  0.00    +0.000 A 
ATOM     12  C   UNL     1       6.718   6.908  17.199  0.00  0.00    +0.000 A 
ATOM     13  C   UNL     1       5.318   6.871  17.218  0.00  0.00    +0.000 A 
ATOM     14  C   UNL     1       4.626   6.134  18.197  0.00  0.00    +0.000 A 
ATOM     15  C   UNL     1       5.394   5.452  19.158  0.00  0.00    +0.000 A 
ATOM     16  C   UNL     1       6.789   5.517  19.159  0.00  0.00    +0.000 A 
ENDBRANCH  10  14
BRANCH  10  17
ATOM     17  C   UNL     1       2.588   4.540  18.245  0.00  0.00    +0.000 A 
ATOM     18  C   UNL     1       1.440   4.226  18.991  0.00  0.00    +0.000 A 
ATOM     19  C   UNL     1       1.002   2.907  19.111  0.00  0.00    +0.000 A 
ATOM     20  C   UNL     1       1.666   1.883  18.448  0.00  0.00    +0.000 A 
ATOM     21  C   UNL     1       2.760   2.171  17.641  0.00  0.00    +0.000 A 
ATOM     22  C   UNL     1       3.205   3.489  17.531  0.00  0.00    +0.000 A 
ENDBRANCH  10  17
ENDBRANCH   1  10
BRANCH   7  23
ATOM     23  C   UNL     1       2.130  11.311  18.544  0.00  0.00    +0.000 C 
BRANCH  23  24
ATOM     24  C   UNL     1       1.705  12.661  19.072  0.00  0.00    +0.000 A 
ATOM     25  C   UNL     1       0.872  13.535  18.369  0.00  0.00    +0.000 A 
ATOM     26  C   UNL     1       0.565  14.782  18.905  0.00  0.00    +0.000 A 
ATOM     27  C   UNL     1       1.069  15.102  20.155  0.00  0.00    +0.000 A 
ATOM     28  N   UNL     1       1.830  14.266  20.893  0.00  0.00    +0.000 NA
ATOM     29  C   UNL     1       2.123  13.068  20.337  0.00  0.00    +0.000 A 
ENDBRANCH  23  24
ENDBRANCH   7  23
TORSDOF 5
ENDMDL
MODEL 6
REMARK VINA RESULT:      -8.3      3.236      7.895
REMARK  Name = 
REMARK  5 active torsions:
REMARK  status: ('A' for Active; 'I' for Inactive)
REMARK    1  A    between atoms: C_4  and  C_5
REMARK    2  A    between atoms: C_5  and  C_6
REMARK    3  A    between atoms: C_5  and  C_12
REMARK    4  A    between atoms: N_18  and  C_19
REMARK    5  A    between atoms: C_19  and  C_20
REMARK                            x       y       z     vdW  Elec       q    Type
REMARK                         _______ _______ _______ _____ _____    ______ ____
ROOT
ATOM      1  C   UNL     1       2.711   6.725  18.849  0.00  0.00    +0.000 A 
ATOM      2  N   UNL     1       2.816   6.363  20.147  0.00  0.00    +0.000 NA
ATOM      3  O   UNL     1       2.120   7.305  20.886  0.00  0.00    +0.000 OA
ATOM      4  C   UNL     1       1.617   8.219  20.041  0.00  0.00    +0.000 A 
ATOM      5  C   UNL     1       2.000   7.962  18.751  0.00  0.00    +0.000 A 
ATOM      6  C   UNL     1       1.613   8.858  17.630  0.00  0.00    +0.000 C 
ATOM      7  N   UNL     1       1.115  10.179  18.117  0.00  0.00    +0.000 NA
ATOM      8  C   UNL     1       0.161   9.994  19.249  0.00  0.00    +0.000 C 
ATOM      9  C   UNL     1       0.777   9.335  20.512  0.00  0.00    +0.000 C 
ENDROOT
BRANCH   1  10
ATOM     10  C   UNL     1       3.369   5.835  17.817  0.00  0.00    +0.000 C 
BRANCH  10  14
ATOM     11  C   UNL     1       7.626   6.561  18.371  0.00  0.00    +0.000 A 
ATOM     12  C   UNL     1       6.949   5.647  19.172  0.00  0.00    +0.000 A 
ATOM     13  C   UNL     1       5.596   5.370  18.941  0.00  0.00    +0.000 A 
ATOM     14  C   UNL     1       4.887   6.025  17.917  0.00  0.00    +0.000 A 
ATOM     15  C   UNL     1       5.594   6.954  17.132  0.00  0.00    +0.000 A 
ATOM     16  C   UNL     1       6.951   7.205  17.342  0.00  0.00    +0.000 A 
ENDBRANCH  10  14
BRANCH  10  17
ATOM     17  C   UNL     1       2.877   4.395  17.938  0.00  0.00    +0.000 A 
ATOM     18  C   UNL     1       3.702   3.281  17.711  0.00  0.00    +0.000 A 
ATOM     19  C   UNL     1       3.205   1.983  17.842  0.00  0.00    +0.000 A 
ATOM     20  C   UNL     1       1.896   1.770  18.253  0.00  0.00    +0.000 A 
ATOM     21  C   UNL     1       1.078   2.851  18.559  0.00  0.00    +0.000 A 
ATOM     22  C   UNL     1       1.571   4.148  18.416  0.00  0.00    +0.000 A 
ENDBRANCH  10  17
ENDBRANCH   1  10
BRANCH   7  23
ATOM     23  C   UNL     1       2.194  11.121  18.476  0.00  0.00    +0.000 C 
BRANCH  23  24
ATOM     24  C   UNL     1       1.737  12.453  19.022  0.00  0.00    +0.000 A 
ATOM     25  C   UNL     1       0.915  13.334  18.315  0.00  0.00    +0.000 A 
ATOM     26  C   UNL     1       0.576  14.564  18.871  0.00  0.00    +0.000 A 
ATOM     27  C   UNL     1       1.037  14.859  20.143  0.00  0.00    +0.000 A 
ATOM     28  N   UNL     1       1.785  14.014  20.884  0.00  0.00    +0.000 NA
ATOM     29  C   UNL     1       2.110  12.834  20.310  0.00  0.00    +0.000 A 
ENDBRANCH  23  24
ENDBRANCH   7  23
TORSDOF 5
ENDMDL
MODEL 7
REMARK VINA RESULT:      -8.2      2.451      4.390
REMARK  Name = 
REMARK  5 active torsions:
REMARK  status: ('A' for Active; 'I' for Inactive)
REMARK    1  A    between atoms: C_4  and  C_5
REMARK    2  A    between atoms: C_5  and  C_6
REMARK    3  A    between atoms: C_5  and  C_12
REMARK    4  A    between atoms: N_18  and  C_19
REMARK    5  A    between atoms: C_19  and  C_20
REMARK                            x       y       z     vdW  Elec       q    Type
REMARK                         _______ _______ _______ _____ _____    ______ ____
ROOT
ATOM      1  C   UNL     1       3.914   4.669  17.501  0.00  0.00    +0.000 A 
ATOM      2  N   UNL     1       3.994   3.845  16.432  0.00  0.00    +0.000 NA
ATOM      3  O   UNL     1       5.336   3.736  16.107  0.00  0.00    +0.000 OA
ATOM      4  C   UNL     1       6.042   4.493  16.963  0.00  0.00    +0.000 A 
ATOM      5  C   UNL     1       5.216   5.162  17.827  0.00  0.00    +0.000 A 
ATOM      6  C   UNL     1       5.750   6.106  18.843  0.00  0.00    +0.000 C 
ATOM      7  N   UNL     1       7.166   6.486  18.562  0.00  0.00    +0.000 NA
ATOM      8  C   UNL     1       7.972   5.281  18.208  0.00  0.00    +0.000 C 
ATOM      9  C   UNL     1       7.514   4.554  16.915  0.00  0.00    +0.000 C 
ENDROOT
BRANCH   1  10
ATOM     10  C   UNL     1       2.540   4.935  18.078  0.00  0.00    +0.000 C 
BRANCH  10  14
ATOM     11  C   UNL     1       1.804   2.454  21.579  0.00  0.00    +0.000 A 
ATOM     12  C   UNL     1       0.748   2.922  20.802  0.00  0.00    +0.000 A 
ATOM     13  C   UNL     1       0.999   3.661  19.640  0.00  0.00    +0.000 A 
ATOM     14  C   UNL     1       2.315   3.970  19.247  0.00  0.00    +0.000 A 
ATOM     15  C   UNL     1       3.361   3.495  20.059  0.00  0.00    +0.000 A 
ATOM     16  C   UNL     1       3.112   2.729  21.199  0.00  0.00    +0.000 A 
ENDBRANCH  10  14
BRANCH  10  17
ATOM     17  C   UNL     1       2.357   6.416  18.403  0.00  0.00    +0.000 A 
ATOM     18  C   UNL     1       2.340   7.420  17.422  0.00  0.00    +0.000 A 
ATOM     19  C   UNL     1       2.162   8.759  17.772  0.00  0.00    +0.000 A 
ATOM     20  C   UNL     1       1.943   9.118  19.095  0.00  0.00    +0.000 A 
ATOM     21  C   UNL     1       1.878   8.139  20.079  0.00  0.00    +0.000 A 
ATOM     22  C   UNL     1       2.070   6.801  19.732  0.00  0.00    +0.000 A 
ENDBRANCH  10  17
ENDBRANCH   1  10
BRANCH   7  23
ATOM     23  C   UNL     1       7.302   7.539  17.536  0.00  0.00    +0.000 C 
BRANCH  23  24
ATOM     24  C   UNL     1       7.998   8.801  17.990  0.00  0.00    +0.000 A 
ATOM     25  C   UNL     1       8.897   8.843  19.059  0.00  0.00    +0.000 A 
ATOM     26  C   UNL     1       9.461  10.055  19.445  0.00  0.00    +0.000 A 
ATOM     27  C   UNL     1       9.139  11.190  18.717  0.00  0.00    +0.000 A 
ATOM     28  N   UNL     1       8.320  11.185  17.644  0.00  0.00    +0.000 NA
ATOM     29  C   UNL     1       7.777   9.994  17.305  0.00  0.00    +0.000 A 
ENDBRANCH  23  24
ENDBRANCH   7  23
TORSDOF 5
ENDMDL
MODEL 8
REMARK VINA RESULT:      -8.0      3.588      6.307
REMARK  Name = 
REMARK  5 active torsions:
REMARK  status: ('A' for Active; 'I' for Inactive)
REMARK    1  A    between atoms: C_4  and  C_5
REMARK    2  A    between atoms: C_5  and  C_6
REMARK    3  A    between atoms: C_5  and  C_12
REMARK    4  A    between atoms: N_18  and  C_19
REMARK    5  A    between atoms: C_19  and  C_20
REMARK                            x       y       z     vdW  Elec       q    Type
REMARK                         _______ _______ _______ _____ _____    ______ ____
ROOT
ATOM      1  C   UNL     1       1.034   9.477  19.339  0.00  0.00    +0.000 A 
ATOM      2  N   UNL     1       0.462   9.376  20.560  0.00  0.00    +0.000 NA
ATOM      3  O   UNL     1       0.933   8.207  21.131  0.00  0.00    +0.000 OA
ATOM      4  C   UNL     1       1.765   7.615  20.259  0.00  0.00    +0.000 A 
ATOM      5  C   UNL     1       1.829   8.317  19.083  0.00  0.00    +0.000 A 
ATOM      6  C   UNL     1       2.646   7.843  17.936  0.00  0.00    +0.000 C 
ATOM      7  N   UNL     1       3.048   6.413  18.089  0.00  0.00    +0.000 NA
ATOM      8  C   UNL     1       3.538   6.152  19.474  0.00  0.00    +0.000 C 
ATOM      9  C   UNL     1       2.476   6.366  20.586  0.00  0.00    +0.000 C 
ENDROOT
BRANCH   1  10
ATOM     10  C   UNL     1       0.702  10.698  18.508  0.00  0.00    +0.000 C 
BRANCH  10  14
ATOM     11  C   UNL     1      -3.593  11.231  18.033  0.00  0.00    +0.000 A 
ATOM     12  C   UNL     1      -2.923  10.212  17.363  0.00  0.00    +0.000 A 
ATOM     13  C   UNL     1      -1.555  10.006  17.575  0.00  0.00    +0.000 A 
ATOM     14  C   UNL     1      -0.823  10.836  18.446  0.00  0.00    +0.000 A 
ATOM     15  C   UNL     1      -1.525  11.865  19.100  0.00  0.00    +0.000 A 
ATOM     16  C   UNL     1      -2.896  12.049  18.913  0.00  0.00    +0.000 A 
ENDBRANCH  10  14
BRANCH  10  17
ATOM     17  C   UNL     1       1.454  11.928  19.010  0.00  0.00    +0.000 A 
ATOM     18  C   UNL     1       1.453  12.332  20.355  0.00  0.00    +0.000 A 
ATOM     19  C   UNL     1       2.164  13.461  20.764  0.00  0.00    +0.000 A 
ATOM     20  C   UNL     1       2.930  14.177  19.855  0.00  0.00    +0.000 A 
ATOM     21  C   UNL     1       3.012  13.758  18.533  0.00  0.00    +0.000 A 
ATOM     22  C   UNL     1       2.291  12.637  18.121  0.00  0.00    +0.000 A 
ENDBRANCH  10  17
ENDBRANCH   1  10
BRANCH   7  23
ATOM     23  C   UNL     1       1.988   5.458  17.709  0.00  0.00    +0.000 C 
BRANCH  23  24
ATOM     24  C   UNL     1       2.274   4.010  18.032  0.00  0.00    +0.000 A 
ATOM     25  C   UNL     1       1.455   3.226  18.848  0.00  0.00    +0.000 A 
ATOM     26  C   UNL     1       1.813   1.913  19.135  0.00  0.00    +0.000 A 
ATOM     27  C   UNL     1       2.965   1.405  18.557  0.00  0.00    +0.000 A 
ATOM     28  N   UNL     1       3.755   2.108  17.717  0.00  0.00    +0.000 NA
ATOM     29  C   UNL     1       3.388   3.387  17.472  0.00  0.00    +0.000 A 
ENDBRANCH  23  24
ENDBRANCH   7  23
TORSDOF 5
ENDMDL
MODEL 9
REMARK VINA RESULT:      -8.0      2.167      7.431
REMARK  Name = 
REMARK  5 active torsions:
REMARK  status: ('A' for Active; 'I' for Inactive)
REMARK    1  A    between atoms: C_4  and  C_5
REMARK    2  A    between atoms: C_5  and  C_6
REMARK    3  A    between atoms: C_5  and  C_12
REMARK    4  A    between atoms: N_18  and  C_19
REMARK    5  A    between atoms: C_19  and  C_20
REMARK                            x       y       z     vdW  Elec       q    Type
REMARK                         _______ _______ _______ _____ _____    ______ ____
ROOT
ATOM      1  C   UNL     1       5.138   4.016  17.058  0.00  0.00    +0.000 A 
ATOM      2  N   UNL     1       4.819   2.740  17.371  0.00  0.00    +0.000 NA
ATOM      3  O   UNL     1       3.493   2.741  17.769  0.00  0.00    +0.000 OA
ATOM      4  C   UNL     1       3.033   4.001  17.704  0.00  0.00    +0.000 A 
ATOM      5  C   UNL     1       4.024   4.870  17.329  0.00  0.00    +0.000 A 
ATOM      6  C   UNL     1       3.782   6.333  17.231  0.00  0.00    +0.000 C 
ATOM      7  N   UNL     1       2.516   6.737  17.913  0.00  0.00    +0.000 NA
ATOM      8  C   UNL     1       1.409   5.801  17.560  0.00  0.00    +0.000 C 
ATOM      9  C   UNL     1       1.632   4.335  18.018  0.00  0.00    +0.000 C 
ENDROOT
BRANCH   1  10
ATOM     10  C   UNL     1       6.541   4.286  16.561  0.00  0.00    +0.000 C 
BRANCH  10  14
ATOM     11  C   UNL     1       6.538   4.195  12.208  0.00  0.00    +0.000 A 
ATOM     12  C   UNL     1       5.527   3.573  12.934  0.00  0.00    +0.000 A 
ATOM     13  C   UNL     1       5.500   3.667  14.331  0.00  0.00    +0.000 A 
ATOM     14  C   UNL     1       6.503   4.364  15.031  0.00  0.00    +0.000 A 
ATOM     15  C   UNL     1       7.519   4.971  14.271  0.00  0.00    +0.000 A 
ATOM     16  C   UNL     1       7.527   4.906  12.876  0.00  0.00    +0.000 A 
ENDBRANCH  10  14
BRANCH  10  17
ATOM     17  C   UNL     1       7.153   5.494  17.266  0.00  0.00    +0.000 A 
ATOM     18  C   UNL     1       7.147   6.787  16.718  0.00  0.00    +0.000 A 
ATOM     19  C   UNL     1       7.714   7.860  17.408  0.00  0.00    +0.000 A 
ATOM     20  C   UNL     1       8.248   7.677  18.676  0.00  0.00    +0.000 A 
ATOM     21  C   UNL     1       8.200   6.425  19.277  0.00  0.00    +0.000 A 
ATOM     22  C   UNL     1       7.645   5.350  18.582  0.00  0.00    +0.000 A 
ENDBRANCH  10  17
ENDBRANCH   1  10
BRANCH   7  23
ATOM     23  C   UNL     1       2.653   6.875  19.377  0.00  0.00    +0.000 C 
BRANCH  23  24
ATOM     24  C   UNL     1       1.803   7.951  20.009  0.00  0.00    +0.000 A 
ATOM     25  C   UNL     1       1.323   7.883  21.319  0.00  0.00    +0.000 A 
ATOM     26  C   UNL     1       0.506   8.895  21.813  0.00  0.00    +0.000 A 
ATOM     27  C   UNL     1       0.228   9.975  20.990  0.00  0.00    +0.000 A 
ATOM     28  N   UNL     1       0.717  10.109  19.739  0.00  0.00    +0.000 NA
ATOM     29  C   UNL     1       1.495   9.100  19.284  0.00  0.00    +0.000 A 
ENDBRANCH  23  24
ENDBRANCH   7  23
TORSDOF 5
ENDMDL
