MODEL 1
REMARK VINA RESULT:      -8.5      0.000      0.000
REMARK  Name = 
REMARK  7 active torsions:
REMARK  status: ('A' for Active; 'I' for Inactive)
REMARK    1  A    between atoms: C_1  and  C_2
REMARK    2  A    between atoms: C_2  and  C_3
REMARK    3  A    between atoms: C_5  and  O_6
REMARK    4  A    between atoms: C_9  and  C_10
REMARK    5  A    between atoms: C_11  and  C_12
REMARK    6  A    between atoms: C_15  and  O_16
REMARK    7  A    between atoms: O_16  and  C_17
REMARK                            x       y       z     vdW  Elec       q    Type
REMARK                         _______ _______ _______ _____ _____    ______ ____
ROOT
ATOM      1  C   UNL     1       5.942   3.636  12.847  0.00  0.00    +0.000 A 
ATOM      2  C   UNL     1       7.150   4.416  12.439  0.00  0.00    +0.000 A 
ATOM      3  C   UNL     1       7.715   5.167  13.395  0.00  0.00    +0.000 A 
ATOM      4  N   UNL     1       7.146   5.200  14.685  0.00  0.00    +0.000 N 
ATOM      5  N   UNL     1       7.588   5.881  15.770  0.00  0.00    +0.000 NA
ATOM      6  C   UNL     1       6.698   5.628  16.732  0.00  0.00    +0.000 A 
ATOM      7  C   UNL     1       6.921   6.232  18.073  0.00  0.00    +0.000 C 
ATOM      8  C   UNL     1       5.648   4.772  16.288  0.00  0.00    +0.000 A 
ATOM      9  C   UNL     1       5.979   4.478  14.969  0.00  0.00    +0.000 A 
ATOM     10  N   UNL     1       5.384   3.683  14.021  0.00  0.00    +0.000 NA
ENDROOT
BRANCH   8  11
ATOM     11  C   UNL     1       4.453   4.279  16.974  0.00  0.00    +0.000 A 
ATOM     12  C   UNL     1       3.453   5.164  17.402  0.00  0.00    +0.000 A 
ATOM     13  C   UNL     1       2.294   4.696  18.032  0.00  0.00    +0.000 A 
ATOM     14  C   UNL     1       2.090   3.331  18.213  0.00  0.00    +0.000 A 
ATOM     15  C   UNL     1       3.078   2.438  17.810  0.00  0.00    +0.000 A 
ATOM     16  C   UNL     1       4.252   2.911  17.207  0.00  0.00    +0.000 A 
BRANCH  14  17
ATOM     17  O   UNL     1       0.922   2.985  18.834  0.00  0.00    +0.000 OA
ATOM     18  C   UNL     1       0.860   3.291  20.223  0.00  0.00    +0.000 C 
ENDBRANCH  14  17
ENDBRANCH   8  11
BRANCH   1  20
ATOM     19  C   UNL     1       4.054   3.304  11.236  0.00  0.00    +0.000 C 
ATOM     20  C   UNL     1       5.336   2.721  11.798  0.00  0.00    +0.000 C 
ENDBRANCH   1  20
BRANCH   3  21
ATOM     21  O   UNL     1       8.851   5.926  13.142  0.00  0.00    +0.000 OA
ATOM     22  H   UNL     1       8.951   6.056  12.186  0.00  0.00    +0.000 HD
ENDBRANCH   3  21
TORSDOF 4
ENDMDL
MODEL 2
REMARK VINA RESULT:      -8.5      0.137      1.056
REMARK  Name = 
REMARK  7 active torsions:
REMARK  status: ('A' for Active; 'I' for Inactive)
REMARK    1  A    between atoms: C_1  and  C_2
REMARK    2  A    between atoms: C_2  and  C_3
REMARK    3  A    between atoms: C_5  and  O_6
REMARK    4  A    between atoms: C_9  and  C_10
REMARK    5  A    between atoms: C_11  and  C_12
REMARK    6  A    between atoms: C_15  and  O_16
REMARK    7  A    between atoms: O_16  and  C_17
REMARK                            x       y       z     vdW  Elec       q    Type
REMARK                         _______ _______ _______ _____ _____    ______ ____
ROOT
ATOM      1  C   UNL     1       5.914   3.656  12.848  0.00  0.00    +0.000 A 
ATOM      2  C   UNL     1       7.141   4.411  12.448  0.00  0.00    +0.000 A 
ATOM      3  C   UNL     1       7.712   5.157  13.404  0.00  0.00    +0.000 A 
ATOM      4  N   UNL     1       7.130   5.211  14.689  0.00  0.00    +0.000 N 
ATOM      5  N   UNL     1       7.574   5.891  15.773  0.00  0.00    +0.000 NA
ATOM      6  C   UNL     1       6.669   5.661  16.727  0.00  0.00    +0.000 A 
ATOM      7  C   UNL     1       6.889   6.271  18.067  0.00  0.00    +0.000 C 
ATOM      8  C   UNL     1       5.608   4.823  16.278  0.00  0.00    +0.000 A 
ATOM      9  C   UNL     1       5.946   4.513  14.965  0.00  0.00    +0.000 A 
ATOM     10  N   UNL     1       5.345   3.723  14.016  0.00  0.00    +0.000 NA
ENDROOT
BRANCH   8  11
ATOM     11  C   UNL     1       4.395   4.359  16.955  0.00  0.00    +0.000 A 
ATOM     12  C   UNL     1       4.190   2.995  17.208  0.00  0.00    +0.000 A 
ATOM     13  C   UNL     1       3.047   2.549  17.882  0.00  0.00    +0.000 A 
ATOM     14  C   UNL     1       2.104   3.458  18.353  0.00  0.00    +0.000 A 
ATOM     15  C   UNL     1       2.282   4.814  18.098  0.00  0.00    +0.000 A 
ATOM     16  C   UNL     1       3.412   5.257  17.396  0.00  0.00    +0.000 A 
BRANCH  14  17
ATOM     17  O   UNL     1       1.030   2.914  19.002  0.00  0.00    +0.000 OA
ATOM     18  C   UNL     1       1.101   2.942  20.423  0.00  0.00    +0.000 C 
ENDBRANCH  14  17
ENDBRANCH   8  11
BRANCH   1  20
ATOM     19  C   UNL     1       4.004   3.321  11.265  0.00  0.00    +0.000 C 
ATOM     20  C   UNL     1       5.301   2.746  11.800  0.00  0.00    +0.000 C 
ENDBRANCH   1  20
BRANCH   3  21
ATOM     21  O   UNL     1       8.865   5.892  13.158  0.00  0.00    +0.000 OA
ATOM     22  H   UNL     1       9.597   5.291  12.952  0.00  0.00    +0.000 HD
ENDBRANCH   3  21
TORSDOF 4
ENDMDL
MODEL 3
REMARK VINA RESULT:      -7.5      3.595      5.484
REMARK  Name = 
REMARK  7 active torsions:
REMARK  status: ('A' for Active; 'I' for Inactive)
REMARK    1  A    between atoms: C_1  and  C_2
REMARK    2  A    between atoms: C_2  and  C_3
REMARK    3  A    between atoms: C_5  and  O_6
REMARK    4  A    between atoms: C_9  and  C_10
REMARK    5  A    between atoms: C_11  and  C_12
REMARK    6  A    between atoms: C_15  and  O_16
REMARK    7  A    between atoms: O_16  and  C_17
REMARK                            x       y       z     vdW  Elec       q    Type
REMARK                         _______ _______ _______ _____ _____    ______ ____
ROOT
ATOM      1  C   UNL     1       6.580   6.647  17.093  0.00  0.00    +0.000 A 
ATOM      2  C   UNL     1       6.951   5.301  16.557  0.00  0.00    +0.000 A 
ATOM      3  C   UNL     1       5.971   4.387  16.532  0.00  0.00    +0.000 A 
ATOM      4  N   UNL     1       4.690   4.723  17.018  0.00  0.00    +0.000 N 
ATOM      5  N   UNL     1       3.584   3.940  17.054  0.00  0.00    +0.000 NA
ATOM      6  C   UNL     1       2.643   4.687  17.635  0.00  0.00    +0.000 A 
ATOM      7  C   UNL     1       1.286   4.101  17.806  0.00  0.00    +0.000 C 
ATOM      8  C   UNL     1       3.122   5.980  17.996  0.00  0.00    +0.000 A 
ATOM      9  C   UNL     1       4.440   5.994  17.554  0.00  0.00    +0.000 A 
ATOM     10  N   UNL     1       5.415   6.961  17.578  0.00  0.00    +0.000 NA
ENDROOT
BRANCH   8  11
ATOM     11  C   UNL     1       2.466   7.091  18.689  0.00  0.00    +0.000 A 
ATOM     12  C   UNL     1       2.089   8.249  17.995  0.00  0.00    +0.000 A 
ATOM     13  C   UNL     1       1.435   9.301  18.646  0.00  0.00    +0.000 A 
ATOM     14  C   UNL     1       1.108   9.203  19.995  0.00  0.00    +0.000 A 
ATOM     15  C   UNL     1       1.488   8.068  20.705  0.00  0.00    +0.000 A 
ATOM     16  C   UNL     1       2.170   7.029  20.059  0.00  0.00    +0.000 A 
BRANCH  14  17
ATOM     17  O   UNL     1       0.465  10.286  20.528  0.00  0.00    +0.000 OA
ATOM     18  C   UNL     1       0.229  10.222  21.931  0.00  0.00    +0.000 C 
ENDBRANCH  14  17
ENDBRANCH   8  11
BRANCH   1  20
ATOM     19  C   UNL     1       8.262   7.932  18.430  0.00  0.00    +0.000 C 
ATOM     20  C   UNL     1       7.657   7.716  17.056  0.00  0.00    +0.000 C 
ENDBRANCH   1  20
BRANCH   3  21
ATOM     21  O   UNL     1       6.189   3.105  16.043  0.00  0.00    +0.000 OA
ATOM     22  H   UNL     1       5.466   2.522  16.323  0.00  0.00    +0.000 HD
ENDBRANCH   3  21
TORSDOF 4
ENDMDL
MODEL 4
REMARK VINA RESULT:      -7.4      3.578      5.552
REMARK  Name = 
REMARK  7 active torsions:
REMARK  status: ('A' for Active; 'I' for Inactive)
REMARK    1  A    between atoms: C_1  and  C_2
REMARK    2  A    between atoms: C_2  and  C_3
REMARK    3  A    between atoms: C_5  and  O_6
REMARK    4  A    between atoms: C_9  and  C_10
REMARK    5  A    between atoms: C_11  and  C_12
REMARK    6  A    between atoms: C_15  and  O_16
REMARK    7  A    between atoms: O_16  and  C_17
REMARK                            x       y       z     vdW  Elec       q    Type
REMARK                         _______ _______ _______ _____ _____    ______ ____
ROOT
ATOM      1  C   UNL     1       6.544   6.671  17.121  0.00  0.00    +0.000 A 
ATOM      2  C   UNL     1       6.941   5.335  16.582  0.00  0.00    +0.000 A 
ATOM      3  C   UNL     1       5.977   4.405  16.543  0.00  0.00    +0.000 A 
ATOM      4  N   UNL     1       4.686   4.717  17.020  0.00  0.00    +0.000 N 
ATOM      5  N   UNL     1       3.593   3.917  17.042  0.00  0.00    +0.000 NA
ATOM      6  C   UNL     1       2.635   4.645  17.619  0.00  0.00    +0.000 A 
ATOM      7  C   UNL     1       1.286   4.037  17.775  0.00  0.00    +0.000 C 
ATOM      8  C   UNL     1       3.090   5.944  17.991  0.00  0.00    +0.000 A 
ATOM      9  C   UNL     1       4.411   5.981  17.560  0.00  0.00    +0.000 A 
ATOM     10  N   UNL     1       5.370   6.965  17.598  0.00  0.00    +0.000 NA
ENDROOT
BRANCH   8  11
ATOM     11  C   UNL     1       2.410   7.040  18.684  0.00  0.00    +0.000 A 
ATOM     12  C   UNL     1       2.136   6.964  20.056  0.00  0.00    +0.000 A 
ATOM     13  C   UNL     1       1.513   8.021  20.729  0.00  0.00    +0.000 A 
ATOM     14  C   UNL     1       1.187   9.194  20.055  0.00  0.00    +0.000 A 
ATOM     15  C   UNL     1       1.436   9.283  18.689  0.00  0.00    +0.000 A 
ATOM     16  C   UNL     1       2.032   8.211  18.010  0.00  0.00    +0.000 A 
BRANCH  14  17
ATOM     17  O   UNL     1       0.587  10.164  20.810  0.00  0.00    +0.000 OA
ATOM     18  C   UNL     1      -0.594  10.726  20.249  0.00  0.00    +0.000 C 
ENDBRANCH  14  17
ENDBRANCH   8  11
BRANCH   1  20
ATOM     19  C   UNL     1       8.284   7.888  18.448  0.00  0.00    +0.000 C 
ATOM     20  C   UNL     1       7.604   7.758  17.099  0.00  0.00    +0.000 C 
ENDBRANCH   1  20
BRANCH   3  21
ATOM     21  O   UNL     1       6.219   3.129  16.050  0.00  0.00    +0.000 OA
ATOM     22  H   UNL     1       6.694   2.607  16.715  0.00  0.00    +0.000 HD
ENDBRANCH   3  21
TORSDOF 4
ENDMDL
MODEL 5
REMARK VINA RESULT:      -7.1      2.908      7.331
REMARK  Name = 
REMARK  7 active torsions:
REMARK  status: ('A' for Active; 'I' for Inactive)
REMARK    1  A    between atoms: C_1  and  C_2
REMARK    2  A    between atoms: C_2  and  C_3
REMARK    3  A    between atoms: C_5  and  O_6
REMARK    4  A    between atoms: C_9  and  C_10
REMARK    5  A    between atoms: C_11  and  C_12
REMARK    6  A    between atoms: C_15  and  O_16
REMARK    7  A    between atoms: O_16  and  C_17
REMARK                            x       y       z     vdW  Elec       q    Type
REMARK                         _______ _______ _______ _____ _____    ______ ____
ROOT
ATOM      1  C   UNL     1       2.202   6.197  19.842  0.00  0.00    +0.000 A 
ATOM      2  C   UNL     1       1.261   5.342  20.628  0.00  0.00    +0.000 A 
ATOM      3  C   UNL     1       1.424   4.018  20.503  0.00  0.00    +0.000 A 
ATOM      4  N   UNL     1       2.425   3.515  19.646  0.00  0.00    +0.000 N 
ATOM      5  N   UNL     1       2.744   2.219  19.411  0.00  0.00    +0.000 NA
ATOM      6  C   UNL     1       3.721   2.255  18.502  0.00  0.00    +0.000 A 
ATOM      7  C   UNL     1       4.304   0.965  18.045  0.00  0.00    +0.000 C 
ATOM      8  C   UNL     1       4.059   3.587  18.122  0.00  0.00    +0.000 A 
ATOM      9  C   UNL     1       3.232   4.388  18.902  0.00  0.00    +0.000 A 
ATOM     10  N   UNL     1       3.106   5.750  19.020  0.00  0.00    +0.000 NA
ENDROOT
BRANCH   8  11
ATOM     11  C   UNL     1       5.018   4.092  17.138  0.00  0.00    +0.000 A 
ATOM     12  C   UNL     1       6.239   4.649  17.545  0.00  0.00    +0.000 A 
ATOM     13  C   UNL     1       7.173   5.107  16.608  0.00  0.00    +0.000 A 
ATOM     14  C   UNL     1       6.925   4.982  15.244  0.00  0.00    +0.000 A 
ATOM     15  C   UNL     1       5.712   4.447  14.821  0.00  0.00    +0.000 A 
ATOM     16  C   UNL     1       4.765   4.017  15.761  0.00  0.00    +0.000 A 
BRANCH  14  17
ATOM     17  O   UNL     1       7.906   5.456  14.418  0.00  0.00    +0.000 OA
ATOM     18  C   UNL     1       7.712   5.196  13.032  0.00  0.00    +0.000 C 
ENDBRANCH  14  17
ENDBRANCH   8  11
BRANCH   1  20
ATOM     19  C   UNL     1       1.122   8.032  21.158  0.00  0.00    +0.000 C 
ATOM     20  C   UNL     1       2.082   7.698  20.033  0.00  0.00    +0.000 C 
ENDBRANCH   1  20
BRANCH   3  21
ATOM     21  O   UNL     1       0.620   3.120  21.194  0.00  0.00    +0.000 OA
ATOM     22  H   UNL     1      -0.269   3.494  21.301  0.00  0.00    +0.000 HD
ENDBRANCH   3  21
TORSDOF 4
ENDMDL
MODEL 6
REMARK VINA RESULT:      -7.1      2.815      7.146
REMARK  Name = 
REMARK  7 active torsions:
REMARK  status: ('A' for Active; 'I' for Inactive)
REMARK    1  A    between atoms: C_1  and  C_2
REMARK    2  A    between atoms: C_2  and  C_3
REMARK    3  A    between atoms: C_5  and  O_6
REMARK    4  A    between atoms: C_9  and  C_10
REMARK    5  A    between atoms: C_11  and  C_12
REMARK    6  A    between atoms: C_15  and  O_16
REMARK    7  A    between atoms: O_16  and  C_17
REMARK                            x       y       z     vdW  Elec       q    Type
REMARK                         _______ _______ _______ _____ _____    ______ ____
ROOT
ATOM      1  C   UNL     1       2.197   6.215  19.712  0.00  0.00    +0.000 A 
ATOM      2  C   UNL     1       1.220   5.382  20.478  0.00  0.00    +0.000 A 
ATOM      3  C   UNL     1       1.374   4.054  20.379  0.00  0.00    +0.000 A 
ATOM      4  N   UNL     1       2.399   3.528  19.564  0.00  0.00    +0.000 N 
ATOM      5  N   UNL     1       2.711   2.226  19.360  0.00  0.00    +0.000 NA
ATOM      6  C   UNL     1       3.719   2.238  18.485  0.00  0.00    +0.000 A 
ATOM      7  C   UNL     1       4.304   0.936  18.067  0.00  0.00    +0.000 C 
ATOM      8  C   UNL     1       4.084   3.560  18.096  0.00  0.00    +0.000 A 
ATOM      9  C   UNL     1       3.240   4.381  18.836  0.00  0.00    +0.000 A 
ATOM     10  N   UNL     1       3.124   5.747  18.929  0.00  0.00    +0.000 NA
ENDROOT
BRANCH   8  11
ATOM     11  C   UNL     1       5.082   4.041  17.139  0.00  0.00    +0.000 A 
ATOM     12  C   UNL     1       4.774   4.158  15.777  0.00  0.00    +0.000 A 
ATOM     13  C   UNL     1       5.715   4.645  14.862  0.00  0.00    +0.000 A 
ATOM     14  C   UNL     1       6.970   5.064  15.294  0.00  0.00    +0.000 A 
ATOM     15  C   UNL     1       7.300   4.940  16.640  0.00  0.00    +0.000 A 
ATOM     16  C   UNL     1       6.368   4.424  17.550  0.00  0.00    +0.000 A 
BRANCH  14  17
ATOM     17  O   UNL     1       7.808   5.527  14.317  0.00  0.00    +0.000 OA
ATOM     18  C   UNL     1       7.559   5.017  13.012  0.00  0.00    +0.000 C 
ENDBRANCH  14  17
ENDBRANCH   8  11
BRANCH   1  20
ATOM     19  C   UNL     1       2.059   8.418  18.530  0.00  0.00    +0.000 C 
ATOM     20  C   UNL     1       2.086   7.720  19.876  0.00  0.00    +0.000 C 
ENDBRANCH   1  20
BRANCH   3  21
ATOM     21  O   UNL     1       0.537   3.176  21.055  0.00  0.00    +0.000 OA
ATOM     22  H   UNL     1       0.270   3.566  21.902  0.00  0.00    +0.000 HD
ENDBRANCH   3  21
TORSDOF 4
ENDMDL
MODEL 7
REMARK VINA RESULT:      -6.9      3.929      6.422
REMARK  Name = 
REMARK  7 active torsions:
REMARK  status: ('A' for Active; 'I' for Inactive)
REMARK    1  A    between atoms: C_1  and  C_2
REMARK    2  A    between atoms: C_2  and  C_3
REMARK    3  A    between atoms: C_5  and  O_6
REMARK    4  A    between atoms: C_9  and  C_10
REMARK    5  A    between atoms: C_11  and  C_12
REMARK    6  A    between atoms: C_15  and  O_16
REMARK    7  A    between atoms: O_16  and  C_17
REMARK                            x       y       z     vdW  Elec       q    Type
REMARK                         _______ _______ _______ _____ _____    ______ ____
ROOT
ATOM      1  C   UNL     1       1.874   3.140  19.546  0.00  0.00    +0.000 A 
ATOM      2  C   UNL     1       2.687   2.149  18.776  0.00  0.00    +0.000 A 
ATOM      3  C   UNL     1       3.580   2.660  17.917  0.00  0.00    +0.000 A 
ATOM      4  N   UNL     1       3.686   4.060  17.771  0.00  0.00    +0.000 N 
ATOM      5  N   UNL     1       4.537   4.749  16.973  0.00  0.00    +0.000 NA
ATOM      6  C   UNL     1       4.227   6.034  17.154  0.00  0.00    +0.000 A 
ATOM      7  C   UNL     1       5.011   7.058  16.413  0.00  0.00    +0.000 C 
ATOM      8  C   UNL     1       3.157   6.209  18.080  0.00  0.00    +0.000 A 
ATOM      9  C   UNL     1       2.847   4.918  18.495  0.00  0.00    +0.000 A 
ATOM     10  N   UNL     1       1.935   4.430  19.398  0.00  0.00    +0.000 NA
ENDROOT
BRANCH   8  11
ATOM     11  C   UNL     1       2.467   7.417  18.536  0.00  0.00    +0.000 A 
ATOM     12  C   UNL     1       2.123   8.433  17.633  0.00  0.00    +0.000 A 
ATOM     13  C   UNL     1       1.436   9.576  18.058  0.00  0.00    +0.000 A 
ATOM     14  C   UNL     1       1.042   9.711  19.386  0.00  0.00    +0.000 A 
ATOM     15  C   UNL     1       1.389   8.721  20.301  0.00  0.00    +0.000 A 
ATOM     16  C   UNL     1       2.103   7.592  19.880  0.00  0.00    +0.000 A 
BRANCH  14  17
ATOM     17  O   UNL     1       0.373  10.864  19.690  0.00  0.00    +0.000 OA
ATOM     18  C   UNL     1      -0.346  10.842  20.919  0.00  0.00    +0.000 C 
ENDBRANCH  14  17
ENDBRANCH   8  11
BRANCH   1  20
ATOM     19  C   UNL     1       1.560   2.511  21.950  0.00  0.00    +0.000 C 
ATOM     20  C   UNL     1       0.914   2.578  20.579  0.00  0.00    +0.000 C 
ENDBRANCH   1  20
BRANCH   3  21
ATOM     21  O   UNL     1       4.403   1.841  17.155  0.00  0.00    +0.000 OA
ATOM     22  H   UNL     1       4.665   2.306  16.345  0.00  0.00    +0.000 HD
ENDBRANCH   3  21
TORSDOF 4
ENDMDL
MODEL 8
REMARK VINA RESULT:      -6.9      4.282      6.427
REMARK  Name = 
REMARK  7 active torsions:
REMARK  status: ('A' for Active; 'I' for Inactive)
REMARK    1  A    between atoms: C_1  and  C_2
REMARK    2  A    between atoms: C_2  and  C_3
REMARK    3  A    between atoms: C_5  and  O_6
REMARK    4  A    between atoms: C_9  and  C_10
REMARK    5  A    between atoms: C_11  and  C_12
REMARK    6  A    between atoms: C_15  and  O_16
REMARK    7  A    between atoms: O_16  and  C_17
REMARK                            x       y       z     vdW  Elec       q    Type
REMARK                         _______ _______ _______ _____ _____    ______ ____
ROOT
ATOM      1  C   UNL     1       5.945   5.866  17.883  0.00  0.00    +0.000 A 
ATOM      2  C   UNL     1       6.222   4.462  18.314  0.00  0.00    +0.000 A 
ATOM      3  C   UNL     1       5.235   3.845  18.980  0.00  0.00    +0.000 A 
ATOM      4  N   UNL     1       4.037   4.538  19.253  0.00  0.00    +0.000 N 
ATOM      5  N   UNL     1       2.936   4.073  19.892  0.00  0.00    +0.000 NA
ATOM      6  C   UNL     1       2.093   5.107  19.938  0.00  0.00    +0.000 A 
ATOM      7  C   UNL     1       0.765   4.903  20.576  0.00  0.00    +0.000 C 
ATOM      8  C   UNL     1       2.635   6.276  19.329  0.00  0.00    +0.000 A 
ATOM      9  C   UNL     1       3.880   5.874  18.859  0.00  0.00    +0.000 A 
ATOM     10  N   UNL     1       4.861   6.531  18.158  0.00  0.00    +0.000 NA
ENDROOT
BRANCH   8  11
ATOM     11  C   UNL     1       2.094   7.631  19.196  0.00  0.00    +0.000 A 
ATOM     12  C   UNL     1       2.093   8.287  17.958  0.00  0.00    +0.000 A 
ATOM     13  C   UNL     1       1.551   9.570  17.819  0.00  0.00    +0.000 A 
ATOM     14  C   UNL     1       0.961  10.209  18.906  0.00  0.00    +0.000 A 
ATOM     15  C   UNL     1       0.967   9.581  20.148  0.00  0.00    +0.000 A 
ATOM     16  C   UNL     1       1.538   8.309  20.291  0.00  0.00    +0.000 A 
BRANCH  14  17
ATOM     17  O   UNL     1       0.458  11.456  18.658  0.00  0.00    +0.000 OA
ATOM     18  C   UNL     1      -0.961  11.556  18.694  0.00  0.00    +0.000 C 
ENDBRANCH  14  17
ENDBRANCH   8  11
BRANCH   1  20
ATOM     19  C   UNL     1       7.746   7.605  17.876  0.00  0.00    +0.000 C 
ATOM     20  C   UNL     1       7.021   6.552  17.061  0.00  0.00    +0.000 C 
ENDBRANCH   1  20
BRANCH   3  21
ATOM     21  O   UNL     1       5.367   2.534  19.419  0.00  0.00    +0.000 OA
ATOM     22  H   UNL     1       4.788   1.955  18.899  0.00  0.00    +0.000 HD
ENDBRANCH   3  21
TORSDOF 4
ENDMDL
MODEL 9
REMARK VINA RESULT:      -6.8      4.318      6.433
REMARK  Name = 
REMARK  7 active torsions:
REMARK  status: ('A' for Active; 'I' for Inactive)
REMARK    1  A    between atoms: C_1  and  C_2
REMARK    2  A    between atoms: C_2  and  C_3
REMARK    3  A    between atoms: C_5  and  O_6
REMARK    4  A    between atoms: C_9  and  C_10
REMARK    5  A    between atoms: C_11  and  C_12
REMARK    6  A    between atoms: C_15  and  O_16
REMARK    7  A    between atoms: O_16  and  C_17
REMARK                            x       y       z     vdW  Elec       q    Type
REMARK                         _______ _______ _______ _____ _____    ______ ____
ROOT
ATOM      1  C   UNL     1       5.915   5.931  17.870  0.00  0.00    +0.000 A 
ATOM      2  C   UNL     1       6.210   4.533  18.309  0.00  0.00    +0.000 A 
ATOM      3  C   UNL     1       5.231   3.907  18.978  0.00  0.00    +0.000 A 
ATOM      4  N   UNL     1       4.024   4.585  19.246  0.00  0.00    +0.000 N 
ATOM      5  N   UNL     1       2.929   4.110  19.886  0.00  0.00    +0.000 NA
ATOM      6  C   UNL     1       2.072   5.133  19.926  0.00  0.00    +0.000 A 
ATOM      7  C   UNL     1       0.746   4.915  20.564  0.00  0.00    +0.000 C 
ATOM      8  C   UNL     1       2.598   6.305  19.310  0.00  0.00    +0.000 A 
ATOM      9  C   UNL     1       3.849   5.917  18.844  0.00  0.00    +0.000 A 
ATOM     10  N   UNL     1       4.822   6.583  18.140  0.00  0.00    +0.000 NA
ENDROOT
BRANCH   8  11
ATOM     11  C   UNL     1       2.040   7.652  19.170  0.00  0.00    +0.000 A 
ATOM     12  C   UNL     1       1.504   8.327  20.275  0.00  0.00    +0.000 A 
ATOM     13  C   UNL     1       0.996   9.626  20.152  0.00  0.00    +0.000 A 
ATOM     14  C   UNL     1       1.049  10.293  18.932  0.00  0.00    +0.000 A 
ATOM     15  C   UNL     1       1.562   9.633  17.819  0.00  0.00    +0.000 A 
ATOM     16  C   UNL     1       2.042   8.322  17.937  0.00  0.00    +0.000 A 
BRANCH  14  17
ATOM     17  O   UNL     1       0.530  11.558  18.926  0.00  0.00    +0.000 OA
ATOM     18  C   UNL     1      -0.716  11.706  19.598  0.00  0.00    +0.000 C 
ENDBRANCH  14  17
ENDBRANCH   8  11
BRANCH   1  20
ATOM     19  C   UNL     1       7.799   7.580  17.895  0.00  0.00    +0.000 C 
ATOM     20  C   UNL     1       6.983   6.626  17.045  0.00  0.00    +0.000 C 
ENDBRANCH   1  20
BRANCH   3  21
ATOM     21  O   UNL     1       5.380   2.600  19.425  0.00  0.00    +0.000 OA
ATOM     22  H   UNL     1       4.510   2.226  19.634  0.00  0.00    +0.000 HD
ENDBRANCH   3  21
TORSDOF 4
ENDMDL
