MODEL 1
REMARK VINA RESULT:      -9.2      0.000      0.000
REMARK  Name = 
REMARK  6 active torsions:
REMARK  status: ('A' for Active; 'I' for Inactive)
REMARK    1  A    between atoms: C_1  and  C_2
REMARK    2  A    between atoms: C_2  and  C_3
REMARK    3  A    between atoms: C_2  and  C_25
REMARK    4  A    between atoms: C_7  and  C_8
REMARK    5  A    between atoms: N_13  and  C_14
REMARK    6  A    between atoms: C_19  and  C_20
REMARK                            x       y       z     vdW  Elec       q    Type
REMARK                         _______ _______ _______ _____ _____    ______ ____
ROOT
ATOM      1  C   UNL     1       2.020   6.669  18.922  0.00  0.00    +0.000 A 
ATOM      2  C   UNL     1       2.335   7.454  17.806  0.00  0.00    +0.000 A 
ATOM      3  C   UNL     1       2.228   8.846  17.857  0.00  0.00    +0.000 A 
ATOM      4  C   UNL     1       1.805   9.483  19.023  0.00  0.00    +0.000 A 
ATOM      5  C   UNL     1       1.514   8.749  20.180  0.00  0.00    +0.000 A 
ATOM      6  C   UNL     1       1.626   7.342  20.126  0.00  0.00    +0.000 A 
ENDROOT
BRANCH   5   7
ATOM      7  C   UNL     1       0.950   9.548  21.317  0.00  0.00    +0.000 C 
ATOM      8  O   UNL     1       1.461   9.336  22.420  0.00  0.00    +0.000 OA
ATOM      9  N   UNL     1      -0.082  10.468  21.181  0.00  0.00    +0.000 N 
ATOM     10  C   UNL     1      -0.461  11.291  22.357  0.00  0.00    +0.000 C 
ATOM     11  C   UNL     1      -0.425  12.798  22.013  0.00  0.00    +0.000 C 
ATOM     12  N   UNL     1      -1.287  13.002  20.835  0.00  0.00    +0.000 N 
ATOM     13  C   UNL     1      -0.846  12.240  19.651  0.00  0.00    +0.000 C 
ATOM     14  C   UNL     1      -0.910  10.734  19.996  0.00  0.00    +0.000 C 
BRANCH  12  15
ATOM     15  C   UNL     1      -1.966  14.198  20.702  0.00  0.00    +0.000 A 
ATOM     16  N   UNL     1      -1.258  15.295  20.339  0.00  0.00    +0.000 NA
ATOM     17  C   UNL     1      -1.879  16.490  20.286  0.00  0.00    +0.000 A 
ATOM     18  C   UNL     1      -3.221  16.686  20.552  0.00  0.00    +0.000 A 
ATOM     19  C   UNL     1      -3.951  15.585  20.936  0.00  0.00    +0.000 A 
ATOM     20  C   UNL     1      -3.323  14.324  21.030  0.00  0.00    +0.000 A 
BRANCH  20  21
ATOM     21  C   UNL     1      -4.089  13.221  21.537  0.00  0.00    +0.000 C 
ATOM     22  N   UNL     1      -4.731  12.342  21.947  0.00  0.00    +0.000 NA
ENDBRANCH  20  21
ENDBRANCH  12  15
ENDBRANCH   5   7
BRANCH   1  24
ATOM     23  C   UNL     1       2.286   4.781  20.463  0.00  0.00    +0.000 C 
ATOM     24  C   UNL     1       2.394   5.187  18.951  0.00  0.00    +0.000 C 
BRANCH  24  25
ATOM     25  C   UNL     1       3.736   4.564  18.442  0.00  0.00    +0.000 A 
ATOM     26  N   UNL     1       4.174   3.627  19.254  0.00  0.00    +0.000 NA
ATOM     27  N   UNL     1       5.557   3.555  19.410  0.00  0.00    +0.000 N 
ATOM     28  C   UNL     1       6.232   4.740  19.130  0.00  0.00    +0.000 A 
ATOM     29  O   UNL     1       6.896   5.427  19.887  0.00  0.00    +0.000 OA
ATOM     30  C   UNL     1       6.017   5.107  17.735  0.00  0.00    +0.000 A 
ATOM     31  C   UNL     1       7.148   5.051  16.905  0.00  0.00    +0.000 A 
ATOM     32  C   UNL     1       6.967   4.728  15.573  0.00  0.00    +0.000 A 
ATOM     33  C   UNL     1       5.665   4.507  15.104  0.00  0.00    +0.000 A 
ATOM     34  C   UNL     1       4.525   4.632  15.954  0.00  0.00    +0.000 A 
ATOM     35  C   UNL     1       4.682   4.974  17.307  0.00  0.00    +0.000 A 
ATOM     36  H   UNL     1       5.886   2.779  18.835  0.00  0.00    +0.000 HD
ENDBRANCH  24  25
ENDBRANCH   1  24
TORSDOF 5
ENDMDL
MODEL 2
REMARK VINA RESULT:      -9.0      2.421      3.948
REMARK  Name = 
REMARK  6 active torsions:
REMARK  status: ('A' for Active; 'I' for Inactive)
REMARK    1  A    between atoms: C_1  and  C_2
REMARK    2  A    between atoms: C_2  and  C_3
REMARK    3  A    between atoms: C_2  and  C_25
REMARK    4  A    between atoms: C_7  and  C_8
REMARK    5  A    between atoms: N_13  and  C_14
REMARK    6  A    between atoms: C_19  and  C_20
REMARK                            x       y       z     vdW  Elec       q    Type
REMARK                         _______ _______ _______ _____ _____    ______ ____
ROOT
ATOM      1  C   UNL     1       1.757   8.291  19.925  0.00  0.00    +0.000 A 
ATOM      2  C   UNL     1       1.246   7.752  21.112  0.00  0.00    +0.000 A 
ATOM      3  C   UNL     1       0.168   8.353  21.767  0.00  0.00    +0.000 A 
ATOM      4  C   UNL     1      -0.423   9.505  21.249  0.00  0.00    +0.000 A 
ATOM      5  C   UNL     1       0.023  10.065  20.045  0.00  0.00    +0.000 A 
ATOM      6  C   UNL     1       1.111   9.452  19.385  0.00  0.00    +0.000 A 
ENDROOT
BRANCH   5   7
ATOM      7  C   UNL     1      -0.616  11.370  19.673  0.00  0.00    +0.000 C 
ATOM      8  O   UNL     1      -0.961  11.476  18.493  0.00  0.00    +0.000 OA
ATOM      9  N   UNL     1      -0.817  12.416  20.565  0.00  0.00    +0.000 N 
ATOM     10  C   UNL     1      -1.579  13.604  20.106  0.00  0.00    +0.000 C 
ATOM     11  C   UNL     1      -2.763  13.903  21.056  0.00  0.00    +0.000 C 
ATOM     12  N   UNL     1      -2.215  14.030  22.418  0.00  0.00    +0.000 N 
ATOM     13  C   UNL     1      -1.532  12.810  22.888  0.00  0.00    +0.000 C 
ATOM     14  C   UNL     1      -0.336  12.534  21.948  0.00  0.00    +0.000 C 
BRANCH  12  15
ATOM     15  C   UNL     1      -2.826  14.894  23.307  0.00  0.00    +0.000 A 
ATOM     16  N   UNL     1      -4.179  14.890  23.370  0.00  0.00    +0.000 NA
ATOM     17  C   UNL     1      -4.802  15.783  24.165  0.00  0.00    +0.000 A 
ATOM     18  C   UNL     1      -4.152  16.707  24.962  0.00  0.00    +0.000 A 
ATOM     19  C   UNL     1      -2.779  16.733  24.898  0.00  0.00    +0.000 A 
ATOM     20  C   UNL     1      -2.098  15.832  24.052  0.00  0.00    +0.000 A 
BRANCH  20  21
ATOM     21  C   UNL     1      -0.673  15.961  23.930  0.00  0.00    +0.000 C 
ATOM     22  N   UNL     1       0.478  16.079  23.808  0.00  0.00    +0.000 NA
ENDBRANCH  20  21
ENDBRANCH  12  15
ENDBRANCH   5   7
BRANCH   1  24
ATOM     23  C   UNL     1       2.309   7.766  17.595  0.00  0.00    +0.000 C 
ATOM     24  C   UNL     1       2.744   7.490  19.077  0.00  0.00    +0.000 C 
BRANCH  24  25
ATOM     25  C   UNL     1       2.994   5.947  19.163  0.00  0.00    +0.000 A 
ATOM     26  N   UNL     1       4.268   5.671  19.337  0.00  0.00    +0.000 NA
ATOM     27  N   UNL     1       4.737   4.531  18.688  0.00  0.00    +0.000 N 
ATOM     28  C   UNL     1       3.988   4.148  17.579  0.00  0.00    +0.000 A 
ATOM     29  O   UNL     1       4.341   4.090  16.414  0.00  0.00    +0.000 OA
ATOM     30  C   UNL     1       2.629   3.826  17.996  0.00  0.00    +0.000 A 
ATOM     31  C   UNL     1       2.254   2.478  17.877  0.00  0.00    +0.000 A 
ATOM     32  C   UNL     1       1.346   1.968  18.785  0.00  0.00    +0.000 A 
ATOM     33  C   UNL     1       0.814   2.824  19.759  0.00  0.00    +0.000 A 
ATOM     34  C   UNL     1       1.162   4.207  19.820  0.00  0.00    +0.000 A 
ATOM     35  C   UNL     1       2.071   4.751  18.899  0.00  0.00    +0.000 A 
ATOM     36  H   UNL     1       4.799   3.790  19.387  0.00  0.00    +0.000 HD
ENDBRANCH  24  25
ENDBRANCH   1  24
TORSDOF 5
ENDMDL
MODEL 3
REMARK VINA RESULT:      -9.0      2.310      3.582
REMARK  Name = 
REMARK  6 active torsions:
REMARK  status: ('A' for Active; 'I' for Inactive)
REMARK    1  A    between atoms: C_1  and  C_2
REMARK    2  A    between atoms: C_2  and  C_3
REMARK    3  A    between atoms: C_2  and  C_25
REMARK    4  A    between atoms: C_7  and  C_8
REMARK    5  A    between atoms: N_13  and  C_14
REMARK    6  A    between atoms: C_19  and  C_20
REMARK                            x       y       z     vdW  Elec       q    Type
REMARK                         _______ _______ _______ _____ _____    ______ ____
ROOT
ATOM      1  C   UNL     1       1.824   8.188  19.911  0.00  0.00    +0.000 A 
ATOM      2  C   UNL     1       1.318   7.652  21.102  0.00  0.00    +0.000 A 
ATOM      3  C   UNL     1       0.209   8.223  21.731  0.00  0.00    +0.000 A 
ATOM      4  C   UNL     1      -0.419   9.342  21.184  0.00  0.00    +0.000 A 
ATOM      5  C   UNL     1       0.022   9.895  19.975  0.00  0.00    +0.000 A 
ATOM      6  C   UNL     1       1.141   9.313  19.341  0.00  0.00    +0.000 A 
ENDROOT
BRANCH   5   7
ATOM      7  C   UNL     1      -0.662  11.167  19.570  0.00  0.00    +0.000 C 
ATOM      8  O   UNL     1      -1.168  11.164  18.444  0.00  0.00    +0.000 OA
ATOM      9  N   UNL     1      -0.736  12.297  20.374  0.00  0.00    +0.000 N 
ATOM     10  C   UNL     1      -1.554  13.447  19.912  0.00  0.00    +0.000 C 
ATOM     11  C   UNL     1      -2.594  13.852  20.983  0.00  0.00    +0.000 C 
ATOM     12  N   UNL     1      -1.861  14.102  22.237  0.00  0.00    +0.000 N 
ATOM     13  C   UNL     1      -1.121  12.924  22.725  0.00  0.00    +0.000 C 
ATOM     14  C   UNL     1      -0.067  12.542  21.660  0.00  0.00    +0.000 C 
BRANCH  12  15
ATOM     15  C   UNL     1      -2.341  15.057  23.113  0.00  0.00    +0.000 A 
ATOM     16  N   UNL     1      -1.733  16.268  23.131  0.00  0.00    +0.000 NA
ATOM     17  C   UNL     1      -2.126  17.187  24.035  0.00  0.00    +0.000 A 
ATOM     18  C   UNL     1      -3.143  16.997  24.951  0.00  0.00    +0.000 A 
ATOM     19  C   UNL     1      -3.761  15.769  24.956  0.00  0.00    +0.000 A 
ATOM     20  C   UNL     1      -3.353  14.774  24.041  0.00  0.00    +0.000 A 
BRANCH  20  21
ATOM     21  C   UNL     1      -3.946  13.470  24.147  0.00  0.00    +0.000 C 
ATOM     22  N   UNL     1      -4.442  12.424  24.252  0.00  0.00    +0.000 NA
ENDBRANCH  20  21
ENDBRANCH  12  15
ENDBRANCH   5   7
BRANCH   1  24
ATOM     23  C   UNL     1       2.506   7.746  17.599  0.00  0.00    +0.000 C 
ATOM     24  C   UNL     1       2.852   7.410  19.092  0.00  0.00    +0.000 C 
BRANCH  24  25
ATOM     25  C   UNL     1       3.085   5.863  19.133  0.00  0.00    +0.000 A 
ATOM     26  N   UNL     1       4.356   5.568  19.307  0.00  0.00    +0.000 NA
ATOM     27  N   UNL     1       4.818   4.443  18.627  0.00  0.00    +0.000 N 
ATOM     28  C   UNL     1       4.072   4.101  17.502  0.00  0.00    +0.000 A 
ATOM     29  O   UNL     1       4.431   4.074  16.338  0.00  0.00    +0.000 OA
ATOM     30  C   UNL     1       2.706   3.781  17.902  0.00  0.00    +0.000 A 
ATOM     31  C   UNL     1       2.318   2.441  17.740  0.00  0.00    +0.000 A 
ATOM     32  C   UNL     1       1.399   1.914  18.627  0.00  0.00    +0.000 A 
ATOM     33  C   UNL     1       0.869   2.746  19.622  0.00  0.00    +0.000 A 
ATOM     34  C   UNL     1       1.232   4.123  19.727  0.00  0.00    +0.000 A 
ATOM     35  C   UNL     1       2.152   4.685  18.828  0.00  0.00    +0.000 A 
ATOM     36  H   UNL     1       4.867   3.681  19.304  0.00  0.00    +0.000 HD
ENDBRANCH  24  25
ENDBRANCH   1  24
TORSDOF 5
ENDMDL
MODEL 4
REMARK VINA RESULT:      -8.8      1.582      2.464
REMARK  Name = 
REMARK  6 active torsions:
REMARK  status: ('A' for Active; 'I' for Inactive)
REMARK    1  A    between atoms: C_1  and  C_2
REMARK    2  A    between atoms: C_2  and  C_3
REMARK    3  A    between atoms: C_2  and  C_25
REMARK    4  A    between atoms: C_7  and  C_8
REMARK    5  A    between atoms: N_13  and  C_14
REMARK    6  A    between atoms: C_19  and  C_20
REMARK                            x       y       z     vdW  Elec       q    Type
REMARK                         _______ _______ _______ _____ _____    ______ ____
ROOT
ATOM      1  C   UNL     1       2.140   6.362  19.043  0.00  0.00    +0.000 A 
ATOM      2  C   UNL     1       1.751   6.242  20.384  0.00  0.00    +0.000 A 
ATOM      3  C   UNL     1       1.308   7.354  21.103  0.00  0.00    +0.000 A 
ATOM      4  C   UNL     1       1.243   8.610  20.500  0.00  0.00    +0.000 A 
ATOM      5  C   UNL     1       1.583   8.779  19.151  0.00  0.00    +0.000 A 
ATOM      6  C   UNL     1       2.028   7.652  18.427  0.00  0.00    +0.000 A 
ENDROOT
BRANCH   5   7
ATOM      7  C   UNL     1       1.588  10.199  18.669  0.00  0.00    +0.000 C 
ATOM      8  O   UNL     1       1.976  10.366  17.509  0.00  0.00    +0.000 OA
ATOM      9  N   UNL     1       1.200  11.283  19.447  0.00  0.00    +0.000 N 
ATOM     10  C   UNL     1       1.124  12.623  18.812  0.00  0.00    +0.000 C 
ATOM     11  C   UNL     1      -0.269  13.259  19.025  0.00  0.00    +0.000 C 
ATOM     12  N   UNL     1      -0.534  13.265  20.474  0.00  0.00    +0.000 N 
ATOM     13  C   UNL     1      -0.538  11.917  21.073  0.00  0.00    +0.000 C 
ATOM     14  C   UNL     1       0.866  11.300  20.878  0.00  0.00    +0.000 C 
BRANCH  12  15
ATOM     15  C   UNL     1      -1.296  14.287  21.011  0.00  0.00    +0.000 A 
ATOM     16  N   UNL     1      -2.595  14.375  20.637  0.00  0.00    +0.000 NA
ATOM     17  C   UNL     1      -3.336  15.411  21.078  0.00  0.00    +0.000 A 
ATOM     18  C   UNL     1      -2.872  16.400  21.924  0.00  0.00    +0.000 A 
ATOM     19  C   UNL     1      -1.551  16.333  22.301  0.00  0.00    +0.000 A 
ATOM     20  C   UNL     1      -0.740  15.276  21.833  0.00  0.00    +0.000 A 
BRANCH  20  21
ATOM     21  C   UNL     1       0.658  15.298  22.159  0.00  0.00    +0.000 C 
ATOM     22  N   UNL     1       1.785  15.309  22.448  0.00  0.00    +0.000 NA
ENDBRANCH  20  21
ENDBRANCH  12  15
ENDBRANCH   5   7
BRANCH   1  24
ATOM     23  C   UNL     1       1.517   3.995  18.899  0.00  0.00    +0.000 C 
ATOM     24  C   UNL     1       2.362   5.113  18.191  0.00  0.00    +0.000 C 
BRANCH  24  25
ATOM     25  C   UNL     1       3.742   4.453  17.863  0.00  0.00    +0.000 A 
ATOM     26  N   UNL     1       4.041   3.501  18.721  0.00  0.00    +0.000 NA
ATOM     27  N   UNL     1       5.388   3.390  19.060  0.00  0.00    +0.000 N 
ATOM     28  C   UNL     1       6.127   4.557  18.881  0.00  0.00    +0.000 A 
ATOM     29  O   UNL     1       6.703   5.222  19.724  0.00  0.00    +0.000 OA
ATOM     30  C   UNL     1       6.111   4.933  17.472  0.00  0.00    +0.000 A 
ATOM     31  C   UNL     1       7.342   4.847  16.801  0.00  0.00    +0.000 A 
ATOM     32  C   UNL     1       7.333   4.533  15.455  0.00  0.00    +0.000 A 
ATOM     33  C   UNL     1       6.100   4.350  14.814  0.00  0.00    +0.000 A 
ATOM     34  C   UNL     1       4.860   4.505  15.504  0.00  0.00    +0.000 A 
ATOM     35  C   UNL     1       4.843   4.839  16.867  0.00  0.00    +0.000 A 
ATOM     36  H   UNL     1       5.769   2.606  18.529  0.00  0.00    +0.000 HD
ENDBRANCH  24  25
ENDBRANCH   1  24
TORSDOF 5
ENDMDL
MODEL 5
REMARK VINA RESULT:      -8.7      2.861      4.545
REMARK  Name = 
REMARK  6 active torsions:
REMARK  status: ('A' for Active; 'I' for Inactive)
REMARK    1  A    between atoms: C_1  and  C_2
REMARK    2  A    between atoms: C_2  and  C_3
REMARK    3  A    between atoms: C_2  and  C_25
REMARK    4  A    between atoms: C_7  and  C_8
REMARK    5  A    between atoms: N_13  and  C_14
REMARK    6  A    between atoms: C_19  and  C_20
REMARK                            x       y       z     vdW  Elec       q    Type
REMARK                         _______ _______ _______ _____ _____    ______ ____
ROOT
ATOM      1  C   UNL     1       1.650   8.631  20.077  0.00  0.00    +0.000 A 
ATOM      2  C   UNL     1       1.454   8.304  21.425  0.00  0.00    +0.000 A 
ATOM      3  C   UNL     1       0.418   8.887  22.160  0.00  0.00    +0.000 A 
ATOM      4  C   UNL     1      -0.442   9.809  21.564  0.00  0.00    +0.000 A 
ATOM      5  C   UNL     1      -0.314  10.144  20.210  0.00  0.00    +0.000 A 
ATOM      6  C   UNL     1       0.731   9.550  19.470  0.00  0.00    +0.000 A 
ENDROOT
BRANCH   5   7
ATOM      7  C   UNL     1      -1.223  11.239  19.736  0.00  0.00    +0.000 C 
ATOM      8  O   UNL     1      -1.318  11.358  18.511  0.00  0.00    +0.000 OA
ATOM      9  N   UNL     1      -1.920  12.089  20.585  0.00  0.00    +0.000 N 
ATOM     10  C   UNL     1      -2.889  13.046  19.994  0.00  0.00    +0.000 C 
ATOM     11  C   UNL     1      -4.284  12.895  20.644  0.00  0.00    +0.000 C 
ATOM     12  N   UNL     1      -4.110  13.039  22.100  0.00  0.00    +0.000 N 
ATOM     13  C   UNL     1      -3.208  12.027  22.683  0.00  0.00    +0.000 C 
ATOM     14  C   UNL     1      -1.811  12.203  22.046  0.00  0.00    +0.000 C 
BRANCH  12  15
ATOM     15  C   UNL     1      -5.132  13.598  22.844  0.00  0.00    +0.000 A 
ATOM     16  N   UNL     1      -6.147  12.792  23.237  0.00  0.00    +0.000 NA
ATOM     17  C   UNL     1      -7.197  13.329  23.890  0.00  0.00    +0.000 A 
ATOM     18  C   UNL     1      -7.311  14.666  24.221  0.00  0.00    +0.000 A 
ATOM     19  C   UNL     1      -6.296  15.500  23.816  0.00  0.00    +0.000 A 
ATOM     20  C   UNL     1      -5.195  14.974  23.105  0.00  0.00    +0.000 A 
BRANCH  20  21
ATOM     21  C   UNL     1      -4.209  15.890  22.605  0.00  0.00    +0.000 C 
ATOM     22  N   UNL     1      -3.395  16.625  22.220  0.00  0.00    +0.000 NA
ENDBRANCH  20  21
ENDBRANCH  12  15
ENDBRANCH   5   7
BRANCH   1  24
ATOM     23  C   UNL     1       2.251   8.208  17.738  0.00  0.00    +0.000 C 
ATOM     24  C   UNL     1       2.599   7.800  19.214  0.00  0.00    +0.000 C 
BRANCH  24  25
ATOM     25  C   UNL     1       2.710   6.240  19.205  0.00  0.00    +0.000 A 
ATOM     26  N   UNL     1       3.439   5.811  18.197  0.00  0.00    +0.000 NA
ATOM     27  N   UNL     1       3.023   4.618  17.609  0.00  0.00    +0.000 N 
ATOM     28  C   UNL     1       1.675   4.323  17.793  0.00  0.00    +0.000 A 
ATOM     29  O   UNL     1       0.803   4.216  16.948  0.00  0.00    +0.000 OA
ATOM     30  C   UNL     1       1.399   4.171  19.217  0.00  0.00    +0.000 A 
ATOM     31  C   UNL     1       1.051   2.878  19.640  0.00  0.00    +0.000 A 
ATOM     32  C   UNL     1       1.408   2.488  20.916  0.00  0.00    +0.000 A 
ATOM     33  C   UNL     1       2.068   3.408  21.742  0.00  0.00    +0.000 A 
ATOM     34  C   UNL     1       2.356   4.738  21.312  0.00  0.00    +0.000 A 
ATOM     35  C   UNL     1       1.988   5.163  20.025  0.00  0.00    +0.000 A 
ATOM     36  H   UNL     1       3.632   3.880  17.962  0.00  0.00    +0.000 HD
ENDBRANCH  24  25
ENDBRANCH   1  24
TORSDOF 5
ENDMDL
MODEL 6
REMARK VINA RESULT:      -8.7      1.880      3.009
REMARK  Name = 
REMARK  6 active torsions:
REMARK  status: ('A' for Active; 'I' for Inactive)
REMARK    1  A    between atoms: C_1  and  C_2
REMARK    2  A    between atoms: C_2  and  C_3
REMARK    3  A    between atoms: C_2  and  C_25
REMARK    4  A    between atoms: C_7  and  C_8
REMARK    5  A    between atoms: N_13  and  C_14
REMARK    6  A    between atoms: C_19  and  C_20
REMARK                            x       y       z     vdW  Elec       q    Type
REMARK                         _______ _______ _______ _____ _____    ______ ____
ROOT
ATOM      1  C   UNL     1       3.079   5.551  18.161  0.00  0.00    +0.000 A 
ATOM      2  C   UNL     1       2.772   5.226  19.489  0.00  0.00    +0.000 A 
ATOM      3  C   UNL     1       2.225   6.180  20.352  0.00  0.00    +0.000 A 
ATOM      4  C   UNL     1       1.973   7.477  19.907  0.00  0.00    +0.000 A 
ATOM      5  C   UNL     1       2.225   7.845  18.578  0.00  0.00    +0.000 A 
ATOM      6  C   UNL     1       2.774   6.877  17.709  0.00  0.00    +0.000 A 
ENDROOT
BRANCH   5   7
ATOM      7  C   UNL     1       2.027   9.299  18.272  0.00  0.00    +0.000 C 
ATOM      8  O   UNL     1       2.519   9.691  17.210  0.00  0.00    +0.000 OA
ATOM      9  N   UNL     1       1.349  10.181  19.104  0.00  0.00    +0.000 N 
ATOM     10  C   UNL     1       1.106  11.566  18.626  0.00  0.00    +0.000 C 
ATOM     11  C   UNL     1      -0.397  11.923  18.703  0.00  0.00    +0.000 C 
ATOM     12  N   UNL     1      -0.838  11.679  20.087  0.00  0.00    +0.000 N 
ATOM     13  C   UNL     1      -0.666  10.278  20.517  0.00  0.00    +0.000 C 
ATOM     14  C   UNL     1       0.841   9.940  20.462  0.00  0.00    +0.000 C 
BRANCH  12  15
ATOM     15  C   UNL     1      -1.837  12.472  20.619  0.00  0.00    +0.000 A 
ATOM     16  N   UNL     1      -3.105  12.274  20.186  0.00  0.00    +0.000 NA
ATOM     17  C   UNL     1      -4.084  13.090  20.625  0.00  0.00    +0.000 A 
ATOM     18  C   UNL     1      -3.897  14.121  21.526  0.00  0.00    +0.000 A 
ATOM     19  C   UNL     1      -2.613  14.344  21.965  0.00  0.00    +0.000 A 
ATOM     20  C   UNL     1      -1.560  13.526  21.501  0.00  0.00    +0.000 A 
BRANCH  20  21
ATOM     21  C   UNL     1      -0.220  13.856  21.896  0.00  0.00    +0.000 C 
ATOM     22  N   UNL     1       0.874  14.100  22.206  0.00  0.00    +0.000 NA
ENDBRANCH  20  21
ENDBRANCH  12  15
ENDBRANCH   5   7
BRANCH   1  24
ATOM     23  C   UNL     1       3.061   3.113  17.902  0.00  0.00    +0.000 C 
ATOM     24  C   UNL     1       3.417   4.449  17.158  0.00  0.00    +0.000 C 
BRANCH  24  25
ATOM     25  C   UNL     1       4.812   4.202  16.494  0.00  0.00    +0.000 A 
ATOM     26  N   UNL     1       5.715   3.841  17.381  0.00  0.00    +0.000 NA
ATOM     27  N   UNL     1       7.004   4.324  17.168  0.00  0.00    +0.000 N 
ATOM     28  C   UNL     1       7.067   5.485  16.403  0.00  0.00    +0.000 A 
ATOM     29  O   UNL     1       7.474   6.585  16.733  0.00  0.00    +0.000 OA
ATOM     30  C   UNL     1       6.526   5.224  15.074  0.00  0.00    +0.000 A 
ATOM     31  C   UNL     1       7.448   5.277  14.016  0.00  0.00    +0.000 A 
ATOM     32  C   UNL     1       7.239   4.456  12.924  0.00  0.00    +0.000 A 
ATOM     33  C   UNL     1       6.103   3.635  12.905  0.00  0.00    +0.000 A 
ATOM     34  C   UNL     1       5.147   3.645  13.965  0.00  0.00    +0.000 A 
ATOM     35  C   UNL     1       5.328   4.483  15.078  0.00  0.00    +0.000 A 
ATOM     36  H   UNL     1       7.548   3.563  16.760  0.00  0.00    +0.000 HD
ENDBRANCH  24  25
ENDBRANCH   1  24
TORSDOF 5
ENDMDL
MODEL 7
REMARK VINA RESULT:      -8.7      2.747      3.904
REMARK  Name = 
REMARK  6 active torsions:
REMARK  status: ('A' for Active; 'I' for Inactive)
REMARK    1  A    between atoms: C_1  and  C_2
REMARK    2  A    between atoms: C_2  and  C_3
REMARK    3  A    between atoms: C_2  and  C_25
REMARK    4  A    between atoms: C_7  and  C_8
REMARK    5  A    between atoms: N_13  and  C_14
REMARK    6  A    between atoms: C_19  and  C_20
REMARK                            x       y       z     vdW  Elec       q    Type
REMARK                         _______ _______ _______ _____ _____    ______ ____
ROOT
ATOM      1  C   UNL     1       2.128   7.509  18.545  0.00  0.00    +0.000 A 
ATOM      2  C   UNL     1       2.162   7.306  19.930  0.00  0.00    +0.000 A 
ATOM      3  C   UNL     1       1.487   8.169  20.798  0.00  0.00    +0.000 A 
ATOM      4  C   UNL     1       0.765   9.253  20.300  0.00  0.00    +0.000 A 
ATOM      5  C   UNL     1       0.667   9.481  18.921  0.00  0.00    +0.000 A 
ATOM      6  C   UNL     1       1.348   8.605  18.048  0.00  0.00    +0.000 A 
ENDROOT
BRANCH   5   7
ATOM      7  C   UNL     1      -0.031  10.751  18.533  0.00  0.00    +0.000 C 
ATOM      8  O   UNL     1      -1.171  10.613  18.079  0.00  0.00    +0.000 OA
ATOM      9  N   UNL     1       0.534  12.014  18.653  0.00  0.00    +0.000 N 
ATOM     10  C   UNL     1      -0.308  13.200  18.359  0.00  0.00    +0.000 C 
ATOM     11  C   UNL     1      -0.303  14.191  19.547  0.00  0.00    +0.000 C 
ATOM     12  N   UNL     1       1.103  14.513  19.847  0.00  0.00    +0.000 N 
ATOM     13  C   UNL     1       1.905  13.332  20.218  0.00  0.00    +0.000 C 
ATOM     14  C   UNL     1       1.916  12.360  19.016  0.00  0.00    +0.000 C 
BRANCH  12  15
ATOM     15  C   UNL     1       1.412  15.768  20.335  0.00  0.00    +0.000 A 
ATOM     16  N   UNL     1       0.721  16.221  21.409  0.00  0.00    +0.000 NA
ATOM     17  C   UNL     1       0.944  17.475  21.852  0.00  0.00    +0.000 A 
ATOM     18  C   UNL     1       1.863  18.347  21.300  0.00  0.00    +0.000 A 
ATOM     19  C   UNL     1       2.562  17.907  20.201  0.00  0.00    +0.000 A 
ATOM     20  C   UNL     1       2.331  16.610  19.694  0.00  0.00    +0.000 A 
BRANCH  20  21
ATOM     21  C   UNL     1       2.999  16.226  18.483  0.00  0.00    +0.000 C 
ATOM     22  N   UNL     1       3.522  15.895  17.498  0.00  0.00    +0.000 NA
ENDBRANCH  20  21
ENDBRANCH  12  15
ENDBRANCH   5   7
BRANCH   1  24
ATOM     23  C   UNL     1       1.744   5.171  17.918  0.00  0.00    +0.000 C 
ATOM     24  C   UNL     1       2.632   6.424  17.595  0.00  0.00    +0.000 C 
BRANCH  24  25
ATOM     25  C   UNL     1       4.099   5.887  17.502  0.00  0.00    +0.000 A 
ATOM     26  N   UNL     1       4.143   4.686  16.967  0.00  0.00    +0.000 NA
ATOM     27  N   UNL     1       5.102   3.821  17.491  0.00  0.00    +0.000 N 
ATOM     28  C   UNL     1       5.506   4.125  18.788  0.00  0.00    +0.000 A 
ATOM     29  O   UNL     1       5.377   3.453  19.796  0.00  0.00    +0.000 OA
ATOM     30  C   UNL     1       6.122   5.447  18.810  0.00  0.00    +0.000 A 
ATOM     31  C   UNL     1       7.498   5.477  19.090  0.00  0.00    +0.000 A 
ATOM     32  C   UNL     1       8.261   6.476  18.516  0.00  0.00    +0.000 A 
ATOM     33  C   UNL     1       7.626   7.432  17.712  0.00  0.00    +0.000 A 
ATOM     34  C   UNL     1       6.215   7.417  17.493  0.00  0.00    +0.000 A 
ATOM     35  C   UNL     1       5.416   6.421  18.077  0.00  0.00    +0.000 A 
ATOM     36  H   UNL     1       5.884   3.805  16.837  0.00  0.00    +0.000 HD
ENDBRANCH  24  25
ENDBRANCH   1  24
TORSDOF 5
ENDMDL
MODEL 8
REMARK VINA RESULT:      -8.7      2.167      3.243
REMARK  Name = 
REMARK  6 active torsions:
REMARK  status: ('A' for Active; 'I' for Inactive)
REMARK    1  A    between atoms: C_1  and  C_2
REMARK    2  A    between atoms: C_2  and  C_3
REMARK    3  A    between atoms: C_2  and  C_25
REMARK    4  A    between atoms: C_7  and  C_8
REMARK    5  A    between atoms: N_13  and  C_14
REMARK    6  A    between atoms: C_19  and  C_20
REMARK                            x       y       z     vdW  Elec       q    Type
REMARK                         _______ _______ _______ _____ _____    ______ ____
ROOT
ATOM      1  C   UNL     1       2.287   7.986  18.809  0.00  0.00    +0.000 A 
ATOM      2  C   UNL     1       1.836   8.716  17.702  0.00  0.00    +0.000 A 
ATOM      3  C   UNL     1       0.934   9.771  17.860  0.00  0.00    +0.000 A 
ATOM      4  C   UNL     1       0.464  10.119  19.126  0.00  0.00    +0.000 A 
ATOM      5  C   UNL     1       0.912   9.447  20.271  0.00  0.00    +0.000 A 
ATOM      6  C   UNL     1       1.826   8.383  20.107  0.00  0.00    +0.000 A 
ENDROOT
BRANCH   5   7
ATOM      7  C   UNL     1       0.230   9.839  21.548  0.00  0.00    +0.000 C 
ATOM      8  O   UNL     1       0.640   9.274  22.565  0.00  0.00    +0.000 OA
ATOM      9  N   UNL     1      -0.803  10.765  21.622  0.00  0.00    +0.000 N 
ATOM     10  C   UNL     1      -1.305  11.165  22.961  0.00  0.00    +0.000 C 
ATOM     11  C   UNL     1      -1.267  12.702  23.130  0.00  0.00    +0.000 C 
ATOM     12  N   UNL     1      -2.019  13.288  22.007  0.00  0.00    +0.000 N 
ATOM     13  C   UNL     1      -1.457  12.948  20.687  0.00  0.00    +0.000 C 
ATOM     14  C   UNL     1      -1.523  11.412  20.516  0.00  0.00    +0.000 C 
BRANCH  12  15
ATOM     15  C   UNL     1      -2.707  14.470  22.207  0.00  0.00    +0.000 A 
ATOM     16  N   UNL     1      -1.987  15.589  22.466  0.00  0.00    +0.000 NA
ATOM     17  C   UNL     1      -2.635  16.736  22.749  0.00  0.00    +0.000 A 
ATOM     18  C   UNL     1      -4.010  16.872  22.771  0.00  0.00    +0.000 A 
ATOM     19  C   UNL     1      -4.755  15.743  22.525  0.00  0.00    +0.000 A 
ATOM     20  C   UNL     1      -4.107  14.519  22.254  0.00  0.00    +0.000 A 
BRANCH  20  21
ATOM     21  C   UNL     1      -4.914  13.340  22.109  0.00  0.00    +0.000 C 
ATOM     22  N   UNL     1      -5.588  12.401  21.982  0.00  0.00    +0.000 NA
ENDBRANCH  20  21
ENDBRANCH  12  15
ENDBRANCH   5   7
BRANCH   1  24
ATOM     23  C   UNL     1       3.860   7.101  17.150  0.00  0.00    +0.000 C 
ATOM     24  C   UNL     1       3.466   7.024  18.667  0.00  0.00    +0.000 C 
BRANCH  24  25
ATOM     25  C   UNL     1       3.462   5.500  19.024  0.00  0.00    +0.000 A 
ATOM     26  N   UNL     1       4.440   4.858  18.422  0.00  0.00    +0.000 NA
ATOM     27  N   UNL     1       4.148   3.564  17.997  0.00  0.00    +0.000 N 
ATOM     28  C   UNL     1       2.794   3.317  17.790  0.00  0.00    +0.000 A 
ATOM     29  O   UNL     1       2.230   3.023  16.750  0.00  0.00    +0.000 OA
ATOM     30  C   UNL     1       2.070   3.486  19.045  0.00  0.00    +0.000 A 
ATOM     31  C   UNL     1       1.513   2.319  19.593  0.00  0.00    +0.000 A 
ATOM     32  C   UNL     1       1.418   2.223  20.969  0.00  0.00    +0.000 A 
ATOM     33  C   UNL     1       1.846   3.305  21.751  0.00  0.00    +0.000 A 
ATOM     34  C   UNL     1       2.350   4.506  21.167  0.00  0.00    +0.000 A 
ATOM     35  C   UNL     1       2.442   4.633  19.772  0.00  0.00    +0.000 A 
ATOM     36  H   UNL     1       4.559   2.923  18.676  0.00  0.00    +0.000 HD
ENDBRANCH  24  25
ENDBRANCH   1  24
TORSDOF 5
ENDMDL
MODEL 9
REMARK VINA RESULT:      -8.6      2.994      4.171
REMARK  Name = 
REMARK  6 active torsions:
REMARK  status: ('A' for Active; 'I' for Inactive)
REMARK    1  A    between atoms: C_1  and  C_2
REMARK    2  A    between atoms: C_2  and  C_3
REMARK    3  A    between atoms: C_2  and  C_25
REMARK    4  A    between atoms: C_7  and  C_8
REMARK    5  A    between atoms: N_13  and  C_14
REMARK    6  A    between atoms: C_19  and  C_20
REMARK                            x       y       z     vdW  Elec       q    Type
REMARK                         _______ _______ _______ _____ _____    ______ ____
ROOT
ATOM      1  C   UNL     1       2.141   7.739  18.678  0.00  0.00    +0.000 A 
ATOM      2  C   UNL     1       2.051   7.469  20.050  0.00  0.00    +0.000 A 
ATOM      3  C   UNL     1       1.301   8.293  20.894  0.00  0.00    +0.000 A 
ATOM      4  C   UNL     1       0.625   9.402  20.386  0.00  0.00    +0.000 A 
ATOM      5  C   UNL     1       0.650   9.695  19.016  0.00  0.00    +0.000 A 
ATOM      6  C   UNL     1       1.407   8.859  18.166  0.00  0.00    +0.000 A 
ENDROOT
BRANCH   5   7
ATOM      7  C   UNL     1      -0.012  10.984  18.628  0.00  0.00    +0.000 C 
ATOM      8  O   UNL     1      -1.142  10.876  18.144  0.00  0.00    +0.000 OA
ATOM      9  N   UNL     1       0.576  12.233  18.779  0.00  0.00    +0.000 N 
ATOM     10  C   UNL     1      -0.234  13.441  18.481  0.00  0.00    +0.000 C 
ATOM     11  C   UNL     1      -0.239  14.416  19.682  0.00  0.00    +0.000 C 
ATOM     12  N   UNL     1       1.165  14.704  20.022  0.00  0.00    +0.000 N 
ATOM     13  C   UNL     1       1.934  13.501  20.397  0.00  0.00    +0.000 C 
ATOM     14  C   UNL     1       1.954  12.545  19.182  0.00  0.00    +0.000 C 
BRANCH  12  15
ATOM     15  C   UNL     1       1.488  15.946  20.535  0.00  0.00    +0.000 A 
ATOM     16  N   UNL     1       0.940  16.307  21.720  0.00  0.00    +0.000 NA
ATOM     17  C   UNL     1       1.170  17.545  22.200  0.00  0.00    +0.000 A 
ATOM     18  C   UNL     1       1.963  18.490  21.577  0.00  0.00    +0.000 A 
ATOM     19  C   UNL     1       2.515  18.145  20.366  0.00  0.00    +0.000 A 
ATOM     20  C   UNL     1       2.268  16.866  19.821  0.00  0.00    +0.000 A 
BRANCH  20  21
ATOM     21  C   UNL     1       2.771  16.579  18.507  0.00  0.00    +0.000 C 
ATOM     22  N   UNL     1       3.203  16.356  17.450  0.00  0.00    +0.000 NA
ENDBRANCH  20  21
ENDBRANCH  12  15
ENDBRANCH   5   7
BRANCH   1  24
ATOM     23  C   UNL     1       2.336   5.316  18.360  0.00  0.00    +0.000 C 
ATOM     24  C   UNL     1       2.729   6.698  17.727  0.00  0.00    +0.000 C 
BRANCH  24  25
ATOM     25  C   UNL     1       4.234   6.563  17.321  0.00  0.00    +0.000 A 
ATOM     26  N   UNL     1       4.513   7.274  16.250  0.00  0.00    +0.000 NA
ATOM     27  N   UNL     1       5.436   6.712  15.370  0.00  0.00    +0.000 N 
ATOM     28  C   UNL     1       5.539   5.325  15.450  0.00  0.00    +0.000 A 
ATOM     29  O   UNL     1       5.286   4.499  14.591  0.00  0.00    +0.000 OA
ATOM     30  C   UNL     1       5.992   4.946  16.783  0.00  0.00    +0.000 A 
ATOM     31  C   UNL     1       7.273   4.375  16.856  0.00  0.00    +0.000 A 
ATOM     32  C   UNL     1       8.023   4.591  17.996  0.00  0.00    +0.000 A 
ATOM     33  C   UNL     1       7.460   5.338  19.041  0.00  0.00    +0.000 A 
ATOM     34  C   UNL     1       6.132   5.854  18.969  0.00  0.00    +0.000 A 
ATOM     35  C   UNL     1       5.345   5.635  17.827  0.00  0.00    +0.000 A 
ATOM     36  H   UNL     1       6.330   7.175  15.533  0.00  0.00    +0.000 HD
ENDBRANCH  24  25
ENDBRANCH   1  24
TORSDOF 5
ENDMDL
