MODEL 1
REMARK VINA RESULT:      -7.6      0.000      0.000
REMARK  Name = 
REMARK  5 active torsions:
REMARK  status: ('A' for Active; 'I' for Inactive)
REMARK    1  A    between atoms: C_1  and  O_2
REMARK    2  A    between atoms: O_2  and  C_3
REMARK    3  A    between atoms: C_9  and  S_10
REMARK    4  A    between atoms: S_10  and  N_13
REMARK    5  A    between atoms: N_22  and  C_23
REMARK                            x       y       z     vdW  Elec       q    Type
REMARK                         _______ _______ _______ _____ _____    ______ ____
ROOT
ATOM      1  S   UNL     1       4.675   4.629  17.759  0.00  0.00    +0.000 S 
ATOM      2  O   UNL     1       5.503   3.815  18.610  0.00  0.00    +0.000 OA
ATOM      3  O   UNL     1       4.252   5.904  18.294  0.00  0.00    +0.000 OA
ENDROOT
BRANCH   1   4
ATOM      4  N   UNL     1       3.214   3.750  17.402  0.00  0.00    +0.000 NA
ATOM      5  C   UNL     1       3.066   2.283  17.576  0.00  0.00    +0.000 C 
ATOM      6  C   UNL     1       2.571   1.821  18.970  0.00  0.00    +0.000 C 
ATOM      7  C   UNL     1       1.049   1.707  19.154  0.00  0.00    +0.000 C 
ATOM      8  C   UNL     1       0.385   3.072  19.338  0.00  0.00    +0.000 C 
ATOM      9  C   UNL     1       1.377   4.235  19.189  0.00  0.00    +0.000 C 
ATOM     10  C   UNL     1       1.935   4.470  17.764  0.00  0.00    +0.000 C 
ATOM     11  C   UNL     1       2.451   3.931  20.220  0.00  0.00    +0.000 C 
ATOM     12  O   UNL     1       2.685   4.693  21.158  0.00  0.00    +0.000 OA
ATOM     13  N   UNL     1       3.055   2.688  20.027  0.00  0.00    +0.000 N 
ATOM     14  C   UNL     1       4.205   2.254  20.784  0.00  0.00    +0.000 C 
ENDBRANCH   1   4
BRANCH   1  21
ATOM     15  C   UNL     1       6.955   5.481  16.193  0.00  0.00    +0.000 A 
ATOM     16  C   UNL     1       7.645   5.403  14.948  0.00  0.00    +0.000 A 
ATOM     17  C   UNL     1       7.139   4.776  13.821  0.00  0.00    +0.000 A 
ATOM     18  C   UNL     1       5.900   4.173  13.912  0.00  0.00    +0.000 A 
ATOM     19 CL   UNL     1       5.254   3.335  12.560  0.00  0.00    +0.000 Cl
ATOM     20  C   UNL     1       5.200   4.223  15.120  0.00  0.00    +0.000 A 
ATOM     21  C   UNL     1       5.677   4.916  16.282  0.00  0.00    +0.000 A 
BRANCH  15  23
ATOM     22  C   UNL     1       7.529   7.426  17.566  0.00  0.00    +0.000 C 
ATOM     23  O   UNL     1       7.768   6.137  17.055  0.00  0.00    +0.000 OA
ENDBRANCH  15  23
ENDBRANCH   1  21
TORSDOF 3
ENDMDL
MODEL 2
REMARK VINA RESULT:      -7.0      1.034      1.226
REMARK  Name = 
REMARK  5 active torsions:
REMARK  status: ('A' for Active; 'I' for Inactive)
REMARK    1  A    between atoms: C_1  and  O_2
REMARK    2  A    between atoms: O_2  and  C_3
REMARK    3  A    between atoms: C_9  and  S_10
REMARK    4  A    between atoms: S_10  and  N_13
REMARK    5  A    between atoms: N_22  and  C_23
REMARK                            x       y       z     vdW  Elec       q    Type
REMARK                         _______ _______ _______ _____ _____    ______ ____
ROOT
ATOM      1  S   UNL     1       4.943   4.640  18.392  0.00  0.00    +0.000 S 
ATOM      2  O   UNL     1       5.313   3.277  18.673  0.00  0.00    +0.000 OA
ATOM      3  O   UNL     1       5.323   5.629  19.376  0.00  0.00    +0.000 OA
ENDROOT
BRANCH   1   4
ATOM      4  N   UNL     1       3.208   4.729  18.268  0.00  0.00    +0.000 NA
ATOM      5  C   UNL     1       2.385   3.786  17.470  0.00  0.00    +0.000 C 
ATOM      6  C   UNL     1       1.902   2.520  18.222  0.00  0.00    +0.000 C 
ATOM      7  C   UNL     1       0.553   2.629  18.953  0.00  0.00    +0.000 C 
ATOM      8  C   UNL     1       0.669   3.402  20.267  0.00  0.00    +0.000 C 
ATOM      9  C   UNL     1       2.075   3.974  20.492  0.00  0.00    +0.000 C 
ATOM     10  C   UNL     1       2.498   5.122  19.543  0.00  0.00    +0.000 C 
ATOM     11  C   UNL     1       2.980   2.756  20.415  0.00  0.00    +0.000 C 
ATOM     12  O   UNL     1       3.669   2.397  21.370  0.00  0.00    +0.000 OA
ATOM     13  N   UNL     1       2.872   2.073  19.204  0.00  0.00    +0.000 N 
ATOM     14  C   UNL     1       3.745   0.982  18.842  0.00  0.00    +0.000 C 
ENDBRANCH   1   4
BRANCH   1  21
ATOM     15  C   UNL     1       6.976   5.688  16.619  0.00  0.00    +0.000 A 
ATOM     16  C   UNL     1       7.537   5.681  15.309  0.00  0.00    +0.000 A 
ATOM     17  C   UNL     1       6.965   5.033  14.226  0.00  0.00    +0.000 A 
ATOM     18  C   UNL     1       5.792   4.334  14.431  0.00  0.00    +0.000 A 
ATOM     19 CL   UNL     1       5.074   3.468  13.134  0.00  0.00    +0.000 Cl
ATOM     20  C   UNL     1       5.219   4.313  15.705  0.00  0.00    +0.000 A 
ATOM     21  C   UNL     1       5.761   5.024  16.827  0.00  0.00    +0.000 A 
BRANCH  15  23
ATOM     22  C   UNL     1       7.735   7.777  17.649  0.00  0.00    +0.000 C 
ATOM     23  O   UNL     1       7.823   6.393  17.407  0.00  0.00    +0.000 OA
ENDBRANCH  15  23
ENDBRANCH   1  21
TORSDOF 3
ENDMDL
MODEL 3
REMARK VINA RESULT:      -7.0      1.166      1.866
REMARK  Name = 
REMARK  5 active torsions:
REMARK  status: ('A' for Active; 'I' for Inactive)
REMARK    1  A    between atoms: C_1  and  O_2
REMARK    2  A    between atoms: O_2  and  C_3
REMARK    3  A    between atoms: C_9  and  S_10
REMARK    4  A    between atoms: S_10  and  N_13
REMARK    5  A    between atoms: N_22  and  C_23
REMARK                            x       y       z     vdW  Elec       q    Type
REMARK                         _______ _______ _______ _____ _____    ______ ____
ROOT
ATOM      1  S   UNL     1       4.981   3.912  17.448  0.00  0.00    +0.000 S 
ATOM      2  O   UNL     1       4.378   2.655  17.090  0.00  0.00    +0.000 OA
ATOM      3  O   UNL     1       5.968   3.880  18.504  0.00  0.00    +0.000 OA
ENDROOT
BRANCH   1   4
ATOM      4  N   UNL     1       3.728   4.991  17.996  0.00  0.00    +0.000 NA
ATOM      5  C   UNL     1       2.287   4.814  17.684  0.00  0.00    +0.000 C 
ATOM      6  C   UNL     1       1.486   3.956  18.696  0.00  0.00    +0.000 C 
ATOM      7  C   UNL     1       0.844   4.706  19.875  0.00  0.00    +0.000 C 
ATOM      8  C   UNL     1       1.866   5.073  20.951  0.00  0.00    +0.000 C 
ATOM      9  C   UNL     1       3.301   4.702  20.552  0.00  0.00    +0.000 C 
ATOM     10  C   UNL     1       3.917   5.527  19.396  0.00  0.00    +0.000 C 
ATOM     11  C   UNL     1       3.224   3.212  20.262  0.00  0.00    +0.000 C 
ATOM     12  O   UNL     1       3.873   2.390  20.908  0.00  0.00    +0.000 OA
ATOM     13  N   UNL     1       2.297   2.898  19.267  0.00  0.00    +0.000 N 
ATOM     14  C   UNL     1       2.165   1.571  18.715  0.00  0.00    +0.000 C 
ENDBRANCH   1   4
BRANCH   1  21
ATOM     15  C   UNL     1       6.858   5.359  15.788  0.00  0.00    +0.000 A 
ATOM     16  C   UNL     1       7.450   5.502  14.499  0.00  0.00    +0.000 A 
ATOM     17  C   UNL     1       7.027   4.813  13.374  0.00  0.00    +0.000 A 
ATOM     18  C   UNL     1       5.983   3.919  13.511  0.00  0.00    +0.000 A 
ATOM     19 CL   UNL     1       5.459   3.000  12.159  0.00  0.00    +0.000 Cl
ATOM     20  C   UNL     1       5.385   3.749  14.762  0.00  0.00    +0.000 A 
ATOM     21  C   UNL     1       5.767   4.493  15.928  0.00  0.00    +0.000 A 
BRANCH  15  23
ATOM     22  C   UNL     1       6.981   7.161  17.442  0.00  0.00    +0.000 C 
ATOM     23  O   UNL     1       7.551   6.162  16.631  0.00  0.00    +0.000 OA
ENDBRANCH  15  23
ENDBRANCH   1  21
TORSDOF 3
ENDMDL
MODEL 4
REMARK VINA RESULT:      -6.6      1.488      1.788
REMARK  Name = 
REMARK  5 active torsions:
REMARK  status: ('A' for Active; 'I' for Inactive)
REMARK    1  A    between atoms: C_1  and  O_2
REMARK    2  A    between atoms: O_2  and  C_3
REMARK    3  A    between atoms: C_9  and  S_10
REMARK    4  A    between atoms: S_10  and  N_13
REMARK    5  A    between atoms: N_22  and  C_23
REMARK                            x       y       z     vdW  Elec       q    Type
REMARK                         _______ _______ _______ _____ _____    ______ ____
ROOT
ATOM      1  S   UNL     1       3.704   5.940  18.333  0.00  0.00    +0.000 S 
ATOM      2  O   UNL     1       3.835   5.809  19.761  0.00  0.00    +0.000 OA
ATOM      3  O   UNL     1       3.341   7.247  17.834  0.00  0.00    +0.000 OA
ENDROOT
BRANCH   1   4
ATOM      4  N   UNL     1       2.455   4.855  17.789  0.00  0.00    +0.000 NA
ATOM      5  C   UNL     1       2.713   3.488  17.270  0.00  0.00    +0.000 C 
ATOM      6  C   UNL     1       2.722   2.361  18.333  0.00  0.00    +0.000 C 
ATOM      7  C   UNL     1       1.373   1.684  18.627  0.00  0.00    +0.000 C 
ATOM      8  C   UNL     1       0.473   2.550  19.510  0.00  0.00    +0.000 C 
ATOM      9  C   UNL     1       1.083   3.927  19.803  0.00  0.00    +0.000 C 
ATOM     10  C   UNL     1       1.180   4.895  18.599  0.00  0.00    +0.000 C 
ATOM     11  C   UNL     1       2.429   3.602  20.431  0.00  0.00    +0.000 C 
ATOM     12  O   UNL     1       2.708   3.943  21.580  0.00  0.00    +0.000 OA
ATOM     13  N   UNL     1       3.242   2.825  19.606  0.00  0.00    +0.000 N 
ATOM     14  C   UNL     1       4.617   2.526  19.923  0.00  0.00    +0.000 C 
ENDBRANCH   1   4
BRANCH   1  21
ATOM     15  C   UNL     1       6.501   5.199  18.388  0.00  0.00    +0.000 A 
ATOM     16  C   UNL     1       7.607   4.653  17.673  0.00  0.00    +0.000 A 
ATOM     17  C   UNL     1       7.586   4.369  16.317  0.00  0.00    +0.000 A 
ATOM     18  C   UNL     1       6.419   4.609  15.619  0.00  0.00    +0.000 A 
ATOM     19 CL   UNL     1       6.324   4.220  13.950  0.00  0.00    +0.000 Cl
ATOM     20  C   UNL     1       5.313   5.136  16.291  0.00  0.00    +0.000 A 
ATOM     21  C   UNL     1       5.330   5.493  17.681  0.00  0.00    +0.000 A 
BRANCH  15  23
ATOM     22  C   UNL     1       8.206   5.536  20.115  0.00  0.00    +0.000 C 
ATOM     23  O   UNL     1       6.885   5.312  19.683  0.00  0.00    +0.000 OA
ENDBRANCH  15  23
ENDBRANCH   1  21
TORSDOF 3
ENDMDL
MODEL 5
REMARK VINA RESULT:      -6.5      1.659      2.474
REMARK  Name = 
REMARK  5 active torsions:
REMARK  status: ('A' for Active; 'I' for Inactive)
REMARK    1  A    between atoms: C_1  and  O_2
REMARK    2  A    between atoms: O_2  and  C_3
REMARK    3  A    between atoms: C_9  and  S_10
REMARK    4  A    between atoms: S_10  and  N_13
REMARK    5  A    between atoms: N_22  and  C_23
REMARK                            x       y       z     vdW  Elec       q    Type
REMARK                         _______ _______ _______ _____ _____    ______ ____
ROOT
ATOM      1  S   UNL     1       5.251   4.560  19.009  0.00  0.00    +0.000 S 
ATOM      2  O   UNL     1       6.662   4.319  19.156  0.00  0.00    +0.000 OA
ATOM      3  O   UNL     1       4.654   5.501  19.931  0.00  0.00    +0.000 OA
ENDROOT
BRANCH   1   4
ATOM      4  N   UNL     1       4.403   3.057  19.244  0.00  0.00    +0.000 NA
ATOM      5  C   UNL     1       3.673   2.703  20.487  0.00  0.00    +0.000 C 
ATOM      6  C   UNL     1       2.184   3.129  20.531  0.00  0.00    +0.000 C 
ATOM      7  C   UNL     1       1.164   2.115  19.986  0.00  0.00    +0.000 C 
ATOM      8  C   UNL     1       1.141   2.085  18.457  0.00  0.00    +0.000 C 
ATOM      9  C   UNL     1       2.211   2.991  17.833  0.00  0.00    +0.000 C 
ATOM     10  C   UNL     1       3.679   2.537  18.024  0.00  0.00    +0.000 C 
ATOM     11  C   UNL     1       1.917   4.360  18.424  0.00  0.00    +0.000 C 
ATOM     12  O   UNL     1       1.607   5.319  17.719  0.00  0.00    +0.000 OA
ATOM     13  N   UNL     1       1.957   4.372  19.819  0.00  0.00    +0.000 N 
ATOM     14  C   UNL     1       1.866   5.587  20.592  0.00  0.00    +0.000 C 
ENDBRANCH   1   4
BRANCH   1  21
ATOM     15  C   UNL     1       4.765   6.494  16.912  0.00  0.00    +0.000 A 
ATOM     16  C   UNL     1       4.891   6.814  15.529  0.00  0.00    +0.000 A 
ATOM     17  C   UNL     1       5.322   5.917  14.564  0.00  0.00    +0.000 A 
ATOM     18  C   UNL     1       5.669   4.643  14.969  0.00  0.00    +0.000 A 
ATOM     19 CL   UNL     1       6.263   3.512  13.821  0.00  0.00    +0.000 Cl
ATOM     20  C   UNL     1       5.565   4.299  16.319  0.00  0.00    +0.000 A 
ATOM     21  C   UNL     1       5.066   5.192  17.325  0.00  0.00    +0.000 A 
BRANCH  15  23
ATOM     22  C   UNL     1       3.002   7.983  17.734  0.00  0.00    +0.000 C 
ATOM     23  O   UNL     1       4.348   7.620  17.540  0.00  0.00    +0.000 OA
ENDBRANCH  15  23
ENDBRANCH   1  21
TORSDOF 3
ENDMDL
MODEL 6
REMARK VINA RESULT:      -6.3      1.652      2.686
REMARK  Name = 
REMARK  5 active torsions:
REMARK  status: ('A' for Active; 'I' for Inactive)
REMARK    1  A    between atoms: C_1  and  O_2
REMARK    2  A    between atoms: O_2  and  C_3
REMARK    3  A    between atoms: C_9  and  S_10
REMARK    4  A    between atoms: S_10  and  N_13
REMARK    5  A    between atoms: N_22  and  C_23
REMARK                            x       y       z     vdW  Elec       q    Type
REMARK                         _______ _______ _______ _____ _____    ______ ____
ROOT
ATOM      1  S   UNL     1       3.363   5.539  17.879  0.00  0.00    +0.000 S 
ATOM      2  O   UNL     1       2.941   6.915  17.845  0.00  0.00    +0.000 OA
ATOM      3  O   UNL     1       2.434   4.563  17.354  0.00  0.00    +0.000 OA
ENDROOT
BRANCH   1   4
ATOM      4  N   UNL     1       3.645   5.087  19.538  0.00  0.00    +0.000 NA
ATOM      5  C   UNL     1       2.567   4.896  20.540  0.00  0.00    +0.000 C 
ATOM      6  C   UNL     1       1.984   3.463  20.630  0.00  0.00    +0.000 C 
ATOM      7  C   UNL     1       2.673   2.502  21.613  0.00  0.00    +0.000 C 
ATOM      8  C   UNL     1       3.994   1.963  21.063  0.00  0.00    +0.000 C 
ATOM      9  C   UNL     1       4.369   2.587  19.712  0.00  0.00    +0.000 C 
ATOM     10  C   UNL     1       4.759   4.085  19.743  0.00  0.00    +0.000 C 
ATOM     11  C   UNL     1       3.169   2.289  18.828  0.00  0.00    +0.000 C 
ATOM     12  O   UNL     1       3.265   1.601  17.812  0.00  0.00    +0.000 OA
ATOM     13  N   UNL     1       1.976   2.803  19.338  0.00  0.00    +0.000 N 
ATOM     14  C   UNL     1       0.737   2.781  18.598  0.00  0.00    +0.000 C 
ENDBRANCH   1   4
BRANCH   1  21
ATOM     15  C   UNL     1       6.177   5.841  17.279  0.00  0.00    +0.000 A 
ATOM     16  C   UNL     1       7.253   5.517  16.402  0.00  0.00    +0.000 A 
ATOM     17  C   UNL     1       7.094   4.856  15.195  0.00  0.00    +0.000 A 
ATOM     18  C   UNL     1       5.821   4.470  14.826  0.00  0.00    +0.000 A 
ATOM     19 CL   UNL     1       5.579   3.598  13.367  0.00  0.00    +0.000 Cl
ATOM     20  C   UNL     1       4.744   4.764  15.667  0.00  0.00    +0.000 A 
ATOM     21  C   UNL     1       4.877   5.498  16.893  0.00  0.00    +0.000 A 
BRANCH  15  23
ATOM     22  C   UNL     1       7.911   6.056  18.996  0.00  0.00    +0.000 C 
ATOM     23  O   UNL     1       6.720   6.452  18.360  0.00  0.00    +0.000 OA
ENDBRANCH  15  23
ENDBRANCH   1  21
TORSDOF 3
ENDMDL
MODEL 7
REMARK VINA RESULT:      -6.3      2.351      3.006
REMARK  Name = 
REMARK  5 active torsions:
REMARK  status: ('A' for Active; 'I' for Inactive)
REMARK    1  A    between atoms: C_1  and  O_2
REMARK    2  A    between atoms: O_2  and  C_3
REMARK    3  A    between atoms: C_9  and  S_10
REMARK    4  A    between atoms: S_10  and  N_13
REMARK    5  A    between atoms: N_22  and  C_23
REMARK                            x       y       z     vdW  Elec       q    Type
REMARK                         _______ _______ _______ _____ _____    ______ ____
ROOT
ATOM      1  S   UNL     1       3.623   5.890  18.247  0.00  0.00    +0.000 S 
ATOM      2  O   UNL     1       3.542   6.060  19.674  0.00  0.00    +0.000 OA
ATOM      3  O   UNL     1       3.450   7.079  17.442  0.00  0.00    +0.000 OA
ENDROOT
BRANCH   1   4
ATOM      4  N   UNL     1       2.370   4.788  17.747  0.00  0.00    +0.000 NA
ATOM      5  C   UNL     1       2.626   3.410  17.256  0.00  0.00    +0.000 C 
ATOM      6  C   UNL     1       2.658   2.308  18.344  0.00  0.00    +0.000 C 
ATOM      7  C   UNL     1       1.317   1.632  18.676  0.00  0.00    +0.000 C 
ATOM      8  C   UNL     1       0.427   2.514  19.553  0.00  0.00    +0.000 C 
ATOM      9  C   UNL     1       1.036   3.900  19.805  0.00  0.00    +0.000 C 
ATOM     10  C   UNL     1       1.108   4.841  18.577  0.00  0.00    +0.000 C 
ATOM     11  C   UNL     1       2.393   3.595  20.418  0.00  0.00    +0.000 C 
ATOM     12  O   UNL     1       2.689   3.964  21.554  0.00  0.00    +0.000 OA
ATOM     13  N   UNL     1       3.196   2.803  19.597  0.00  0.00    +0.000 N 
ATOM     14  C   UNL     1       4.578   2.518  19.899  0.00  0.00    +0.000 C 
ENDBRANCH   1   4
BRANCH   1  21
ATOM     15  C   UNL     1       5.841   4.784  16.753  0.00  0.00    +0.000 A 
ATOM     16  C   UNL     1       7.239   4.506  16.721  0.00  0.00    +0.000 A 
ATOM     17  C   UNL     1       8.085   4.666  17.807  0.00  0.00    +0.000 A 
ATOM     18  C   UNL     1       7.547   5.143  18.986  0.00  0.00    +0.000 A 
ATOM     19 CL   UNL     1       8.564   5.413  20.343  0.00  0.00    +0.000 Cl
ATOM     20  C   UNL     1       6.183   5.435  19.050  0.00  0.00    +0.000 A 
ATOM     21  C   UNL     1       5.277   5.221  17.957  0.00  0.00    +0.000 A 
BRANCH  15  23
ATOM     22  C   UNL     1       6.116   4.017  14.444  0.00  0.00    +0.000 C 
ATOM     23  O   UNL     1       5.361   4.537  15.511  0.00  0.00    +0.000 OA
ENDBRANCH  15  23
ENDBRANCH   1  21
TORSDOF 3
ENDMDL
MODEL 8
REMARK VINA RESULT:      -6.1      4.230      6.004
REMARK  Name = 
REMARK  5 active torsions:
REMARK  status: ('A' for Active; 'I' for Inactive)
REMARK    1  A    between atoms: C_1  and  O_2
REMARK    2  A    between atoms: O_2  and  C_3
REMARK    3  A    between atoms: C_9  and  S_10
REMARK    4  A    between atoms: S_10  and  N_13
REMARK    5  A    between atoms: N_22  and  C_23
REMARK                            x       y       z     vdW  Elec       q    Type
REMARK                         _______ _______ _______ _____ _____    ______ ____
ROOT
ATOM      1  S   UNL     1       2.875   6.732  18.862  0.00  0.00    +0.000 S 
ATOM      2  O   UNL     1       3.190   7.054  17.495  0.00  0.00    +0.000 OA
ATOM      3  O   UNL     1       3.995   6.481  19.742  0.00  0.00    +0.000 OA
ENDROOT
BRANCH   1   4
ATOM      4  N   UNL     1       1.916   5.278  18.882  0.00  0.00    +0.000 NA
ATOM      5  C   UNL     1       1.560   4.503  17.667  0.00  0.00    +0.000 C 
ATOM      6  C   UNL     1       2.567   3.398  17.260  0.00  0.00    +0.000 C 
ATOM      7  C   UNL     1       2.338   2.004  17.866  0.00  0.00    +0.000 C 
ATOM      8  C   UNL     1       2.795   1.925  19.323  0.00  0.00    +0.000 C 
ATOM      9  C   UNL     1       3.273   3.279  19.865  0.00  0.00    +0.000 C 
ATOM     10  C   UNL     1       2.179   4.358  20.053  0.00  0.00    +0.000 C 
ATOM     11  C   UNL     1       4.372   3.690  18.898  0.00  0.00    +0.000 C 
ATOM     12  O   UNL     1       5.534   3.854  19.268  0.00  0.00    +0.000 OA
ATOM     13  N   UNL     1       3.933   3.771  17.576  0.00  0.00    +0.000 N 
ATOM     14  C   UNL     1       4.756   4.291  16.511  0.00  0.00    +0.000 C 
ENDBRANCH   1   4
BRANCH   1  21
ATOM     15  C   UNL     1       1.693   9.373  18.817  0.00  0.00    +0.000 A 
ATOM     16  C   UNL     1       0.758  10.273  19.406  0.00  0.00    +0.000 A 
ATOM     17  C   UNL     1       0.070  10.015  20.581  0.00  0.00    +0.000 A 
ATOM     18  C   UNL     1       0.287   8.804  21.210  0.00  0.00    +0.000 A 
ATOM     19 CL   UNL     1      -0.583   8.413  22.637  0.00  0.00    +0.000 Cl
ATOM     20  C   UNL     1       1.191   7.895  20.655  0.00  0.00    +0.000 A 
ATOM     21  C   UNL     1       1.958   8.165  19.472  0.00  0.00    +0.000 A 
BRANCH  15  23
ATOM     22  C   UNL     1       2.558  11.291  17.564  0.00  0.00    +0.000 C 
ATOM     23  O   UNL     1       2.135   9.953  17.676  0.00  0.00    +0.000 OA
ENDBRANCH  15  23
ENDBRANCH   1  21
TORSDOF 3
ENDMDL
MODEL 9
REMARK VINA RESULT:      -6.1      4.204      5.927
REMARK  Name = 
REMARK  5 active torsions:
REMARK  status: ('A' for Active; 'I' for Inactive)
REMARK    1  A    between atoms: C_1  and  O_2
REMARK    2  A    between atoms: O_2  and  C_3
REMARK    3  A    between atoms: C_9  and  S_10
REMARK    4  A    between atoms: S_10  and  N_13
REMARK    5  A    between atoms: N_22  and  C_23
REMARK                            x       y       z     vdW  Elec       q    Type
REMARK                         _______ _______ _______ _____ _____    ______ ____
ROOT
ATOM      1  S   UNL     1       2.439   6.044  20.228  0.00  0.00    +0.000 S 
ATOM      2  O   UNL     1       3.816   6.205  19.842  0.00  0.00    +0.000 OA
ATOM      3  O   UNL     1       2.194   5.458  21.527  0.00  0.00    +0.000 OA
ENDROOT
BRANCH   1   4
ATOM      4  N   UNL     1       1.659   4.996  19.075  0.00  0.00    +0.000 NA
ATOM      5  C   UNL     1       2.247   4.622  17.765  0.00  0.00    +0.000 C 
ATOM      6  C   UNL     1       3.136   3.352  17.769  0.00  0.00    +0.000 C 
ATOM      7  C   UNL     1       2.422   2.015  17.507  0.00  0.00    +0.000 C 
ATOM      8  C   UNL     1       1.655   1.519  18.733  0.00  0.00    +0.000 C 
ATOM      9  C   UNL     1       1.690   2.521  19.895  0.00  0.00    +0.000 C 
ATOM     10  C   UNL     1       0.902   3.836  19.680  0.00  0.00    +0.000 C 
ATOM     11  C   UNL     1       3.174   2.735  20.146  0.00  0.00    +0.000 C 
ATOM     12  O   UNL     1       3.700   2.446  21.220  0.00  0.00    +0.000 OA
ATOM     13  N   UNL     1       3.854   3.202  19.020  0.00  0.00    +0.000 N 
ATOM     14  C   UNL     1       5.233   3.626  19.062  0.00  0.00    +0.000 C 
ENDBRANCH   1   4
BRANCH   1  21
ATOM     15  C   UNL     1       1.560   8.560  19.101  0.00  0.00    +0.000 A 
ATOM     16  C   UNL     1       0.799   9.751  19.286  0.00  0.00    +0.000 A 
ATOM     17  C   UNL     1       0.216  10.117  20.489  0.00  0.00    +0.000 A 
ATOM     18  C   UNL     1       0.363   9.269  21.568  0.00  0.00    +0.000 A 
ATOM     19 CL   UNL     1      -0.388   9.650  23.065  0.00  0.00    +0.000 Cl
ATOM     20  C   UNL     1       1.096   8.089  21.419  0.00  0.00    +0.000 A 
ATOM     21  C   UNL     1       1.757   7.718  20.201  0.00  0.00    +0.000 A 
BRANCH  15  23
ATOM     22  C   UNL     1       3.230   8.207  17.344  0.00  0.00    +0.000 C 
ATOM     23  O   UNL     1       1.939   8.532  17.800  0.00  0.00    +0.000 OA
ENDBRANCH  15  23
ENDBRANCH   1  21
TORSDOF 3
ENDMDL
