MODEL 1
REMARK VINA RESULT:      -8.0      0.000      0.000
REMARK  Name = 
REMARK  4 active torsions:
REMARK  status: ('A' for Active; 'I' for Inactive)
REMARK    1  A    between atoms: C_1  and  S_2
REMARK    2  A    between atoms: S_2  and  C_5
REMARK    3  A    between atoms: C_9  and  C_10
REMARK    4  A    between atoms: N_17  and  C_18
REMARK                            x       y       z     vdW  Elec       q    Type
REMARK                         _______ _______ _______ _____ _____    ______ ____
ROOT
ATOM      1  C   UNL     1       0.833   9.809  19.962  0.00  0.00    +0.000 A 
ATOM      2  C   UNL     1       1.067  10.643  18.922  0.00  0.00    +0.000 A 
ATOM      3  C   UNL     1       1.885  10.257  17.781  0.00  0.00    +0.000 A 
ATOM      4  C   UNL     1       2.423   9.025  17.764  0.00  0.00    +0.000 A 
ATOM      5  N   UNL     1       2.188   8.157  18.823  0.00  0.00    +0.000 N 
ATOM      6  N   UNL     1       2.631   6.902  18.962  0.00  0.00    +0.000 NA
ATOM      7  C   UNL     1       2.146   6.537  20.148  0.00  0.00    +0.000 A 
ATOM      8  N   UNL     1       2.324   5.341  20.740  0.00  0.00    +0.000 N 
ATOM      9  N   UNL     1       1.415   7.495  20.792  0.00  0.00    +0.000 NA
ATOM     10  C   UNL     1       1.423   8.501  19.938  0.00  0.00    +0.000 A 
ATOM     11  H   UNL     1       2.009   5.258  21.699  0.00  0.00    +0.000 HD
ENDROOT
BRANCH   1  16
ATOM     12  C   UNL     1      -1.673  11.850  21.897  0.00  0.00    +0.000 A 
ATOM     13  C   UNL     1      -1.614  11.258  23.162  0.00  0.00    +0.000 A 
ATOM     14  C   UNL     1      -0.727  10.205  23.383  0.00  0.00    +0.000 A 
ATOM     15  C   UNL     1       0.074   9.734  22.339  0.00  0.00    +0.000 A 
ATOM     16  C   UNL     1      -0.004  10.312  21.064  0.00  0.00    +0.000 A 
ATOM     17  C   UNL     1      -0.887  11.376  20.844  0.00  0.00    +0.000 A 
BRANCH  12  19
ATOM     18  C   UNL     1      -4.146  12.857  22.680  0.00  0.00    +0.000 C 
ATOM     19  S   UNL     1      -2.775  13.213  21.611  0.00  0.00    +0.000 S 
ATOM     20  O   UNL     1      -3.238  13.124  20.239  0.00  0.00    +0.000 OA
ATOM     21  O   UNL     1      -2.119  14.412  22.097  0.00  0.00    +0.000 OA
ENDBRANCH  12  19
ENDBRANCH   1  16
BRANCH   8  22
ATOM     22  C   UNL     1       2.407   4.093  20.086  0.00  0.00    +0.000 A 
ATOM     23  C   UNL     1       3.660   3.528  19.820  0.00  0.00    +0.000 A 
ATOM     24  C   UNL     1       3.759   2.304  19.150  0.00  0.00    +0.000 A 
ATOM     25  C   UNL     1       2.607   1.622  18.758  0.00  0.00    +0.000 A 
ATOM     26  C   UNL     1       1.355   2.172  19.016  0.00  0.00    +0.000 A 
ATOM     27  C   UNL     1       1.261   3.404  19.662  0.00  0.00    +0.000 A 
ENDBRANCH   8  22
TORSDOF 3
ENDMDL
MODEL 2
REMARK VINA RESULT:      -8.0      0.648      1.036
REMARK  Name = 
REMARK  4 active torsions:
REMARK  status: ('A' for Active; 'I' for Inactive)
REMARK    1  A    between atoms: C_1  and  S_2
REMARK    2  A    between atoms: S_2  and  C_5
REMARK    3  A    between atoms: C_9  and  C_10
REMARK    4  A    between atoms: N_17  and  C_18
REMARK                            x       y       z     vdW  Elec       q    Type
REMARK                         _______ _______ _______ _____ _____    ______ ____
ROOT
ATOM      1  C   UNL     1       0.830   9.856  19.950  0.00  0.00    +0.000 A 
ATOM      2  C   UNL     1       1.109  10.676  18.910  0.00  0.00    +0.000 A 
ATOM      3  C   UNL     1       1.947  10.262  17.793  0.00  0.00    +0.000 A 
ATOM      4  C   UNL     1       2.458   9.020  17.799  0.00  0.00    +0.000 A 
ATOM      5  N   UNL     1       2.176   8.165  18.858  0.00  0.00    +0.000 N 
ATOM      6  N   UNL     1       2.588   6.901  19.018  0.00  0.00    +0.000 NA
ATOM      7  C   UNL     1       2.065   6.557  20.194  0.00  0.00    +0.000 A 
ATOM      8  N   UNL     1       2.201   5.363  20.800  0.00  0.00    +0.000 N 
ATOM      9  N   UNL     1       1.340   7.536  20.811  0.00  0.00    +0.000 NA
ATOM     10  C   UNL     1       1.391   8.535  19.951  0.00  0.00    +0.000 A 
ATOM     11  H   UNL     1       1.861   5.295  21.750  0.00  0.00    +0.000 HD
ENDROOT
BRANCH   1  16
ATOM     12  C   UNL     1      -1.661  11.980  21.811  0.00  0.00    +0.000 A 
ATOM     13  C   UNL     1      -1.663  11.385  23.076  0.00  0.00    +0.000 A 
ATOM     14  C   UNL     1      -0.821  10.301  23.321  0.00  0.00    +0.000 A 
ATOM     15  C   UNL     1      -0.004   9.804  22.302  0.00  0.00    +0.000 A 
ATOM     16  C   UNL     1      -0.023  10.386  21.027  0.00  0.00    +0.000 A 
ATOM     17  C   UNL     1      -0.860  11.481  20.781  0.00  0.00    +0.000 A 
BRANCH  12  19
ATOM     18  C   UNL     1      -1.635  14.495  20.618  0.00  0.00    +0.000 C 
ATOM     19  S   UNL     1      -2.706  13.382  21.494  0.00  0.00    +0.000 S 
ATOM     20  O   UNL     1      -3.033  13.984  22.773  0.00  0.00    +0.000 OA
ATOM     21  O   UNL     1      -3.752  12.949  20.588  0.00  0.00    +0.000 OA
ENDBRANCH  12  19
ENDBRANCH   1  16
BRANCH   8  22
ATOM     22  C   UNL     1       2.273   4.108  20.157  0.00  0.00    +0.000 A 
ATOM     23  C   UNL     1       3.517   3.500  19.953  0.00  0.00    +0.000 A 
ATOM     24  C   UNL     1       3.606   2.268  19.295  0.00  0.00    +0.000 A 
ATOM     25  C   UNL     1       2.452   1.622  18.854  0.00  0.00    +0.000 A 
ATOM     26  C   UNL     1       1.208   2.215  19.050  0.00  0.00    +0.000 A 
ATOM     27  C   UNL     1       1.125   3.454  19.684  0.00  0.00    +0.000 A 
ENDBRANCH   8  22
TORSDOF 3
ENDMDL
MODEL 3
REMARK VINA RESULT:      -8.0      0.993      1.040
REMARK  Name = 
REMARK  4 active torsions:
REMARK  status: ('A' for Active; 'I' for Inactive)
REMARK    1  A    between atoms: C_1  and  S_2
REMARK    2  A    between atoms: S_2  and  C_5
REMARK    3  A    between atoms: C_9  and  C_10
REMARK    4  A    between atoms: N_17  and  C_18
REMARK                            x       y       z     vdW  Elec       q    Type
REMARK                         _______ _______ _______ _____ _____    ______ ____
ROOT
ATOM      1  C   UNL     1       0.903  10.025  20.027  0.00  0.00    +0.000 A 
ATOM      2  C   UNL     1       1.146  10.818  18.957  0.00  0.00    +0.000 A 
ATOM      3  C   UNL     1       1.896  10.355  17.797  0.00  0.00    +0.000 A 
ATOM      4  C   UNL     1       2.359   9.094  17.794  0.00  0.00    +0.000 A 
ATOM      5  N   UNL     1       2.114   8.268  18.884  0.00  0.00    +0.000 N 
ATOM      6  N   UNL     1       2.487   6.992  19.040  0.00  0.00    +0.000 NA
ATOM      7  C   UNL     1       2.027   6.686  20.253  0.00  0.00    +0.000 A 
ATOM      8  N   UNL     1       2.157   5.497  20.871  0.00  0.00    +0.000 N 
ATOM      9  N   UNL     1       1.379   7.702  20.897  0.00  0.00    +0.000 NA
ATOM     10  C   UNL     1       1.413   8.684  20.017  0.00  0.00    +0.000 A 
ATOM     11  H   UNL     1       1.875   5.457  21.842  0.00  0.00    +0.000 HD
ENDROOT
BRANCH   1  16
ATOM     12  C   UNL     1      -0.802  12.527  22.267  0.00  0.00    +0.000 A 
ATOM     13  C   UNL     1      -1.330  11.708  23.268  0.00  0.00    +0.000 A 
ATOM     14  C   UNL     1      -1.099  10.334  23.218  0.00  0.00    +0.000 A 
ATOM     15  C   UNL     1      -0.367   9.785  22.163  0.00  0.00    +0.000 A 
ATOM     16  C   UNL     1       0.141  10.605  21.146  0.00  0.00    +0.000 A 
ATOM     17  C   UNL     1      -0.082  11.986  21.199  0.00  0.00    +0.000 A 
BRANCH  12  19
ATOM     18  C   UNL     1      -2.781  14.423  22.756  0.00  0.00    +0.000 C 
ATOM     19  S   UNL     1      -1.062  14.284  22.336  0.00  0.00    +0.000 S 
ATOM     20  O   UNL     1      -0.882  14.807  20.995  0.00  0.00    +0.000 OA
ATOM     21  O   UNL     1      -0.279  14.796  23.444  0.00  0.00    +0.000 OA
ENDBRANCH  12  19
ENDBRANCH   1  16
BRANCH   8  22
ATOM     22  C   UNL     1       2.141   4.231  20.247  0.00  0.00    +0.000 A 
ATOM     23  C   UNL     1       3.347   3.593  19.934  0.00  0.00    +0.000 A 
ATOM     24  C   UNL     1       3.347   2.349  19.294  0.00  0.00    +0.000 A 
ATOM     25  C   UNL     1       2.143   1.720  18.980  0.00  0.00    +0.000 A 
ATOM     26  C   UNL     1       0.937   2.342  19.286  0.00  0.00    +0.000 A 
ATOM     27  C   UNL     1       0.940   3.593  19.902  0.00  0.00    +0.000 A 
ENDBRANCH   8  22
TORSDOF 3
ENDMDL
MODEL 4
REMARK VINA RESULT:      -7.9      0.670      1.418
REMARK  Name = 
REMARK  4 active torsions:
REMARK  status: ('A' for Active; 'I' for Inactive)
REMARK    1  A    between atoms: C_1  and  S_2
REMARK    2  A    between atoms: S_2  and  C_5
REMARK    3  A    between atoms: C_9  and  C_10
REMARK    4  A    between atoms: N_17  and  C_18
REMARK                            x       y       z     vdW  Elec       q    Type
REMARK                         _______ _______ _______ _____ _____    ______ ____
ROOT
ATOM      1  C   UNL     1       0.863   9.821  19.959  0.00  0.00    +0.000 A 
ATOM      2  C   UNL     1       1.079  10.664  18.923  0.00  0.00    +0.000 A 
ATOM      3  C   UNL     1       1.883  10.289  17.767  0.00  0.00    +0.000 A 
ATOM      4  C   UNL     1       2.426   9.061  17.734  0.00  0.00    +0.000 A 
ATOM      5  N   UNL     1       2.209   8.184  18.789  0.00  0.00    +0.000 N 
ATOM      6  N   UNL     1       2.659   6.929  18.913  0.00  0.00    +0.000 NA
ATOM      7  C   UNL     1       2.192   6.554  20.103  0.00  0.00    +0.000 A 
ATOM      8  N   UNL     1       2.384   5.354  20.684  0.00  0.00    +0.000 N 
ATOM      9  N   UNL     1       1.466   7.503  20.764  0.00  0.00    +0.000 NA
ATOM     10  C   UNL     1       1.458   8.515  19.918  0.00  0.00    +0.000 A 
ATOM     11  H   UNL     1       2.083   5.263  21.646  0.00  0.00    +0.000 HD
ENDROOT
BRANCH   1  16
ATOM     12  C   UNL     1      -1.457  11.964  22.011  0.00  0.00    +0.000 A 
ATOM     13  C   UNL     1      -1.545  11.239  23.202  0.00  0.00    +0.000 A 
ATOM     14  C   UNL     1      -0.816  10.058  23.338  0.00  0.00    +0.000 A 
ATOM     15  C   UNL     1      -0.027   9.597  22.281  0.00  0.00    +0.000 A 
ATOM     16  C   UNL     1       0.040  10.313  21.078  0.00  0.00    +0.000 A 
ATOM     17  C   UNL     1      -0.683  11.503  20.943  0.00  0.00    +0.000 A 
BRANCH  12  19
ATOM     18  C   UNL     1      -1.587  14.252  20.431  0.00  0.00    +0.000 C 
ATOM     19  S   UNL     1      -2.355  13.487  21.837  0.00  0.00    +0.000 S 
ATOM     20  O   UNL     1      -2.072  14.300  23.004  0.00  0.00    +0.000 OA
ATOM     21  O   UNL     1      -3.720  13.149  21.482  0.00  0.00    +0.000 OA
ENDBRANCH  12  19
ENDBRANCH   1  16
BRANCH   8  22
ATOM     22  C   UNL     1       2.463   4.112  20.019  0.00  0.00    +0.000 A 
ATOM     23  C   UNL     1       1.291   3.455  19.626  0.00  0.00    +0.000 A 
ATOM     24  C   UNL     1       1.353   2.211  18.989  0.00  0.00    +0.000 A 
ATOM     25  C   UNL     1       2.587   1.621  18.717  0.00  0.00    +0.000 A 
ATOM     26  C   UNL     1       3.761   2.263  19.102  0.00  0.00    +0.000 A 
ATOM     27  C   UNL     1       3.695   3.491  19.759  0.00  0.00    +0.000 A 
ENDBRANCH   8  22
TORSDOF 3
ENDMDL
MODEL 5
REMARK VINA RESULT:      -7.9      1.096      1.520
REMARK  Name = 
REMARK  4 active torsions:
REMARK  status: ('A' for Active; 'I' for Inactive)
REMARK    1  A    between atoms: C_1  and  S_2
REMARK    2  A    between atoms: S_2  and  C_5
REMARK    3  A    between atoms: C_9  and  C_10
REMARK    4  A    between atoms: N_17  and  C_18
REMARK                            x       y       z     vdW  Elec       q    Type
REMARK                         _______ _______ _______ _____ _____    ______ ____
ROOT
ATOM      1  C   UNL     1       0.907  10.083  20.020  0.00  0.00    +0.000 A 
ATOM      2  C   UNL     1       1.142  10.868  18.944  0.00  0.00    +0.000 A 
ATOM      3  C   UNL     1       1.883  10.397  17.781  0.00  0.00    +0.000 A 
ATOM      4  C   UNL     1       2.345   9.135  17.782  0.00  0.00    +0.000 A 
ATOM      5  N   UNL     1       2.107   8.317  18.879  0.00  0.00    +0.000 N 
ATOM      6  N   UNL     1       2.480   7.041  19.041  0.00  0.00    +0.000 NA
ATOM      7  C   UNL     1       2.029   6.744  20.259  0.00  0.00    +0.000 A 
ATOM      8  N   UNL     1       2.162   5.559  20.883  0.00  0.00    +0.000 N 
ATOM      9  N   UNL     1       1.387   7.764  20.901  0.00  0.00    +0.000 NA
ATOM     10  C   UNL     1       1.416   8.741  20.015  0.00  0.00    +0.000 A 
ATOM     11  H   UNL     1       1.888   5.525  21.857  0.00  0.00    +0.000 HD
ENDROOT
BRANCH   1  16
ATOM     12  C   UNL     1      -0.722  12.607  22.292  0.00  0.00    +0.000 A 
ATOM     13  C   UNL     1      -1.301  11.789  23.266  0.00  0.00    +0.000 A 
ATOM     14  C   UNL     1      -1.130  10.408  23.188  0.00  0.00    +0.000 A 
ATOM     15  C   UNL     1      -0.407   9.851  22.130  0.00  0.00    +0.000 A 
ATOM     16  C   UNL     1       0.153  10.671  21.141  0.00  0.00    +0.000 A 
ATOM     17  C   UNL     1      -0.010  12.058  21.223  0.00  0.00    +0.000 A 
BRANCH  12  19
ATOM     18  C   UNL     1      -1.389  14.627  24.086  0.00  0.00    +0.000 C 
ATOM     19  S   UNL     1      -0.905  14.371  22.398  0.00  0.00    +0.000 S 
ATOM     20  O   UNL     1      -2.016  14.749  21.547  0.00  0.00    +0.000 OA
ATOM     21  O   UNL     1       0.409  14.956  22.208  0.00  0.00    +0.000 OA
ENDBRANCH  12  19
ENDBRANCH   1  16
BRANCH   8  22
ATOM     22  C   UNL     1       2.141   4.288  20.269  0.00  0.00    +0.000 A 
ATOM     23  C   UNL     1       0.921   3.634  20.062  0.00  0.00    +0.000 A 
ATOM     24  C   UNL     1       0.887   2.364  19.476  0.00  0.00    +0.000 A 
ATOM     25  C   UNL     1       2.068   1.744  19.071  0.00  0.00    +0.000 A 
ATOM     26  C   UNL     1       3.288   2.383  19.271  0.00  0.00    +0.000 A 
ATOM     27  C   UNL     1       3.322   3.638  19.877  0.00  0.00    +0.000 A 
ENDBRANCH   8  22
TORSDOF 3
ENDMDL
MODEL 6
REMARK VINA RESULT:      -7.8      5.217      9.040
REMARK  Name = 
REMARK  4 active torsions:
REMARK  status: ('A' for Active; 'I' for Inactive)
REMARK    1  A    between atoms: C_1  and  S_2
REMARK    2  A    between atoms: S_2  and  C_5
REMARK    3  A    between atoms: C_9  and  C_10
REMARK    4  A    between atoms: N_17  and  C_18
REMARK                            x       y       z     vdW  Elec       q    Type
REMARK                         _______ _______ _______ _____ _____    ______ ____
ROOT
ATOM      1  C   UNL     1       2.722   3.971  18.540  0.00  0.00    +0.000 A 
ATOM      2  C   UNL     1       2.021   2.814  18.556  0.00  0.00    +0.000 A 
ATOM      3  C   UNL     1       0.855   2.620  19.407  0.00  0.00    +0.000 A 
ATOM      4  C   UNL     1       0.465   3.631  20.201  0.00  0.00    +0.000 A 
ATOM      5  N   UNL     1       1.174   4.826  20.192  0.00  0.00    +0.000 N 
ATOM      6  N   UNL     1       0.919   5.931  20.903  0.00  0.00    +0.000 NA
ATOM      7  C   UNL     1       1.899   6.758  20.543  0.00  0.00    +0.000 A 
ATOM      8  N   UNL     1       2.080   8.013  20.996  0.00  0.00    +0.000 N 
ATOM      9  N   UNL     1       2.784   6.245  19.638  0.00  0.00    +0.000 NA
ATOM     10  C   UNL     1       2.304   5.039  19.401  0.00  0.00    +0.000 A 
ATOM     11  H   UNL     1       2.944   8.470  20.734  0.00  0.00    +0.000 HD
ENDROOT
BRANCH   1  16
ATOM     12  C   UNL     1       6.214   4.594  17.270  0.00  0.00    +0.000 A 
ATOM     13  C   UNL     1       6.118   4.175  15.940  0.00  0.00    +0.000 A 
ATOM     14  C   UNL     1       4.895   3.715  15.456  0.00  0.00    +0.000 A 
ATOM     15  C   UNL     1       3.785   3.651  16.303  0.00  0.00    +0.000 A 
ATOM     16  C   UNL     1       3.889   4.048  17.644  0.00  0.00    +0.000 A 
ATOM     17  C   UNL     1       5.114   4.519  18.129  0.00  0.00    +0.000 A 
BRANCH  12  19
ATOM     18  C   UNL     1       7.391   5.592  19.586  0.00  0.00    +0.000 C 
ATOM     19  S   UNL     1       7.759   5.213  17.892  0.00  0.00    +0.000 S 
ATOM     20  O   UNL     1       8.042   6.457  17.202  0.00  0.00    +0.000 OA
ATOM     21  O   UNL     1       8.708   4.117  17.867  0.00  0.00    +0.000 OA
ENDBRANCH  12  19
ENDBRANCH   1  16
BRANCH   8  22
ATOM     22  C   UNL     1       1.061   8.930  21.333  0.00  0.00    +0.000 A 
ATOM     23  C   UNL     1       0.696   9.105  22.672  0.00  0.00    +0.000 A 
ATOM     24  C   UNL     1      -0.329   9.992  23.019  0.00  0.00    +0.000 A 
ATOM     25  C   UNL     1      -0.984  10.729  22.033  0.00  0.00    +0.000 A 
ATOM     26  C   UNL     1      -0.631  10.566  20.697  0.00  0.00    +0.000 A 
ATOM     27  C   UNL     1       0.374   9.663  20.353  0.00  0.00    +0.000 A 
ENDBRANCH   8  22
TORSDOF 3
ENDMDL
MODEL 7
REMARK VINA RESULT:      -7.7      5.220      9.000
REMARK  Name = 
REMARK  4 active torsions:
REMARK  status: ('A' for Active; 'I' for Inactive)
REMARK    1  A    between atoms: C_1  and  S_2
REMARK    2  A    between atoms: S_2  and  C_5
REMARK    3  A    between atoms: C_9  and  C_10
REMARK    4  A    between atoms: N_17  and  C_18
REMARK                            x       y       z     vdW  Elec       q    Type
REMARK                         _______ _______ _______ _____ _____    ______ ____
ROOT
ATOM      1  C   UNL     1       2.718   4.134  18.753  0.00  0.00    +0.000 A 
ATOM      2  C   UNL     1       1.995   2.993  18.663  0.00  0.00    +0.000 A 
ATOM      3  C   UNL     1       0.745   2.803  19.387  0.00  0.00    +0.000 A 
ATOM      4  C   UNL     1       0.299   3.800  20.170  0.00  0.00    +0.000 A 
ATOM      5  N   UNL     1       1.030   4.978  20.268  0.00  0.00    +0.000 N 
ATOM      6  N   UNL     1       0.728   6.068  20.984  0.00  0.00    +0.000 NA
ATOM      7  C   UNL     1       1.757   6.881  20.749  0.00  0.00    +0.000 A 
ATOM      8  N   UNL     1       1.917   8.118  21.256  0.00  0.00    +0.000 N 
ATOM      9  N   UNL     1       2.717   6.373  19.922  0.00  0.00    +0.000 NA
ATOM     10  C   UNL     1       2.238   5.187  19.601  0.00  0.00    +0.000 A 
ATOM     11  H   UNL     1       2.813   8.561  21.096  0.00  0.00    +0.000 HD
ENDROOT
BRANCH   1  16
ATOM     12  C   UNL     1       6.340   4.673  17.867  0.00  0.00    +0.000 A 
ATOM     13  C   UNL     1       6.361   4.331  16.512  0.00  0.00    +0.000 A 
ATOM     14  C   UNL     1       5.175   3.951  15.885  0.00  0.00    +0.000 A 
ATOM     15  C   UNL     1       3.985   3.890  16.615  0.00  0.00    +0.000 A 
ATOM     16  C   UNL     1       3.970   4.208  17.980  0.00  0.00    +0.000 A 
ATOM     17  C   UNL     1       5.158   4.600  18.609  0.00  0.00    +0.000 A 
BRANCH  12  19
ATOM     18  C   UNL     1       8.053   6.854  18.091  0.00  0.00    +0.000 C 
ATOM     19  S   UNL     1       7.837   5.190  18.670  0.00  0.00    +0.000 S 
ATOM     20  O   UNL     1       8.921   4.384  18.140  0.00  0.00    +0.000 OA
ATOM     21  O   UNL     1       7.573   5.235  20.095  0.00  0.00    +0.000 OA
ENDBRANCH  12  19
ENDBRANCH   1  16
BRANCH   8  22
ATOM     22  C   UNL     1       0.889   9.049  21.518  0.00  0.00    +0.000 A 
ATOM     23  C   UNL     1       0.359   9.815  20.474  0.00  0.00    +0.000 A 
ATOM     24  C   UNL     1      -0.643  10.759  20.723  0.00  0.00    +0.000 A 
ATOM     25  C   UNL     1      -1.141  10.932  22.014  0.00  0.00    +0.000 A 
ATOM     26  C   UNL     1      -0.623  10.178  23.062  0.00  0.00    +0.000 A 
ATOM     27  C   UNL     1       0.392   9.255  22.815  0.00  0.00    +0.000 A 
ENDBRANCH   8  22
TORSDOF 3
ENDMDL
MODEL 8
REMARK VINA RESULT:      -7.7      3.344      4.612
REMARK  Name = 
REMARK  4 active torsions:
REMARK  status: ('A' for Active; 'I' for Inactive)
REMARK    1  A    between atoms: C_1  and  S_2
REMARK    2  A    between atoms: S_2  and  C_5
REMARK    3  A    between atoms: C_9  and  C_10
REMARK    4  A    between atoms: N_17  and  C_18
REMARK                            x       y       z     vdW  Elec       q    Type
REMARK                         _______ _______ _______ _____ _____    ______ ____
ROOT
ATOM      1  C   UNL     1       0.859   9.656  19.806  0.00  0.00    +0.000 A 
ATOM      2  C   UNL     1       0.350   9.317  21.013  0.00  0.00    +0.000 A 
ATOM      3  C   UNL     1       0.642   8.041  21.653  0.00  0.00    +0.000 A 
ATOM      4  C   UNL     1       1.446   7.174  21.017  0.00  0.00    +0.000 A 
ATOM      5  N   UNL     1       1.979   7.509  19.778  0.00  0.00    +0.000 N 
ATOM      6  N   UNL     1       2.801   6.776  19.018  0.00  0.00    +0.000 NA
ATOM      7  C   UNL     1       2.983   7.540  17.942  0.00  0.00    +0.000 A 
ATOM      8  N   UNL     1       3.742   7.231  16.874  0.00  0.00    +0.000 N 
ATOM      9  N   UNL     1       2.314   8.730  17.959  0.00  0.00    +0.000 NA
ATOM     10  C   UNL     1       1.708   8.716  19.131  0.00  0.00    +0.000 A 
ATOM     11  H   UNL     1       3.675   7.850  16.076  0.00  0.00    +0.000 HD
ENDROOT
BRANCH   1  16
ATOM     12  C   UNL     1       1.034  13.278  18.789  0.00  0.00    +0.000 A 
ATOM     13  C   UNL     1      -0.212  13.470  18.184  0.00  0.00    +0.000 A 
ATOM     14  C   UNL     1      -1.118  12.413  18.138  0.00  0.00    +0.000 A 
ATOM     15  C   UNL     1      -0.771  11.168  18.670  0.00  0.00    +0.000 A 
ATOM     16  C   UNL     1       0.488  10.970  19.254  0.00  0.00    +0.000 A 
ATOM     17  C   UNL     1       1.396  12.034  19.310  0.00  0.00    +0.000 A 
BRANCH  12  19
ATOM     18  C   UNL     1       2.902  14.436  20.496  0.00  0.00    +0.000 C 
ATOM     19  S   UNL     1       2.186  14.627  18.884  0.00  0.00    +0.000 S 
ATOM     20  O   UNL     1       1.422  15.860  18.873  0.00  0.00    +0.000 OA
ATOM     21  O   UNL     1       3.220  14.386  17.895  0.00  0.00    +0.000 OA
ENDBRANCH  12  19
ENDBRANCH   1  16
BRANCH   8  22
ATOM     22  C   UNL     1       4.950   6.501  16.895  0.00  0.00    +0.000 A 
ATOM     23  C   UNL     1       4.963   5.162  16.488  0.00  0.00    +0.000 A 
ATOM     24  C   UNL     1       6.147   4.418  16.527  0.00  0.00    +0.000 A 
ATOM     25  C   UNL     1       7.335   5.011  16.954  0.00  0.00    +0.000 A 
ATOM     26  C   UNL     1       7.337   6.341  17.362  0.00  0.00    +0.000 A 
ATOM     27  C   UNL     1       6.150   7.072  17.345  0.00  0.00    +0.000 A 
ENDBRANCH   8  22
TORSDOF 3
ENDMDL
MODEL 9
REMARK VINA RESULT:      -7.7      4.798      8.740
REMARK  Name = 
REMARK  4 active torsions:
REMARK  status: ('A' for Active; 'I' for Inactive)
REMARK    1  A    between atoms: C_1  and  S_2
REMARK    2  A    between atoms: S_2  and  C_5
REMARK    3  A    between atoms: C_9  and  C_10
REMARK    4  A    between atoms: N_17  and  C_18
REMARK                            x       y       z     vdW  Elec       q    Type
REMARK                         _______ _______ _______ _____ _____    ______ ____
ROOT
ATOM      1  C   UNL     1       2.816   4.242  18.609  0.00  0.00    +0.000 A 
ATOM      2  C   UNL     1       2.195   3.042  18.674  0.00  0.00    +0.000 A 
ATOM      3  C   UNL     1       1.089   2.784  19.587  0.00  0.00    +0.000 A 
ATOM      4  C   UNL     1       0.674   3.778  20.390  0.00  0.00    +0.000 A 
ATOM      5  N   UNL     1       1.300   5.017  20.330  0.00  0.00    +0.000 N 
ATOM      6  N   UNL     1       1.009   6.113  21.042  0.00  0.00    +0.000 NA
ATOM      7  C   UNL     1       1.913   6.998  20.622  0.00  0.00    +0.000 A 
ATOM      8  N   UNL     1       2.032   8.268  21.051  0.00  0.00    +0.000 N 
ATOM      9  N   UNL     1       2.782   6.531  19.678  0.00  0.00    +0.000 NA
ATOM     10  C   UNL     1       2.371   5.293  19.479  0.00  0.00    +0.000 A 
ATOM     11  H   UNL     1       2.849   8.777  20.739  0.00  0.00    +0.000 HD
ENDROOT
BRANCH   1  16
ATOM     12  C   UNL     1       5.937   5.511  16.924  0.00  0.00    +0.000 A 
ATOM     13  C   UNL     1       6.056   4.638  15.839  0.00  0.00    +0.000 A 
ATOM     14  C   UNL     1       5.091   3.650  15.649  0.00  0.00    +0.000 A 
ATOM     15  C   UNL     1       4.032   3.523  16.550  0.00  0.00    +0.000 A 
ATOM     16  C   UNL     1       3.927   4.383  17.652  0.00  0.00    +0.000 A 
ATOM     17  C   UNL     1       4.889   5.382  17.840  0.00  0.00    +0.000 A 
BRANCH  12  19
ATOM     18  C   UNL     1       7.868   6.385  18.728  0.00  0.00    +0.000 C 
ATOM     19  S   UNL     1       7.142   6.795  17.161  0.00  0.00    +0.000 S 
ATOM     20  O   UNL     1       6.425   8.048  17.310  0.00  0.00    +0.000 OA
ATOM     21  O   UNL     1       8.154   6.636  16.135  0.00  0.00    +0.000 OA
ENDBRANCH  12  19
ENDBRANCH   1  16
BRANCH   8  22
ATOM     22  C   UNL     1       0.973   9.121  21.431  0.00  0.00    +0.000 A 
ATOM     23  C   UNL     1       0.337   9.913  20.469  0.00  0.00    +0.000 A 
ATOM     24  C   UNL     1      -0.697  10.781  20.834  0.00  0.00    +0.000 A 
ATOM     25  C   UNL     1      -1.121  10.850  22.161  0.00  0.00    +0.000 A 
ATOM     26  C   UNL     1      -0.497  10.068  23.129  0.00  0.00    +0.000 A 
ATOM     27  C   UNL     1       0.550   9.222  22.765  0.00  0.00    +0.000 A 
ENDBRANCH   8  22
TORSDOF 3
ENDMDL
