MODEL 1
REMARK VINA RESULT:      -6.5      0.000      0.000
REMARK  Name = 
REMARK  7 active torsions:
REMARK  status: ('A' for Active; 'I' for Inactive)
REMARK    1  A    between atoms: C_1  and  C_2
REMARK    2  A    between atoms: C_2  and  C_3
REMARK    3  A    between atoms: CA_6  and  N_7
REMARK    4  A    between atoms: C_8  and  C_10
REMARK    5  A    between atoms: C_10  and  N_11
REMARK    6  A    between atoms: CA_20  and  C_21
REMARK    7  A    between atoms: C_21  and  OXT_23
REMARK                            x       y       z     vdW  Elec       q    Type
REMARK                         _______ _______ _______ _____ _____    ______ ____
ROOT
ATOM      1  C   UNL     1       8.532   4.431  18.242  0.00  0.00    +0.000 C 
ATOM      2  C   UNL     1       7.639   5.675  18.233  0.00  0.00    +0.000 C 
ATOM      3  C   UNL     1       8.333   6.775  19.060  0.00  0.00    +0.000 C 
ATOM      4  S   UNL     1       6.014   5.315  19.049  0.00  0.00    +0.000 S 
ATOM      5  C   UNL     1       5.250   6.783  18.268  0.00  0.00    +0.000 C 
ATOM      6  CA  UNL     1       3.960   6.646  17.441  0.00  0.00    +0.000 C 
ATOM      7  C   UNL     1       4.902   6.727  16.217  0.00  0.00    +0.000 C 
ATOM      8  O   UNL     1       4.820   6.603  15.017  0.00  0.00    +0.000 OA
ATOM      9  N   UNL     1       5.998   6.954  17.005  0.00  0.00    +0.000 N 
ATOM     10  CA  UNL     1       7.251   6.211  16.829  0.00  0.00    +0.000 C 
ENDROOT
BRANCH   6  11
ATOM     11  N   UNL     1       3.161   5.421  17.637  0.00  0.00    +0.000 N 
ATOM     12  C   UNL     1       2.417   5.213  18.783  0.00  0.00    +0.000 C 
ATOM     13  O   UNL     1       2.435   6.003  19.723  0.00  0.00    +0.000 OA
ATOM     14  H   UNL     1       3.026   4.735  16.892  0.00  0.00    +0.000 HD
BRANCH  12  15
ATOM     15  C   UNL     1       1.609   3.877  18.778  0.00  0.00    +0.000 C 
ATOM     16  C   UNL     1       0.666   3.765  19.993  0.00  0.00    +0.000 C 
ATOM     17  C   UNL     1       1.364   3.418  21.312  0.00  0.00    +0.000 C 
ATOM     18  C   UNL     1       2.339   2.255  21.180  0.00  0.00    +0.000 C 
ATOM     19  C   UNL     1       3.315   2.455  20.027  0.00  0.00    +0.000 C 
ATOM     20  C   UNL     1       2.577   2.683  18.707  0.00  0.00    +0.000 C 
BRANCH  15  21
ATOM     21  N   UNL     1       0.786   3.878  17.533  0.00  0.00    +0.000 NA
ATOM     22  H   UNL     1      -0.026   4.481  17.680  0.00  0.00    +0.000 HD
ATOM     23  H   UNL     1       0.406   2.942  17.383  0.00  0.00    +0.000 HD
ENDBRANCH  15  21
ENDBRANCH  12  15
ENDBRANCH   6  11
BRANCH  10  24
ATOM     24  C   UNL     1       7.194   5.072  15.786  0.00  0.00    +0.000 C 
ATOM     25  O   UNL     1       6.700   3.970  15.987  0.00  0.00    +0.000 OA
BRANCH  24  26
ATOM     26  OXT UNL     1       7.786   5.381  14.604  0.00  0.00    +0.000 OA
ATOM     27  HXT UNL     1       8.371   4.700  14.230  0.00  0.00    +0.000 HD
ENDBRANCH  24  26
ENDBRANCH  10  24
TORSDOF 5
ENDMDL
MODEL 2
REMARK VINA RESULT:      -6.2      1.785      5.992
REMARK  Name = 
REMARK  7 active torsions:
REMARK  status: ('A' for Active; 'I' for Inactive)
REMARK    1  A    between atoms: C_1  and  C_2
REMARK    2  A    between atoms: C_2  and  C_3
REMARK    3  A    between atoms: CA_6  and  N_7
REMARK    4  A    between atoms: C_8  and  C_10
REMARK    5  A    between atoms: C_10  and  N_11
REMARK    6  A    between atoms: CA_20  and  C_21
REMARK    7  A    between atoms: C_21  and  OXT_23
REMARK                            x       y       z     vdW  Elec       q    Type
REMARK                         _______ _______ _______ _____ _____    ______ ____
ROOT
ATOM      1  C   UNL     1       2.679   2.592  21.374  0.00  0.00    +0.000 C 
ATOM      2  C   UNL     1       2.176   2.826  19.946  0.00  0.00    +0.000 C 
ATOM      3  C   UNL     1       1.023   1.842  19.671  0.00  0.00    +0.000 C 
ATOM      4  S   UNL     1       3.516   2.460  18.718  0.00  0.00    +0.000 S 
ATOM      5  C   UNL     1       2.640   3.405  17.419  0.00  0.00    +0.000 C 
ATOM      6  CA  UNL     1       3.353   4.538  16.661  0.00  0.00    +0.000 C 
ATOM      7  C   UNL     1       2.563   5.477  17.604  0.00  0.00    +0.000 C 
ATOM      8  O   UNL     1       2.523   6.657  17.861  0.00  0.00    +0.000 OA
ATOM      9  N   UNL     1       1.880   4.431  18.165  0.00  0.00    +0.000 N 
ATOM     10  CA  UNL     1       1.744   4.280  19.618  0.00  0.00    +0.000 C 
ENDROOT
BRANCH   6  11
ATOM     11  N   UNL     1       4.827   4.562  16.716  0.00  0.00    +0.000 N 
ATOM     12  C   UNL     1       5.558   5.608  16.183  0.00  0.00    +0.000 C 
ATOM     13  O   UNL     1       5.024   6.535  15.581  0.00  0.00    +0.000 OA
ATOM     14  H   UNL     1       5.363   3.876  17.251  0.00  0.00    +0.000 HD
BRANCH  12  15
ATOM     15  C   UNL     1       7.100   5.466  16.381  0.00  0.00    +0.000 C 
ATOM     16  C   UNL     1       7.450   4.628  17.628  0.00  0.00    +0.000 C 
ATOM     17  C   UNL     1       7.276   5.363  18.960  0.00  0.00    +0.000 C 
ATOM     18  C   UNL     1       7.902   6.753  18.957  0.00  0.00    +0.000 C 
ATOM     19  C   UNL     1       7.451   7.580  17.760  0.00  0.00    +0.000 C 
ATOM     20  C   UNL     1       7.748   6.860  16.443  0.00  0.00    +0.000 C 
BRANCH  15  21
ATOM     21  N   UNL     1       7.627   4.766  15.173  0.00  0.00    +0.000 NA
ATOM     22  H   UNL     1       8.285   4.046  15.474  0.00  0.00    +0.000 HD
ATOM     23  H   UNL     1       8.177   5.424  14.619  0.00  0.00    +0.000 HD
ENDBRANCH  15  21
ENDBRANCH  12  15
ENDBRANCH   6  11
BRANCH  10  24
ATOM     24  C   UNL     1       2.535   5.307  20.458  0.00  0.00    +0.000 C 
ATOM     25  O   UNL     1       2.036   6.063  21.282  0.00  0.00    +0.000 OA
BRANCH  24  26
ATOM     26  OXT UNL     1       3.863   5.340  20.177  0.00  0.00    +0.000 OA
ATOM     27  HXT UNL     1       4.099   5.536  19.254  0.00  0.00    +0.000 HD
ENDBRANCH  24  26
ENDBRANCH  10  24
TORSDOF 5
ENDMDL
MODEL 3
REMARK VINA RESULT:      -5.8      2.391      6.307
REMARK  Name = 
REMARK  7 active torsions:
REMARK  status: ('A' for Active; 'I' for Inactive)
REMARK    1  A    between atoms: C_1  and  C_2
REMARK    2  A    between atoms: C_2  and  C_3
REMARK    3  A    between atoms: CA_6  and  N_7
REMARK    4  A    between atoms: C_8  and  C_10
REMARK    5  A    between atoms: C_10  and  N_11
REMARK    6  A    between atoms: CA_20  and  C_21
REMARK    7  A    between atoms: C_21  and  OXT_23
REMARK                            x       y       z     vdW  Elec       q    Type
REMARK                         _______ _______ _______ _____ _____    ______ ____
ROOT
ATOM      1  C   UNL     1       0.673   4.788  20.307  0.00  0.00    +0.000 C 
ATOM      2  C   UNL     1       1.928   3.941  20.537  0.00  0.00    +0.000 C 
ATOM      3  C   UNL     1       2.076   3.697  22.052  0.00  0.00    +0.000 C 
ATOM      4  S   UNL     1       3.441   4.854  19.977  0.00  0.00    +0.000 S 
ATOM      5  C   UNL     1       4.408   3.302  19.921  0.00  0.00    +0.000 C 
ATOM      6  CA  UNL     1       5.154   2.891  18.640  0.00  0.00    +0.000 C 
ATOM      7  C   UNL     1       3.963   1.929  18.422  0.00  0.00    +0.000 C 
ATOM      8  O   UNL     1       3.562   1.184  17.558  0.00  0.00    +0.000 OA
ATOM      9  N   UNL     1       3.404   2.258  19.628  0.00  0.00    +0.000 N 
ATOM     10  CA  UNL     1       1.982   2.599  19.760  0.00  0.00    +0.000 C 
ENDROOT
BRANCH   6  11
ATOM     11  N   UNL     1       5.401   3.945  17.637  0.00  0.00    +0.000 N 
ATOM     12  C   UNL     1       6.593   4.645  17.597  0.00  0.00    +0.000 C 
ATOM     13  O   UNL     1       7.477   4.473  18.431  0.00  0.00    +0.000 OA
ATOM     14  H   UNL     1       4.760   4.118  16.861  0.00  0.00    +0.000 HD
BRANCH  12  15
ATOM     15  C   UNL     1       6.675   5.686  16.436  0.00  0.00    +0.000 C 
ATOM     16  C   UNL     1       5.281   6.060  15.893  0.00  0.00    +0.000 C 
ATOM     17  C   UNL     1       4.642   5.000  14.991  0.00  0.00    +0.000 C 
ATOM     18  C   UNL     1       5.596   4.473  13.926  0.00  0.00    +0.000 C 
ATOM     19  C   UNL     1       6.924   4.023  14.521  0.00  0.00    +0.000 C 
ATOM     20  C   UNL     1       7.586   5.148  15.318  0.00  0.00    +0.000 C 
BRANCH  15  21
ATOM     21  N   UNL     1       7.312   6.911  17.001  0.00  0.00    +0.000 NA
ATOM     22  H   UNL     1       8.072   7.197  16.382  0.00  0.00    +0.000 HD
ATOM     23  H   UNL     1       7.757   6.677  17.890  0.00  0.00    +0.000 HD
ENDBRANCH  15  21
ENDBRANCH  12  15
ENDBRANCH   6  11
BRANCH  10  24
ATOM     24  C   UNL     1       1.206   2.686  18.427  0.00  0.00    +0.000 C 
ATOM     25  O   UNL     1       1.415   3.520  17.555  0.00  0.00    +0.000 OA
BRANCH  24  26
ATOM     26  OXT UNL     1       0.215   1.766  18.308  0.00  0.00    +0.000 OA
ATOM     27  HXT UNL     1       0.103   1.372  17.425  0.00  0.00    +0.000 HD
ENDBRANCH  24  26
ENDBRANCH  10  24
TORSDOF 5
ENDMDL
MODEL 4
REMARK VINA RESULT:      -5.7      2.483      3.617
REMARK  Name = 
REMARK  7 active torsions:
REMARK  status: ('A' for Active; 'I' for Inactive)
REMARK    1  A    between atoms: C_1  and  C_2
REMARK    2  A    between atoms: C_2  and  C_3
REMARK    3  A    between atoms: CA_6  and  N_7
REMARK    4  A    between atoms: C_8  and  C_10
REMARK    5  A    between atoms: C_10  and  N_11
REMARK    6  A    between atoms: CA_20  and  C_21
REMARK    7  A    between atoms: C_21  and  OXT_23
REMARK                            x       y       z     vdW  Elec       q    Type
REMARK                         _______ _______ _______ _____ _____    ______ ____
ROOT
ATOM      1  C   UNL     1       5.246   6.585  14.680  0.00  0.00    +0.000 C 
ATOM      2  C   UNL     1       6.016   5.507  15.447  0.00  0.00    +0.000 C 
ATOM      3  C   UNL     1       6.870   4.712  14.440  0.00  0.00    +0.000 C 
ATOM      4  S   UNL     1       4.843   4.310  16.238  0.00  0.00    +0.000 S 
ATOM      5  C   UNL     1       6.148   3.719  17.377  0.00  0.00    +0.000 C 
ATOM      6  CA  UNL     1       5.918   3.721  18.898  0.00  0.00    +0.000 C 
ATOM      7  C   UNL     1       6.781   5.004  18.886  0.00  0.00    +0.000 C 
ATOM      8  O   UNL     1       7.115   5.864  19.668  0.00  0.00    +0.000 OA
ATOM      9  N   UNL     1       7.038   4.886  17.547  0.00  0.00    +0.000 N 
ATOM     10  CA  UNL     1       6.892   6.017  16.623  0.00  0.00    +0.000 C 
ENDROOT
BRANCH   6  11
ATOM     11  N   UNL     1       4.523   3.813  19.369  0.00  0.00    +0.000 N 
ATOM     12  C   UNL     1       3.997   2.904  20.267  0.00  0.00    +0.000 C 
ATOM     13  O   UNL     1       4.640   1.938  20.668  0.00  0.00    +0.000 OA
ATOM     14  H   UNL     1       3.927   4.614  19.149  0.00  0.00    +0.000 HD
BRANCH  12  15
ATOM     15  C   UNL     1       2.518   3.201  20.673  0.00  0.00    +0.000 C 
ATOM     16  C   UNL     1       1.528   2.220  20.014  0.00  0.00    +0.000 C 
ATOM     17  C   UNL     1       1.249   2.492  18.534  0.00  0.00    +0.000 C 
ATOM     18  C   UNL     1       0.946   3.958  18.246  0.00  0.00    +0.000 C 
ATOM     19  C   UNL     1       2.004   4.885  18.831  0.00  0.00    +0.000 C 
ATOM     20  C   UNL     1       2.169   4.661  20.335  0.00  0.00    +0.000 C 
BRANCH  15  21
ATOM     21  N   UNL     1       2.438   3.038  22.154  0.00  0.00    +0.000 NA
ATOM     22  H   UNL     1       3.262   3.470  22.574  0.00  0.00    +0.000 HD
ATOM     23  H   UNL     1       2.502   2.046  22.386  0.00  0.00    +0.000 HD
ENDBRANCH  15  21
ENDBRANCH  12  15
ENDBRANCH   6  11
BRANCH  10  24
ATOM     24  C   UNL     1       6.302   7.300  17.250  0.00  0.00    +0.000 C 
ATOM     25  O   UNL     1       5.128   7.443  17.566  0.00  0.00    +0.000 OA
BRANCH  24  26
ATOM     26  OXT UNL     1       7.204   8.305  17.393  0.00  0.00    +0.000 OA
ATOM     27  HXT UNL     1       7.014   8.951  18.095  0.00  0.00    +0.000 HD
ENDBRANCH  24  26
ENDBRANCH  10  24
TORSDOF 5
ENDMDL
MODEL 5
REMARK VINA RESULT:      -5.7      2.370      6.276
REMARK  Name = 
REMARK  7 active torsions:
REMARK  status: ('A' for Active; 'I' for Inactive)
REMARK    1  A    between atoms: C_1  and  C_2
REMARK    2  A    between atoms: C_2  and  C_3
REMARK    3  A    between atoms: CA_6  and  N_7
REMARK    4  A    between atoms: C_8  and  C_10
REMARK    5  A    between atoms: C_10  and  N_11
REMARK    6  A    between atoms: CA_20  and  C_21
REMARK    7  A    between atoms: C_21  and  OXT_23
REMARK                            x       y       z     vdW  Elec       q    Type
REMARK                         _______ _______ _______ _____ _____    ______ ____
ROOT
ATOM      1  C   UNL     1       0.743   4.900  20.351  0.00  0.00    +0.000 C 
ATOM      2  C   UNL     1       1.960   3.993  20.555  0.00  0.00    +0.000 C 
ATOM      3  C   UNL     1       2.126   3.738  22.065  0.00  0.00    +0.000 C 
ATOM      4  S   UNL     1       3.503   4.836  19.967  0.00  0.00    +0.000 S 
ATOM      5  C   UNL     1       4.394   3.240  19.889  0.00  0.00    +0.000 C 
ATOM      6  CA  UNL     1       5.095   2.798  18.592  0.00  0.00    +0.000 C 
ATOM      7  C   UNL     1       3.856   1.894  18.395  0.00  0.00    +0.000 C 
ATOM      8  O   UNL     1       3.403   1.172  17.538  0.00  0.00    +0.000 OA
ATOM      9  N   UNL     1       3.336   2.245  19.612  0.00  0.00    +0.000 N 
ATOM     10  CA  UNL     1       1.935   2.653  19.773  0.00  0.00    +0.000 C 
ENDROOT
BRANCH   6  11
ATOM     11  N   UNL     1       5.373   3.842  17.587  0.00  0.00    +0.000 N 
ATOM     12  C   UNL     1       6.597   4.482  17.523  0.00  0.00    +0.000 C 
ATOM     13  O   UNL     1       7.489   4.263  18.337  0.00  0.00    +0.000 OA
ATOM     14  H   UNL     1       4.724   4.051  16.826  0.00  0.00    +0.000 HD
BRANCH  12  15
ATOM     15  C   UNL     1       6.705   5.522  16.363  0.00  0.00    +0.000 C 
ATOM     16  C   UNL     1       7.526   6.762  16.771  0.00  0.00    +0.000 C 
ATOM     17  C   UNL     1       6.784   7.748  17.679  0.00  0.00    +0.000 C 
ATOM     18  C   UNL     1       5.382   8.075  17.180  0.00  0.00    +0.000 C 
ATOM     19  C   UNL     1       4.573   6.818  16.884  0.00  0.00    +0.000 C 
ATOM     20  C   UNL     1       5.297   5.915  15.883  0.00  0.00    +0.000 C 
BRANCH  15  21
ATOM     21  N   UNL     1       7.402   4.838  15.236  0.00  0.00    +0.000 NA
ATOM     22  H   UNL     1       7.368   5.445  14.415  0.00  0.00    +0.000 HD
ATOM     23  H   UNL     1       6.878   4.000  14.977  0.00  0.00    +0.000 HD
ENDBRANCH  15  21
ENDBRANCH  12  15
ENDBRANCH   6  11
BRANCH  10  24
ATOM     24  C   UNL     1       1.138   2.782  18.456  0.00  0.00    +0.000 C 
ATOM     25  O   UNL     1       1.243   3.714  17.669  0.00  0.00    +0.000 OA
BRANCH  24  26
ATOM     26  OXT UNL     1       0.255   1.773  18.248  0.00  0.00    +0.000 OA
ATOM     27  HXT UNL     1       0.628   0.943  17.903  0.00  0.00    +0.000 HD
ENDBRANCH  24  26
ENDBRANCH  10  24
TORSDOF 5
ENDMDL
MODEL 6
REMARK VINA RESULT:      -5.6      2.312      3.403
REMARK  Name = 
REMARK  7 active torsions:
REMARK  status: ('A' for Active; 'I' for Inactive)
REMARK    1  A    between atoms: C_1  and  C_2
REMARK    2  A    between atoms: C_2  and  C_3
REMARK    3  A    between atoms: CA_6  and  N_7
REMARK    4  A    between atoms: C_8  and  C_10
REMARK    5  A    between atoms: C_10  and  N_11
REMARK    6  A    between atoms: CA_20  and  C_21
REMARK    7  A    between atoms: C_21  and  OXT_23
REMARK                            x       y       z     vdW  Elec       q    Type
REMARK                         _______ _______ _______ _____ _____    ______ ____
ROOT
ATOM      1  C   UNL     1       5.432   6.702  14.541  0.00  0.00    +0.000 C 
ATOM      2  C   UNL     1       6.046   5.507  15.275  0.00  0.00    +0.000 C 
ATOM      3  C   UNL     1       6.979   4.765  14.298  0.00  0.00    +0.000 C 
ATOM      4  S   UNL     1       4.726   4.312  15.789  0.00  0.00    +0.000 S 
ATOM      5  C   UNL     1       5.848   3.530  17.005  0.00  0.00    +0.000 C 
ATOM      6  CA  UNL     1       5.431   3.395  18.479  0.00  0.00    +0.000 C 
ATOM      7  C   UNL     1       6.351   4.617  18.707  0.00  0.00    +0.000 C 
ATOM      8  O   UNL     1       6.626   5.372  19.610  0.00  0.00    +0.000 OA
ATOM      9  N   UNL     1       6.767   4.618  17.403  0.00  0.00    +0.000 N 
ATOM     10  CA  UNL     1       6.792   5.842  16.594  0.00  0.00    +0.000 C 
ENDROOT
BRANCH   6  11
ATOM     11  N   UNL     1       3.994   3.526  18.788  0.00  0.00    +0.000 N 
ATOM     12  C   UNL     1       3.148   2.432  18.794  0.00  0.00    +0.000 C 
ATOM     13  O   UNL     1       3.534   1.310  18.480  0.00  0.00    +0.000 OA
ATOM     14  H   UNL     1       3.588   4.401  19.126  0.00  0.00    +0.000 HD
BRANCH  12  15
ATOM     15  C   UNL     1       1.676   2.775  19.187  0.00  0.00    +0.000 C 
ATOM     16  C   UNL     1       1.267   4.189  18.728  0.00  0.00    +0.000 C 
ATOM     17  C   UNL     1       1.833   5.326  19.584  0.00  0.00    +0.000 C 
ATOM     18  C   UNL     1       1.657   5.089  21.079  0.00  0.00    +0.000 C 
ATOM     19  C   UNL     1       2.165   3.717  21.504  0.00  0.00    +0.000 C 
ATOM     20  C   UNL     1       1.489   2.602  20.705  0.00  0.00    +0.000 C 
BRANCH  15  21
ATOM     21  N   UNL     1       0.804   1.779  18.498  0.00  0.00    +0.000 NA
ATOM     22  H   UNL     1       0.878   0.887  18.990  0.00  0.00    +0.000 HD
ATOM     23  H   UNL     1       1.171   1.605  17.561  0.00  0.00    +0.000 HD
ENDBRANCH  15  21
ENDBRANCH  12  15
ENDBRANCH   6  11
BRANCH  10  24
ATOM     24  C   UNL     1       6.193   7.090  17.280  0.00  0.00    +0.000 C 
ATOM     25  O   UNL     1       4.996   7.280  17.454  0.00  0.00    +0.000 OA
BRANCH  24  26
ATOM     26  OXT UNL     1       7.120   8.009  17.652  0.00  0.00    +0.000 OA
ATOM     27  HXT UNL     1       6.808   8.713  18.247  0.00  0.00    +0.000 HD
ENDBRANCH  24  26
ENDBRANCH  10  24
TORSDOF 5
ENDMDL
MODEL 7
REMARK VINA RESULT:      -5.5      0.898      1.543
REMARK  Name = 
REMARK  7 active torsions:
REMARK  status: ('A' for Active; 'I' for Inactive)
REMARK    1  A    between atoms: C_1  and  C_2
REMARK    2  A    between atoms: C_2  and  C_3
REMARK    3  A    between atoms: CA_6  and  N_7
REMARK    4  A    between atoms: C_8  and  C_10
REMARK    5  A    between atoms: C_10  and  N_11
REMARK    6  A    between atoms: CA_20  and  C_21
REMARK    7  A    between atoms: C_21  and  OXT_23
REMARK                            x       y       z     vdW  Elec       q    Type
REMARK                         _______ _______ _______ _____ _____    ______ ____
ROOT
ATOM      1  C   UNL     1       8.612   4.599  18.437  0.00  0.00    +0.000 C 
ATOM      2  C   UNL     1       7.627   5.764  18.306  0.00  0.00    +0.000 C 
ATOM      3  C   UNL     1       8.286   7.024  18.898  0.00  0.00    +0.000 C 
ATOM      4  S   UNL     1       6.093   5.430  19.291  0.00  0.00    +0.000 S 
ATOM      5  C   UNL     1       5.166   6.701  18.356  0.00  0.00    +0.000 C 
ATOM      6  CA  UNL     1       3.839   6.349  17.662  0.00  0.00    +0.000 C 
ATOM      7  C   UNL     1       4.688   6.297  16.371  0.00  0.00    +0.000 C 
ATOM      8  O   UNL     1       4.538   5.979  15.214  0.00  0.00    +0.000 OA
ATOM      9  N   UNL     1       5.813   6.719  17.027  0.00  0.00    +0.000 N 
ATOM     10  CA  UNL     1       7.106   6.042  16.871  0.00  0.00    +0.000 C 
ENDROOT
BRANCH   6  11
ATOM     11  N   UNL     1       3.153   5.120  18.105  0.00  0.00    +0.000 N 
ATOM     12  C   UNL     1       2.429   5.075  19.282  0.00  0.00    +0.000 C 
ATOM     13  O   UNL     1       2.375   6.032  20.050  0.00  0.00    +0.000 OA
ATOM     14  H   UNL     1       3.080   4.293  17.510  0.00  0.00    +0.000 HD
BRANCH  12  15
ATOM     15  C   UNL     1       1.744   3.698  19.550  0.00  0.00    +0.000 C 
ATOM     16  C   UNL     1       2.612   2.779  20.433  0.00  0.00    +0.000 C 
ATOM     17  C   UNL     1       3.794   2.129  19.707  0.00  0.00    +0.000 C 
ATOM     18  C   UNL     1       3.402   1.508  18.372  0.00  0.00    +0.000 C 
ATOM     19  C   UNL     1       2.630   2.484  17.492  0.00  0.00    +0.000 C 
ATOM     20  C   UNL     1       1.393   3.023  18.212  0.00  0.00    +0.000 C 
BRANCH  15  21
ATOM     21  N   UNL     1       0.468   3.985  20.270  0.00  0.00    +0.000 NA
ATOM     22  H   UNL     1       0.049   3.099  20.556  0.00  0.00    +0.000 HD
ATOM     23  H   UNL     1      -0.197   4.403  19.617  0.00  0.00    +0.000 HD
ENDBRANCH  15  21
ENDBRANCH  12  15
ENDBRANCH   6  11
BRANCH  10  24
ATOM     24  C   UNL     1       7.069   4.751  16.022  0.00  0.00    +0.000 C 
ATOM     25  O   UNL     1       7.650   4.605  14.954  0.00  0.00    +0.000 OA
BRANCH  24  26
ATOM     26  OXT UNL     1       6.286   3.774  16.545  0.00  0.00    +0.000 OA
ATOM     27  HXT UNL     1       5.660   3.354  15.930  0.00  0.00    +0.000 HD
ENDBRANCH  24  26
ENDBRANCH  10  24
TORSDOF 5
ENDMDL
MODEL 8
REMARK VINA RESULT:      -5.4      9.009     10.222
REMARK  Name = 
REMARK  7 active torsions:
REMARK  status: ('A' for Active; 'I' for Inactive)
REMARK    1  A    between atoms: C_1  and  C_2
REMARK    2  A    between atoms: C_2  and  C_3
REMARK    3  A    between atoms: CA_6  and  N_7
REMARK    4  A    between atoms: C_8  and  C_10
REMARK    5  A    between atoms: C_10  and  N_11
REMARK    6  A    between atoms: CA_20  and  C_21
REMARK    7  A    between atoms: C_21  and  OXT_23
REMARK                            x       y       z     vdW  Elec       q    Type
REMARK                         _______ _______ _______ _____ _____    ______ ____
ROOT
ATOM      1  C   UNL     1      11.567  12.531  17.560  0.00  0.00    +0.000 C 
ATOM      2  C   UNL     1      11.097  13.805  18.269  0.00  0.00    +0.000 C 
ATOM      3  C   UNL     1      12.032  14.960  17.859  0.00  0.00    +0.000 C 
ATOM      4  S   UNL     1      11.233  13.613  20.108  0.00  0.00    +0.000 S 
ATOM      5  C   UNL     1      10.088  15.014  20.380  0.00  0.00    +0.000 C 
ATOM      6  CA  UNL     1       8.834  14.841  21.254  0.00  0.00    +0.000 C 
ATOM      7  C   UNL     1       8.080  14.740  19.908  0.00  0.00    +0.000 C 
ATOM      8  O   UNL     1       6.961  14.484  19.527  0.00  0.00    +0.000 OA
ATOM      9  N   UNL     1       9.214  15.007  19.188  0.00  0.00    +0.000 N 
ATOM     10  CA  UNL     1       9.613  14.194  18.034  0.00  0.00    +0.000 C 
ENDROOT
BRANCH   6  11
ATOM     11  N   UNL     1       8.805  13.683  22.168  0.00  0.00    +0.000 N 
ATOM     12  C   UNL     1       7.706  13.412  22.963  0.00  0.00    +0.000 C 
ATOM     13  O   UNL     1       6.729  14.155  22.998  0.00  0.00    +0.000 OA
ATOM     14  H   UNL     1       9.536  12.970  22.166  0.00  0.00    +0.000 HD
BRANCH  12  15
ATOM     15  C   UNL     1       7.855  12.119  23.825  0.00  0.00    +0.000 C 
ATOM     16  C   UNL     1       6.490  11.562  24.276  0.00  0.00    +0.000 C 
ATOM     17  C   UNL     1       5.832  12.335  25.423  0.00  0.00    +0.000 C 
ATOM     18  C   UNL     1       6.791  12.620  26.573  0.00  0.00    +0.000 C 
ATOM     19  C   UNL     1       8.087  13.260  26.092  0.00  0.00    +0.000 C 
ATOM     20  C   UNL     1       8.771  12.399  25.029  0.00  0.00    +0.000 C 
BRANCH  15  21
ATOM     21  N   UNL     1       8.525  11.102  22.963  0.00  0.00    +0.000 NA
ATOM     22  H   UNL     1       9.536  11.208  23.059  0.00  0.00    +0.000 HD
ATOM     23  H   UNL     1       8.320  11.307  21.984  0.00  0.00    +0.000 HD
ENDBRANCH  15  21
ENDBRANCH  12  15
ENDBRANCH   6  11
BRANCH  10  24
ATOM     24  C   UNL     1       8.736  12.947  17.779  0.00  0.00    +0.000 C 
ATOM     25  O   UNL     1       8.865  11.877  18.360  0.00  0.00    +0.000 OA
BRANCH  24  26
ATOM     26  OXT UNL     1       7.809  13.119  16.803  0.00  0.00    +0.000 OA
ATOM     27  HXT UNL     1       7.253  13.915  16.878  0.00  0.00    +0.000 HD
ENDBRANCH  24  26
ENDBRANCH  10  24
TORSDOF 5
ENDMDL
MODEL 9
REMARK VINA RESULT:      -5.4      1.796      6.171
REMARK  Name = 
REMARK  7 active torsions:
REMARK  status: ('A' for Active; 'I' for Inactive)
REMARK    1  A    between atoms: C_1  and  C_2
REMARK    2  A    between atoms: C_2  and  C_3
REMARK    3  A    between atoms: CA_6  and  N_7
REMARK    4  A    between atoms: C_8  and  C_10
REMARK    5  A    between atoms: C_10  and  N_11
REMARK    6  A    between atoms: CA_20  and  C_21
REMARK    7  A    between atoms: C_21  and  OXT_23
REMARK                            x       y       z     vdW  Elec       q    Type
REMARK                         _______ _______ _______ _____ _____    ______ ____
ROOT
ATOM      1  C   UNL     1       2.179   1.182  19.723  0.00  0.00    +0.000 C 
ATOM      2  C   UNL     1       1.732   2.439  18.969  0.00  0.00    +0.000 C 
ATOM      3  C   UNL     1       0.385   2.138  18.284  0.00  0.00    +0.000 C 
ATOM      4  S   UNL     1       2.947   2.862  17.635  0.00  0.00    +0.000 S 
ATOM      5  C   UNL     1       2.296   4.569  17.527  0.00  0.00    +0.000 C 
ATOM      6  CA  UNL     1       3.240   5.775  17.667  0.00  0.00    +0.000 C 
ATOM      7  C   UNL     1       2.688   5.864  19.109  0.00  0.00    +0.000 C 
ATOM      8  O   UNL     1       2.915   6.492  20.116  0.00  0.00    +0.000 OA
ATOM      9  N   UNL     1       1.792   4.852  18.887  0.00  0.00    +0.000 N 
ATOM     10  CA  UNL     1       1.635   3.732  19.822  0.00  0.00    +0.000 C 
ENDROOT
BRANCH   6  11
ATOM     11  N   UNL     1       4.683   5.528  17.479  0.00  0.00    +0.000 N 
ATOM     12  C   UNL     1       5.401   6.149  16.474  0.00  0.00    +0.000 C 
ATOM     13  O   UNL     1       4.866   6.883  15.649  0.00  0.00    +0.000 OA
ATOM     14  H   UNL     1       5.234   4.989  18.148  0.00  0.00    +0.000 HD
BRANCH  12  15
ATOM     15  C   UNL     1       6.921   5.788  16.470  0.00  0.00    +0.000 C 
ATOM     16  C   UNL     1       7.282   4.785  17.584  0.00  0.00    +0.000 C 
ATOM     17  C   UNL     1       7.359   5.392  18.988  0.00  0.00    +0.000 C 
ATOM     18  C   UNL     1       8.169   6.682  19.034  0.00  0.00    +0.000 C 
ATOM     19  C   UNL     1       7.712   7.682  17.980  0.00  0.00    +0.000 C 
ATOM     20  C   UNL     1       7.761   7.073  16.578  0.00  0.00    +0.000 C 
BRANCH  15  21
ATOM     21  N   UNL     1       7.210   5.158  15.148  0.00  0.00    +0.000 NA
ATOM     22  H   UNL     1       6.665   5.640  14.432  0.00  0.00    +0.000 HD
ATOM     23  H   UNL     1       6.864   4.197  15.153  0.00  0.00    +0.000 HD
ENDBRANCH  15  21
ENDBRANCH  12  15
ENDBRANCH   6  11
BRANCH  10  24
ATOM     24  C   UNL     1       2.642   3.713  20.993  0.00  0.00    +0.000 C 
ATOM     25  O   UNL     1       2.330   3.707  22.177  0.00  0.00    +0.000 OA
BRANCH  24  26
ATOM     26  OXT UNL     1       3.941   3.747  20.601  0.00  0.00    +0.000 OA
ATOM     27  HXT UNL     1       4.154   3.255  19.789  0.00  0.00    +0.000 HD
ENDBRANCH  24  26
ENDBRANCH  10  24
TORSDOF 5
ENDMDL
