MODEL 1
REMARK VINA RESULT:      -6.5      0.000      0.000
REMARK  Name = 
REMARK  10 active torsions:
REMARK  status: ('A' for Active; 'I' for Inactive)
REMARK    1  A    between atoms: CB_1  and  CA_2
REMARK    2  A    between atoms: CA_2  and  N_3
REMARK    3  A    between atoms: CA_2  and  C_31
REMARK    4  A    between atoms: C_4  and  C_6
REMARK    5  A    between atoms: C_6  and  C_7
REMARK    6  A    between atoms: C_9  and  O_10
REMARK    7  A    between atoms: C_16  and  O_17
REMARK    8  A    between atoms: N_23  and  C_24
REMARK    9  A    between atoms: C_24  and  C_25
REMARK   10  A    between atoms: C_31  and  OXT_33
REMARK                            x       y       z     vdW  Elec       q    Type
REMARK                         _______ _______ _______ _____ _____    ______ ____
ROOT
ATOM      1  C   UNK A   0       0.784  12.374  20.284  0.00  0.00    +0.000 C 
ATOM      2  C   UNK A   0       1.880  11.756  19.555  0.00  0.00    +0.000 C 
ATOM      3  C   UNK A   0       0.834  12.923  19.527  0.00  0.00    +0.000 C 
ATOM      4  C   UNK A   0       0.208  13.333  21.562  0.00  0.00    +0.000 C 
ATOM      5  C   UNK A   0       0.555  14.849  21.851  0.00  0.00    +0.000 C 
ATOM      6  C   UNK A   0       0.347  15.898  20.767  0.00  0.00    +0.000 A 
ATOM      7  C   UNK A   0      -0.188  17.060  21.360  0.00  0.00    +0.000 A 
ATOM      8  C   UNK A   0      -1.185  17.733  20.702  0.00  0.00    +0.000 A 
ATOM      9  C   UNK A   0      -1.458  17.383  19.385  0.00  0.00    +0.000 A 
ATOM     10  C   UNK A   0      -0.653  16.477  18.648  0.00  0.00    +0.000 A 
ATOM     11  C   UNK A   0       0.293  15.664  19.334  0.00  0.00    +0.000 A 
ATOM     12  C   UNK A   0       0.760  14.143  18.600  0.00  0.00    +0.000 C 
ATOM     13  C   UNK A   0      -0.672  12.879  18.118  0.00  0.00    +0.000 C 
ATOM     14  C   UNK A   0      -1.252  11.554  19.546  0.00  0.00    +0.000 C 
ATOM     15  N   UNK A   0      -1.108  12.077  21.334  0.00  0.00    +0.000 NA
ATOM     16  C   UNK A   0       2.349  14.286  19.146  0.00  0.00    +0.000 C 
ATOM     17  C   UNK A   0       2.348  13.508  20.583  0.00  0.00    +0.000 C 
ATOM     18  O   UNK A   0       3.191  13.395  21.453  0.00  0.00    +0.000 OA
ENDROOT
BRANCH   3  19
ATOM     19  O   UNK A   0       1.012  11.764  18.196  0.00  0.00    +0.000 OA
ATOM     20  H   UNK A   0       1.422  12.126  17.382  0.00  0.00    +0.000 HD
ENDBRANCH   3  19
BRANCH   9  21
ATOM     21  O   UNK A   0      -2.647  17.812  18.849  0.00  0.00    +0.000 OA
ATOM     22  H   UNK A   0      -3.219  17.024  18.760  0.00  0.00    +0.000 HD
ENDBRANCH   9  21
BRANCH   1  23
ATOM     23  C   UNK A   0      -1.029  13.605  20.113  0.00  0.00    +0.000 C 
BRANCH  23  25
ATOM     24  N   ALA A   1      -3.708  13.250  20.175  0.00  0.00    +0.000 N 
ATOM     25  C   UNK A   0      -2.582  13.765  20.894  0.00  0.00    +0.000 C 
ATOM     26  O   UNK A   0      -2.766  14.411  21.922  0.00  0.00    +0.000 OA
ATOM     27  H   ALA A   1      -3.558  12.476  19.534  0.00  0.00    +0.000 HD
BRANCH  24  29
ATOM     28  CB  ALA A   1      -6.136  13.451  19.585  0.00  0.00    +0.000 C 
ATOM     29  CA  ALA A   1      -5.088  13.407  20.694  0.00  0.00    +0.000 C 
BRANCH  29  30
ATOM     30  C   ALA A   1      -5.620  12.365  21.711  0.00  0.00    +0.000 C 
ATOM     31  O   ALA A   1      -6.537  11.582  21.507  0.00  0.00    +0.000 OA
BRANCH  30  32
ATOM     32  OXT ALA A   1      -5.016  12.453  22.927  0.00  0.00    +0.000 OA
ATOM     33  HXT ALA A   1      -4.039  12.429  22.901  0.00  0.00    +0.000 HD
ENDBRANCH  30  32
ENDBRANCH  29  30
ENDBRANCH  24  29
ENDBRANCH  23  25
ENDBRANCH   1  23
BRANCH  15  34
ATOM     34  C   UNK A   0      -1.571  11.653  22.611  0.00  0.00    +0.000 C 
BRANCH  34  35
ATOM     35  C   UNK A   0      -1.053  10.358  23.081  0.00  0.00    +0.000 C 
ATOM     36  C   UNK A   0      -0.735   9.257  22.122  0.00  0.00    +0.000 C 
ATOM     37  C   UNK A   0       0.375  10.040  22.774  0.00  0.00    +0.000 C 
ENDBRANCH  34  35
ENDBRANCH  15  34
TORSDOF 9
ENDMDL
MODEL 2
REMARK VINA RESULT:      -6.0      1.425      1.706
REMARK  Name = 
REMARK  10 active torsions:
REMARK  status: ('A' for Active; 'I' for Inactive)
REMARK    1  A    between atoms: CB_1  and  CA_2
REMARK    2  A    between atoms: CA_2  and  N_3
REMARK    3  A    between atoms: CA_2  and  C_31
REMARK    4  A    between atoms: C_4  and  C_6
REMARK    5  A    between atoms: C_6  and  C_7
REMARK    6  A    between atoms: C_9  and  O_10
REMARK    7  A    between atoms: C_16  and  O_17
REMARK    8  A    between atoms: N_23  and  C_24
REMARK    9  A    between atoms: C_24  and  C_25
REMARK   10  A    between atoms: C_31  and  OXT_33
REMARK                            x       y       z     vdW  Elec       q    Type
REMARK                         _______ _______ _______ _____ _____    ______ ____
ROOT
ATOM      1  C   UNK A   0       0.794  12.295  20.315  0.00  0.00    +0.000 C 
ATOM      2  C   UNK A   0       1.870  11.831  19.454  0.00  0.00    +0.000 C 
ATOM      3  C   UNK A   0       0.722  12.888  19.596  0.00  0.00    +0.000 C 
ATOM      4  C   UNK A   0       0.253  13.116  21.700  0.00  0.00    +0.000 C 
ATOM      5  C   UNK A   0       0.483  14.640  22.057  0.00  0.00    +0.000 C 
ATOM      6  C   UNK A   0       0.080  15.725  21.068  0.00  0.00    +0.000 A 
ATOM      7  C   UNK A   0      -0.503  16.792  21.782  0.00  0.00    +0.000 A 
ATOM      8  C   UNK A   0      -1.615  17.401  21.259  0.00  0.00    +0.000 A 
ATOM      9  C   UNK A   0      -1.976  17.103  19.950  0.00  0.00    +0.000 A 
ATOM     10  C   UNK A   0      -1.162  16.324  19.087  0.00  0.00    +0.000 A 
ATOM     11  C   UNK A   0      -0.085  15.570  19.633  0.00  0.00    +0.000 A 
ATOM     12  C   UNK A   0       0.451  14.147  18.761  0.00  0.00    +0.000 C 
ATOM     13  C   UNK A   0      -0.897  12.779  18.322  0.00  0.00    +0.000 C 
ATOM     14  C   UNK A   0      -1.218  11.323  19.703  0.00  0.00    +0.000 C 
ATOM     15  N   UNK A   0      -0.957  11.752  21.503  0.00  0.00    +0.000 NA
ATOM     16  C   UNK A   0       2.064  14.413  19.176  0.00  0.00    +0.000 C 
ATOM     17  C   UNK A   0       2.267  13.556  20.552  0.00  0.00    +0.000 C 
ATOM     18  O   UNK A   0       3.194  13.477  21.337  0.00  0.00    +0.000 OA
ENDROOT
BRANCH   3  19
ATOM     19  O   UNK A   0       0.882  11.832  18.180  0.00  0.00    +0.000 OA
ATOM     20  H   UNK A   0       0.073  11.333  17.940  0.00  0.00    +0.000 HD
ENDBRANCH   3  19
BRANCH   9  21
ATOM     21  O   UNK A   0      -3.243  17.444  19.549  0.00  0.00    +0.000 OA
ATOM     22  H   UNK A   0      -3.799  17.465  20.353  0.00  0.00    +0.000 HD
ENDBRANCH   9  21
BRANCH   1  23
ATOM     23  C   UNK A   0      -1.133  13.350  20.385  0.00  0.00    +0.000 C 
BRANCH  23  25
ATOM     24  N   ALA A   1      -2.899  13.816  22.378  0.00  0.00    +0.000 N 
ATOM     25  C   UNK A   0      -2.706  13.159  21.120  0.00  0.00    +0.000 C 
ATOM     26  O   UNK A   0      -3.568  12.394  20.699  0.00  0.00    +0.000 OA
ATOM     27  H   ALA A   1      -2.367  14.659  22.569  0.00  0.00    +0.000 HD
BRANCH  24  29
ATOM     28  CB  ALA A   1      -4.030  12.669  24.299  0.00  0.00    +0.000 C 
ATOM     29  CA  ALA A   1      -4.160  13.656  23.141  0.00  0.00    +0.000 C 
BRANCH  29  30
ATOM     30  C   ALA A   1      -4.818  14.916  23.757  0.00  0.00    +0.000 C 
ATOM     31  O   ALA A   1      -5.705  15.578  23.235  0.00  0.00    +0.000 OA
BRANCH  30  32
ATOM     32  OXT ALA A   1      -4.249  15.291  24.935  0.00  0.00    +0.000 OA
ATOM     33  HXT ALA A   1      -3.325  15.599  24.863  0.00  0.00    +0.000 HD
ENDBRANCH  30  32
ENDBRANCH  29  30
ENDBRANCH  24  29
ENDBRANCH  23  25
ENDBRANCH   1  23
BRANCH  15  34
ATOM     34  C   UNK A   0      -1.259  11.212  22.785  0.00  0.00    +0.000 C 
BRANCH  34  35
ATOM     35  C   UNK A   0      -0.730   9.864  23.050  0.00  0.00    +0.000 C 
ATOM     36  C   UNK A   0      -0.407   8.925  21.933  0.00  0.00    +0.000 C 
ATOM     37  C   UNK A   0       0.699   9.608  22.694  0.00  0.00    +0.000 C 
ENDBRANCH  34  35
ENDBRANCH  15  34
TORSDOF 9
ENDMDL
MODEL 3
REMARK VINA RESULT:      -6.0      1.055      1.233
REMARK  Name = 
REMARK  10 active torsions:
REMARK  status: ('A' for Active; 'I' for Inactive)
REMARK    1  A    between atoms: CB_1  and  CA_2
REMARK    2  A    between atoms: CA_2  and  N_3
REMARK    3  A    between atoms: CA_2  and  C_31
REMARK    4  A    between atoms: C_4  and  C_6
REMARK    5  A    between atoms: C_6  and  C_7
REMARK    6  A    between atoms: C_9  and  O_10
REMARK    7  A    between atoms: C_16  and  O_17
REMARK    8  A    between atoms: N_23  and  C_24
REMARK    9  A    between atoms: C_24  and  C_25
REMARK   10  A    between atoms: C_31  and  OXT_33
REMARK                            x       y       z     vdW  Elec       q    Type
REMARK                         _______ _______ _______ _____ _____    ______ ____
ROOT
ATOM      1  C   UNK A   0       0.832  12.301  20.310  0.00  0.00    +0.000 C 
ATOM      2  C   UNK A   0       1.907  11.769  19.488  0.00  0.00    +0.000 C 
ATOM      3  C   UNK A   0       0.796  12.871  19.569  0.00  0.00    +0.000 C 
ATOM      4  C   UNK A   0       0.296  13.190  21.654  0.00  0.00    +0.000 C 
ATOM      5  C   UNK A   0       0.574  14.716  21.963  0.00  0.00    +0.000 C 
ATOM      6  C   UNK A   0       0.229  15.779  20.928  0.00  0.00    +0.000 A 
ATOM      7  C   UNK A   0      -0.329  16.890  21.592  0.00  0.00    +0.000 A 
ATOM      8  C   UNK A   0      -1.408  17.520  21.026  0.00  0.00    +0.000 A 
ATOM      9  C   UNK A   0      -1.755  17.188  19.721  0.00  0.00    +0.000 A 
ATOM     10  C   UNK A   0      -0.954  16.351  18.903  0.00  0.00    +0.000 A 
ATOM     11  C   UNK A   0       0.085  15.579  19.497  0.00  0.00    +0.000 A 
ATOM     12  C   UNK A   0       0.585  14.108  18.686  0.00  0.00    +0.000 C 
ATOM     13  C   UNK A   0      -0.803  12.773  18.268  0.00  0.00    +0.000 C 
ATOM     14  C   UNK A   0      -1.201  11.380  19.693  0.00  0.00    +0.000 C 
ATOM     15  N   UNK A   0      -0.958  11.863  21.482  0.00  0.00    +0.000 NA
ATOM     16  C   UNK A   0       2.199  14.331  19.123  0.00  0.00    +0.000 C 
ATOM     17  C   UNK A   0       2.345  13.518  20.532  0.00  0.00    +0.000 C 
ATOM     18  O   UNK A   0       3.254  13.433  21.338  0.00  0.00    +0.000 OA
ENDROOT
BRANCH   3  19
ATOM     19  O   UNK A   0       0.944  11.759  18.195  0.00  0.00    +0.000 OA
ATOM     20  H   UNK A   0       0.362  11.961  17.432  0.00  0.00    +0.000 HD
ENDBRANCH   3  19
BRANCH   9  21
ATOM     21  O   UNK A   0      -3.001  17.558  19.284  0.00  0.00    +0.000 OA
ATOM     22  H   UNK A   0      -3.293  16.877  18.647  0.00  0.00    +0.000 HD
ENDBRANCH   9  21
BRANCH   1  23
ATOM     23  C   UNK A   0      -1.056  13.425  20.304  0.00  0.00    +0.000 C 
BRANCH  23  25
ATOM     24  N   ALA A   1      -2.775  14.167  22.254  0.00  0.00    +0.000 N 
ATOM     25  C   UNK A   0      -2.620  13.364  21.079  0.00  0.00    +0.000 C 
ATOM     26  O   UNK A   0      -3.508  12.578  20.763  0.00  0.00    +0.000 OA
ATOM     27  H   ALA A   1      -2.219  15.012  22.339  0.00  0.00    +0.000 HD
BRANCH  24  29
ATOM     28  CB  ALA A   1      -5.180  14.868  22.373  0.00  0.00    +0.000 C 
ATOM     29  CA  ALA A   1      -4.027  14.130  23.049  0.00  0.00    +0.000 C 
BRANCH  29  30
ATOM     30  C   ALA A   1      -4.610  12.752  23.450  0.00  0.00    +0.000 C 
ATOM     31  O   ALA A   1      -4.204  12.052  24.368  0.00  0.00    +0.000 OA
BRANCH  30  32
ATOM     32  OXT ALA A   1      -5.595  12.327  22.612  0.00  0.00    +0.000 OA
ATOM     33  HXT ALA A   1      -6.081  13.042  22.157  0.00  0.00    +0.000 HD
ENDBRANCH  30  32
ENDBRANCH  29  30
ENDBRANCH  24  29
ENDBRANCH  23  25
ENDBRANCH   1  23
BRANCH  15  34
ATOM     34  C   UNK A   0      -1.303  11.380  22.775  0.00  0.00    +0.000 C 
BRANCH  34  35
ATOM     35  C   UNK A   0      -0.866  10.009  23.082  0.00  0.00    +0.000 C 
ATOM     36  C   UNK A   0      -0.464   9.063  21.996  0.00  0.00    +0.000 C 
ATOM     37  C   UNK A   0       0.581   9.691  22.881  0.00  0.00    +0.000 C 
ENDBRANCH  34  35
ENDBRANCH  15  34
TORSDOF 9
ENDMDL
MODEL 4
REMARK VINA RESULT:      -6.0      2.374      3.750
REMARK  Name = 
REMARK  10 active torsions:
REMARK  status: ('A' for Active; 'I' for Inactive)
REMARK    1  A    between atoms: CB_1  and  CA_2
REMARK    2  A    between atoms: CA_2  and  N_3
REMARK    3  A    between atoms: CA_2  and  C_31
REMARK    4  A    between atoms: C_4  and  C_6
REMARK    5  A    between atoms: C_6  and  C_7
REMARK    6  A    between atoms: C_9  and  O_10
REMARK    7  A    between atoms: C_16  and  O_17
REMARK    8  A    between atoms: N_23  and  C_24
REMARK    9  A    between atoms: C_24  and  C_25
REMARK   10  A    between atoms: C_31  and  OXT_33
REMARK                            x       y       z     vdW  Elec       q    Type
REMARK                         _______ _______ _______ _____ _____    ______ ____
ROOT
ATOM      1  C   UNK A   0       1.415  14.583  20.236  0.00  0.00    +0.000 C 
ATOM      2  C   UNK A   0       2.463  15.569  20.030  0.00  0.00    +0.000 C 
ATOM      3  C   UNK A   0       0.916  15.374  20.195  0.00  0.00    +0.000 C 
ATOM      4  C   UNK A   0       0.568  13.508  21.243  0.00  0.00    +0.000 C 
ATOM      5  C   UNK A   0      -0.240  13.865  22.555  0.00  0.00    +0.000 C 
ATOM      6  C   UNK A   0      -1.330  14.927  22.515  0.00  0.00    +0.000 A 
ATOM      7  C   UNK A   0      -2.419  14.487  23.295  0.00  0.00    +0.000 A 
ATOM      8  C   UNK A   0      -3.690  14.697  22.824  0.00  0.00    +0.000 A 
ATOM      9  C   UNK A   0      -3.858  15.534  21.727  0.00  0.00    +0.000 A 
ATOM     10  C   UNK A   0      -2.798  16.299  21.176  0.00  0.00    +0.000 A 
ATOM     11  C   UNK A   0      -1.455  16.003  21.546  0.00  0.00    +0.000 A 
ATOM     12  C   UNK A   0      -0.179  16.425  20.422  0.00  0.00    +0.000 C 
ATOM     13  C   UNK A   0      -0.314  15.739  18.580  0.00  0.00    +0.000 C 
ATOM     14  C   UNK A   0       0.509  13.917  18.211  0.00  0.00    +0.000 C 
ATOM     15  N   UNK A   0       0.551  12.677  19.609  0.00  0.00    +0.000 NA
ATOM     16  C   UNK A   0       0.881  16.833  21.669  0.00  0.00    +0.000 C 
ATOM     17  C   UNK A   0       1.699  15.450  21.964  0.00  0.00    +0.000 C 
ATOM     18  O   UNK A   0       2.501  15.142  22.827  0.00  0.00    +0.000 OA
ENDROOT
BRANCH   3  19
ATOM     19  O   UNK A   0       1.631  16.233  18.818  0.00  0.00    +0.000 OA
ATOM     20  H   UNK A   0       2.527  15.931  18.559  0.00  0.00    +0.000 HD
ENDBRANCH   3  19
BRANCH   9  21
ATOM     21  O   UNK A   0      -5.059  15.478  21.066  0.00  0.00    +0.000 OA
ATOM     22  H   UNK A   0      -5.535  16.307  21.272  0.00  0.00    +0.000 HD
ENDBRANCH   9  21
BRANCH   1  23
ATOM     23  C   UNK A   0      -0.717  14.130  19.952  0.00  0.00    +0.000 C 
BRANCH  23  25
ATOM     24  N   ALA A   1      -2.075  12.442  18.334  0.00  0.00    +0.000 N 
ATOM     25  C   UNK A   0      -1.737  12.736  19.694  0.00  0.00    +0.000 C 
ATOM     26  O   UNK A   0      -2.282  12.112  20.599  0.00  0.00    +0.000 OA
ATOM     27  H   ALA A   1      -1.422  12.714  17.605  0.00  0.00    +0.000 HD
BRANCH  24  29
ATOM     28  CB  ALA A   1      -4.473  11.750  18.095  0.00  0.00    +0.000 C 
ATOM     29  CA  ALA A   1      -3.006  11.339  17.994  0.00  0.00    +0.000 C 
BRANCH  29  30
ATOM     30  C   ALA A   1      -2.872  10.656  16.610  0.00  0.00    +0.000 C 
ATOM     31  O   ALA A   1      -3.163   9.494  16.362  0.00  0.00    +0.000 OA
BRANCH  30  32
ATOM     32  OXT ALA A   1      -2.303  11.463  15.672  0.00  0.00    +0.000 OA
ATOM     33  HXT ALA A   1      -1.976  10.998  14.877  0.00  0.00    +0.000 HD
ENDBRANCH  30  32
ENDBRANCH  29  30
ENDBRANCH  24  29
ENDBRANCH  23  25
ENDBRANCH   1  23
BRANCH  15  34
ATOM     34  C   UNK A   0       0.775  11.285  19.795  0.00  0.00    +0.000 C 
BRANCH  34  35
ATOM     35  C   UNK A   0       1.322  10.565  18.632  0.00  0.00    +0.000 C 
ATOM     36  C   UNK A   0       1.605   9.099  18.692  0.00  0.00    +0.000 C 
ATOM     37  C   UNK A   0       0.411   9.612  17.929  0.00  0.00    +0.000 C 
ENDBRANCH  34  35
ENDBRANCH  15  34
TORSDOF 9
ENDMDL
MODEL 5
REMARK VINA RESULT:      -6.0      2.548      4.915
REMARK  Name = 
REMARK  10 active torsions:
REMARK  status: ('A' for Active; 'I' for Inactive)
REMARK    1  A    between atoms: CB_1  and  CA_2
REMARK    2  A    between atoms: CA_2  and  N_3
REMARK    3  A    between atoms: CA_2  and  C_31
REMARK    4  A    between atoms: C_4  and  C_6
REMARK    5  A    between atoms: C_6  and  C_7
REMARK    6  A    between atoms: C_9  and  O_10
REMARK    7  A    between atoms: C_16  and  O_17
REMARK    8  A    between atoms: N_23  and  C_24
REMARK    9  A    between atoms: C_24  and  C_25
REMARK   10  A    between atoms: C_31  and  OXT_33
REMARK                            x       y       z     vdW  Elec       q    Type
REMARK                         _______ _______ _______ _____ _____    ______ ____
ROOT
ATOM      1  C   UNK A   0      -1.786  14.105  22.909  0.00  0.00    +0.000 C 
ATOM      2  C   UNK A   0      -1.177  15.062  23.819  0.00  0.00    +0.000 C 
ATOM      3  C   UNK A   0      -2.174  14.905  22.620  0.00  0.00    +0.000 C 
ATOM      4  C   UNK A   0      -2.901  12.863  22.592  0.00  0.00    +0.000 C 
ATOM      5  C   UNK A   0      -4.475  12.936  22.727  0.00  0.00    +0.000 C 
ATOM      6  C   UNK A   0      -5.253  14.028  22.004  0.00  0.00    +0.000 A 
ATOM      7  C   UNK A   0      -6.433  13.467  21.475  0.00  0.00    +0.000 A 
ATOM      8  C   UNK A   0      -6.831  13.841  20.217  0.00  0.00    +0.000 A 
ATOM      9  C   UNK A   0      -6.193  14.921  19.617  0.00  0.00    +0.000 A 
ATOM     10  C   UNK A   0      -5.266  15.744  20.306  0.00  0.00    +0.000 A 
ATOM     11  C   UNK A   0      -4.732  15.307  21.552  0.00  0.00    +0.000 A 
ATOM     12  C   UNK A   0      -3.165  15.923  22.039  0.00  0.00    +0.000 C 
ATOM     13  C   UNK A   0      -1.661  15.700  20.786  0.00  0.00    +0.000 C 
ATOM     14  C   UNK A   0      -0.587  13.980  20.932  0.00  0.00    +0.000 C 
ATOM     15  N   UNK A   0      -1.470  12.444  21.525  0.00  0.00    +0.000 NA
ATOM     16  C   UNK A   0      -3.612  15.974  23.664  0.00  0.00    +0.000 C 
ATOM     17  C   UNK A   0      -3.142  14.523  24.252  0.00  0.00    +0.000 C 
ATOM     18  O   UNK A   0      -3.313  13.983  25.329  0.00  0.00    +0.000 OA
ENDROOT
BRANCH   3  19
ATOM     19  O   UNK A   0      -0.804  16.032  22.586  0.00  0.00    +0.000 OA
ATOM     20  H   UNK A   0      -0.588  16.449  23.446  0.00  0.00    +0.000 HD
ENDBRANCH   3  19
BRANCH   9  21
ATOM     21  O   UNK A   0      -6.354  15.080  18.264  0.00  0.00    +0.000 OA
ATOM     22  H   UNK A   0      -7.309  15.218  18.106  0.00  0.00    +0.000 HD
ENDBRANCH   9  21
BRANCH   1  23
ATOM     23  C   UNK A   0      -2.721  13.831  20.939  0.00  0.00    +0.000 C 
BRANCH  23  25
ATOM     24  N   ALA A   1      -2.007  12.541  18.673  0.00  0.00    +0.000 N 
ATOM     25  C   UNK A   0      -2.942  12.565  19.757  0.00  0.00    +0.000 C 
ATOM     26  O   UNK A   0      -3.915  11.816  19.733  0.00  0.00    +0.000 OA
ATOM     27  H   ALA A   1      -1.073  12.906  18.833  0.00  0.00    +0.000 HD
BRANCH  24  29
ATOM     28  CB  ALA A   1      -1.380  10.272  17.811  0.00  0.00    +0.000 C 
ATOM     29  CA  ALA A   1      -2.145  11.569  17.561  0.00  0.00    +0.000 C 
BRANCH  29  30
ATOM     30  C   ALA A   1      -3.568  11.124  17.139  0.00  0.00    +0.000 C 
ATOM     31  O   ALA A   1      -4.363  11.805  16.506  0.00  0.00    +0.000 OA
BRANCH  30  32
ATOM     32  OXT ALA A   1      -3.905   9.897  17.620  0.00  0.00    +0.000 OA
ATOM     33  HXT ALA A   1      -3.630   9.729  18.542  0.00  0.00    +0.000 HD
ENDBRANCH  30  32
ENDBRANCH  29  30
ENDBRANCH  24  29
ENDBRANCH  23  25
ENDBRANCH   1  23
BRANCH  15  34
ATOM     34  C   UNK A   0      -1.256  11.038  21.568  0.00  0.00    +0.000 C 
BRANCH  34  35
ATOM     35  C   UNK A   0      -0.028  10.599  22.251  0.00  0.00    +0.000 C 
ATOM     36  C   UNK A   0      -0.069   9.561  23.326  0.00  0.00    +0.000 C 
ATOM     37  C   UNK A   0       0.462   9.218  21.958  0.00  0.00    +0.000 C 
ENDBRANCH  34  35
ENDBRANCH  15  34
TORSDOF 9
ENDMDL
MODEL 6
REMARK VINA RESULT:      -6.0      2.376      4.026
REMARK  Name = 
REMARK  10 active torsions:
REMARK  status: ('A' for Active; 'I' for Inactive)
REMARK    1  A    between atoms: CB_1  and  CA_2
REMARK    2  A    between atoms: CA_2  and  N_3
REMARK    3  A    between atoms: CA_2  and  C_31
REMARK    4  A    between atoms: C_4  and  C_6
REMARK    5  A    between atoms: C_6  and  C_7
REMARK    6  A    between atoms: C_9  and  O_10
REMARK    7  A    between atoms: C_16  and  O_17
REMARK    8  A    between atoms: N_23  and  C_24
REMARK    9  A    between atoms: C_24  and  C_25
REMARK   10  A    between atoms: C_31  and  OXT_33
REMARK                            x       y       z     vdW  Elec       q    Type
REMARK                         _______ _______ _______ _____ _____    ______ ____
ROOT
ATOM      1  C   UNK A   0      -0.323  14.249  21.932  0.00  0.00    +0.000 C 
ATOM      2  C   UNK A   0       0.801  15.095  22.301  0.00  0.00    +0.000 C 
ATOM      3  C   UNK A   0      -0.597  15.077  21.593  0.00  0.00    +0.000 C 
ATOM      4  C   UNK A   0      -1.727  13.387  22.345  0.00  0.00    +0.000 C 
ATOM      5  C   UNK A   0      -3.054  13.970  22.978  0.00  0.00    +0.000 C 
ATOM      6  C   UNK A   0      -3.779  15.125  22.302  0.00  0.00    +0.000 A 
ATOM      7  C   UNK A   0      -5.166  14.889  22.368  0.00  0.00    +0.000 A 
ATOM      8  C   UNK A   0      -5.933  15.171  21.266  0.00  0.00    +0.000 A 
ATOM      9  C   UNK A   0      -5.355  15.891  20.227  0.00  0.00    +0.000 A 
ATOM     10  C   UNK A   0      -4.067  16.478  20.323  0.00  0.00    +0.000 A 
ATOM     11  C   UNK A   0      -3.199  16.091  21.384  0.00  0.00    +0.000 A 
ATOM     12  C   UNK A   0      -1.472  16.252  21.136  0.00  0.00    +0.000 C 
ATOM     13  C   UNK A   0      -0.686  15.379  19.554  0.00  0.00    +0.000 C 
ATOM     14  C   UNK A   0      -0.073  13.454  19.772  0.00  0.00    +0.000 C 
ATOM     15  N   UNK A   0      -0.978  12.382  21.007  0.00  0.00    +0.000 NA
ATOM     16  C   UNK A   0      -1.211  16.689  22.744  0.00  0.00    +0.000 C 
ATOM     17  C   UNK A   0      -0.897  15.273  23.495  0.00  0.00    +0.000 C 
ATOM     18  O   UNK A   0      -0.745  14.985  24.668  0.00  0.00    +0.000 OA
ENDROOT
BRANCH   3  19
ATOM     19  O   UNK A   0       0.867  15.698  20.807  0.00  0.00    +0.000 OA
ATOM     20  H   UNK A   0       1.519  16.112  21.410  0.00  0.00    +0.000 HD
ENDBRANCH   3  19
BRANCH   9  21
ATOM     21  O   UNK A   0      -5.999  15.883  19.016  0.00  0.00    +0.000 OA
ATOM     22  H   UNK A   0      -5.396  16.302  18.370  0.00  0.00    +0.000 HD
ENDBRANCH   9  21
BRANCH   1  23
ATOM     23  C   UNK A   0      -2.000  13.984  20.537  0.00  0.00    +0.000 C 
BRANCH  23  25
ATOM     24  N   ALA A   1      -2.576  12.227  18.565  0.00  0.00    +0.000 N 
ATOM     25  C   UNK A   0      -2.955  12.685  19.868  0.00  0.00    +0.000 C 
ATOM     26  O   UNK A   0      -3.990  12.266  20.378  0.00  0.00    +0.000 OA
ATOM     27  H   ALA A   1      -1.604  12.314  18.287  0.00  0.00    +0.000 HD
BRANCH  24  29
ATOM     28  CB  ALA A   1      -4.550  11.771  17.088  0.00  0.00    +0.000 C 
ATOM     29  CA  ALA A   1      -3.365  11.190  17.856  0.00  0.00    +0.000 C 
BRANCH  29  30
ATOM     30  C   ALA A   1      -2.638  10.271  16.842  0.00  0.00    +0.000 C 
ATOM     31  O   ALA A   1      -1.595   9.669  17.055  0.00  0.00    +0.000 OA
BRANCH  30  32
ATOM     32  OXT ALA A   1      -3.233  10.254  15.618  0.00  0.00    +0.000 OA
ATOM     33  HXT ALA A   1      -3.555  11.123  15.308  0.00  0.00    +0.000 HD
ENDBRANCH  30  32
ENDBRANCH  29  30
ENDBRANCH  24  29
ENDBRANCH  23  25
ENDBRANCH   1  23
BRANCH  15  34
ATOM     34  C   UNK A   0      -1.097  11.004  21.340  0.00  0.00    +0.000 C 
BRANCH  34  35
ATOM     35  C   UNK A   0       0.087  10.393  21.965  0.00  0.00    +0.000 C 
ATOM     36  C   UNK A   0      -0.033   9.547  23.192  0.00  0.00    +0.000 C 
ATOM     37  C   UNK A   0       0.232   8.910  21.852  0.00  0.00    +0.000 C 
ENDBRANCH  34  35
ENDBRANCH  15  34
TORSDOF 9
ENDMDL
MODEL 7
REMARK VINA RESULT:      -5.9      1.183      1.407
REMARK  Name = 
REMARK  10 active torsions:
REMARK  status: ('A' for Active; 'I' for Inactive)
REMARK    1  A    between atoms: CB_1  and  CA_2
REMARK    2  A    between atoms: CA_2  and  N_3
REMARK    3  A    between atoms: CA_2  and  C_31
REMARK    4  A    between atoms: C_4  and  C_6
REMARK    5  A    between atoms: C_6  and  C_7
REMARK    6  A    between atoms: C_9  and  O_10
REMARK    7  A    between atoms: C_16  and  O_17
REMARK    8  A    between atoms: N_23  and  C_24
REMARK    9  A    between atoms: C_24  and  C_25
REMARK   10  A    between atoms: C_31  and  OXT_33
REMARK                            x       y       z     vdW  Elec       q    Type
REMARK                         _______ _______ _______ _____ _____    ______ ____
ROOT
ATOM      1  C   UNK A   0       0.968  13.151  20.663  0.00  0.00    +0.000 C 
ATOM      2  C   UNK A   0       2.305  12.967  20.122  0.00  0.00    +0.000 C 
ATOM      3  C   UNK A   0       0.984  13.800  19.989  0.00  0.00    +0.000 C 
ATOM      4  C   UNK A   0      -0.075  13.715  21.879  0.00  0.00    +0.000 C 
ATOM      5  C   UNK A   0      -0.242  15.207  22.377  0.00  0.00    +0.000 C 
ATOM      6  C   UNK A   0      -0.558  16.314  21.379  0.00  0.00    +0.000 A 
ATOM      7  C   UNK A   0      -1.504  17.185  21.957  0.00  0.00    +0.000 A 
ATOM      8  C   UNK A   0      -2.526  17.657  21.173  0.00  0.00    +0.000 A 
ATOM      9  C   UNK A   0      -2.453  17.449  19.800  0.00  0.00    +0.000 A 
ATOM     10  C   UNK A   0      -1.304  16.915  19.163  0.00  0.00    +0.000 A 
ATOM     11  C   UNK A   0      -0.294  16.292  19.951  0.00  0.00    +0.000 A 
ATOM     12  C   UNK A   0       0.717  15.081  19.188  0.00  0.00    +0.000 C 
ATOM     13  C   UNK A   0      -0.177  13.567  18.299  0.00  0.00    +0.000 C 
ATOM     14  C   UNK A   0      -0.580  11.935  19.442  0.00  0.00    +0.000 C 
ATOM     15  N   UNK A   0      -0.905  12.201  21.263  0.00  0.00    +0.000 NA
ATOM     16  C   UNK A   0       2.076  15.562  20.064  0.00  0.00    +0.000 C 
ATOM     17  C   UNK A   0       2.055  14.604  21.387  0.00  0.00    +0.000 C 
ATOM     18  O   UNK A   0       2.731  14.592  22.399  0.00  0.00    +0.000 OA
ENDROOT
BRANCH   3  19
ATOM     19  O   UNK A   0       1.719  12.947  18.619  0.00  0.00    +0.000 OA
ATOM     20  H   UNK A   0       1.464  12.004  18.531  0.00  0.00    +0.000 HD
ENDBRANCH   3  19
BRANCH   9  21
ATOM     21  O   UNK A   0      -3.605  17.619  19.073  0.00  0.00    +0.000 OA
ATOM     22  H   UNK A   0      -4.189  18.202  19.597  0.00  0.00    +0.000 HD
ENDBRANCH   9  21
BRANCH   1  23
ATOM     23  C   UNK A   0      -1.068  13.861  20.237  0.00  0.00    +0.000 C 
BRANCH  23  25
ATOM     24  N   ALA A   1      -3.561  12.906  19.809  0.00  0.00    +0.000 N 
ATOM     25  C   UNK A   0      -2.704  13.543  20.762  0.00  0.00    +0.000 C 
ATOM     26  O   UNK A   0      -3.176  13.962  21.814  0.00  0.00    +0.000 OA
ATOM     27  H   ALA A   1      -3.141  12.296  19.114  0.00  0.00    +0.000 HD
BRANCH  24  29
ATOM     28  CB  ALA A   1      -5.835  13.937  20.035  0.00  0.00    +0.000 C 
ATOM     29  CA  ALA A   1      -4.994  12.665  20.106  0.00  0.00    +0.000 C 
BRANCH  29  30
ATOM     30  C   ALA A   1      -5.762  11.624  19.252  0.00  0.00    +0.000 C 
ATOM     31  O   ALA A   1      -5.250  10.825  18.481  0.00  0.00    +0.000 OA
BRANCH  30  32
ATOM     32  OXT ALA A   1      -7.114  11.732  19.372  0.00  0.00    +0.000 OA
ATOM     33  HXT ALA A   1      -7.526  12.384  18.772  0.00  0.00    +0.000 HD
ENDBRANCH  30  32
ENDBRANCH  29  30
ENDBRANCH  24  29
ENDBRANCH  23  25
ENDBRANCH   1  23
BRANCH  15  34
ATOM     34  C   UNK A   0      -1.437  11.481  22.370  0.00  0.00    +0.000 C 
BRANCH  34  35
ATOM     35  C   UNK A   0      -0.569  10.428  22.922  0.00  0.00    +0.000 C 
ATOM     36  C   UNK A   0      -0.565   9.048  22.348  0.00  0.00    +0.000 C 
ATOM     37  C   UNK A   0       0.586   9.984  22.085  0.00  0.00    +0.000 C 
ENDBRANCH  34  35
ENDBRANCH  15  34
TORSDOF 9
ENDMDL
MODEL 8
REMARK VINA RESULT:      -5.9      2.492      4.414
REMARK  Name = 
REMARK  10 active torsions:
REMARK  status: ('A' for Active; 'I' for Inactive)
REMARK    1  A    between atoms: CB_1  and  CA_2
REMARK    2  A    between atoms: CA_2  and  N_3
REMARK    3  A    between atoms: CA_2  and  C_31
REMARK    4  A    between atoms: C_4  and  C_6
REMARK    5  A    between atoms: C_6  and  C_7
REMARK    6  A    between atoms: C_9  and  O_10
REMARK    7  A    between atoms: C_16  and  O_17
REMARK    8  A    between atoms: N_23  and  C_24
REMARK    9  A    between atoms: C_24  and  C_25
REMARK   10  A    between atoms: C_31  and  OXT_33
REMARK                            x       y       z     vdW  Elec       q    Type
REMARK                         _______ _______ _______ _____ _____    ______ ____
ROOT
ATOM      1  C   UNK A   0      -0.507  14.730  22.359  0.00  0.00    +0.000 C 
ATOM      2  C   UNK A   0       0.493  15.733  22.684  0.00  0.00    +0.000 C 
ATOM      3  C   UNK A   0      -0.951  15.516  22.114  0.00  0.00    +0.000 C 
ATOM      4  C   UNK A   0      -1.694  13.611  22.834  0.00  0.00    +0.000 C 
ATOM      5  C   UNK A   0      -3.024  13.913  23.636  0.00  0.00    +0.000 C 
ATOM      6  C   UNK A   0      -4.000  14.965  23.126  0.00  0.00    +0.000 A 
ATOM      7  C   UNK A   0      -5.314  14.486  23.306  0.00  0.00    +0.000 A 
ATOM      8  C   UNK A   0      -6.231  14.699  22.309  0.00  0.00    +0.000 A 
ATOM      9  C   UNK A   0      -5.897  15.572  21.280  0.00  0.00    +0.000 A 
ATOM     10  C   UNK A   0      -4.722  16.367  21.299  0.00  0.00    +0.000 A 
ATOM     11  C   UNK A   0      -3.693  16.073  22.237  0.00  0.00    +0.000 A 
ATOM     12  C   UNK A   0      -2.054  16.547  21.839  0.00  0.00    +0.000 C 
ATOM     13  C   UNK A   0      -1.309  15.925  20.124  0.00  0.00    +0.000 C 
ATOM     14  C   UNK A   0      -0.363  14.126  20.128  0.00  0.00    +0.000 C 
ATOM     15  N   UNK A   0      -0.937  12.838  21.354  0.00  0.00    +0.000 NA
ATOM     16  C   UNK A   0      -1.697  16.922  23.444  0.00  0.00    +0.000 C 
ATOM     17  C   UNK A   0      -1.071  15.538  24.046  0.00  0.00    +0.000 C 
ATOM     18  O   UNK A   0      -0.748  15.208  25.173  0.00  0.00    +0.000 OA
ENDROOT
BRANCH   3  19
ATOM     19  O   UNK A   0       0.295  16.431  21.244  0.00  0.00    +0.000 OA
ATOM     20  H   UNK A   0       0.936  16.906  21.813  0.00  0.00    +0.000 HD
ENDBRANCH   3  19
BRANCH   9  21
ATOM     21  O   UNK A   0      -6.658  15.527  20.139  0.00  0.00    +0.000 OA
ATOM     22  H   UNK A   0      -7.592  15.595  20.418  0.00  0.00    +0.000 HD
ENDBRANCH   9  21
BRANCH   1  23
ATOM     23  C   UNK A   0      -2.257  14.264  21.114  0.00  0.00    +0.000 C 
BRANCH  23  25
ATOM     24  N   ALA A   1      -2.658  12.578  19.039  0.00  0.00    +0.000 N 
ATOM     25  C   UNK A   0      -3.019  12.867  20.394  0.00  0.00    +0.000 C 
ATOM     26  O   UNK A   0      -3.929  12.237  20.924  0.00  0.00    +0.000 OA
ATOM     27  H   ALA A   1      -1.737  12.855  18.715  0.00  0.00    +0.000 HD
BRANCH  24  29
ATOM     28  CB  ALA A   1      -4.642  11.876  17.675  0.00  0.00    +0.000 C 
ATOM     29  CA  ALA A   1      -3.305  11.471  18.292  0.00  0.00    +0.000 C 
BRANCH  29  30
ATOM     30  C   ALA A   1      -2.517  10.795  17.141  0.00  0.00    +0.000 C 
ATOM     31  O   ALA A   1      -2.036   9.671  17.178  0.00  0.00    +0.000 OA
BRANCH  30  32
ATOM     32  OXT ALA A   1      -2.323  11.618  16.074  0.00  0.00    +0.000 OA
ATOM     33  HXT ALA A   1      -3.077  12.206  15.869  0.00  0.00    +0.000 HD
ENDBRANCH  30  32
ENDBRANCH  29  30
ENDBRANCH  24  29
ENDBRANCH  23  25
ENDBRANCH   1  23
BRANCH  15  34
ATOM     34  C   UNK A   0      -0.788  11.442  21.586  0.00  0.00    +0.000 C 
BRANCH  34  35
ATOM     35  C   UNK A   0       0.435  10.831  21.039  0.00  0.00    +0.000 C 
ATOM     36  C   UNK A   0       0.469   9.392  20.639  0.00  0.00    +0.000 C 
ATOM     37  C   UNK A   0       0.430  10.471  19.589  0.00  0.00    +0.000 C 
ENDBRANCH  34  35
ENDBRANCH  15  34
TORSDOF 9
ENDMDL
MODEL 9
REMARK VINA RESULT:      -5.9      2.603      5.440
REMARK  Name = 
REMARK  10 active torsions:
REMARK  status: ('A' for Active; 'I' for Inactive)
REMARK    1  A    between atoms: CB_1  and  CA_2
REMARK    2  A    between atoms: CA_2  and  N_3
REMARK    3  A    between atoms: CA_2  and  C_31
REMARK    4  A    between atoms: C_4  and  C_6
REMARK    5  A    between atoms: C_6  and  C_7
REMARK    6  A    between atoms: C_9  and  O_10
REMARK    7  A    between atoms: C_16  and  O_17
REMARK    8  A    between atoms: N_23  and  C_24
REMARK    9  A    between atoms: C_24  and  C_25
REMARK   10  A    between atoms: C_31  and  OXT_33
REMARK                            x       y       z     vdW  Elec       q    Type
REMARK                         _______ _______ _______ _____ _____    ______ ____
ROOT
ATOM      1  C   UNK A   0      -2.097  14.753  23.078  0.00  0.00    +0.000 C 
ATOM      2  C   UNK A   0      -1.455  15.871  23.749  0.00  0.00    +0.000 C 
ATOM      3  C   UNK A   0      -2.705  15.443  22.906  0.00  0.00    +0.000 C 
ATOM      4  C   UNK A   0      -2.982  13.304  23.128  0.00  0.00    +0.000 C 
ATOM      5  C   UNK A   0      -4.431  13.091  23.727  0.00  0.00    +0.000 C 
ATOM      6  C   UNK A   0      -5.588  13.961  23.254  0.00  0.00    +0.000 A 
ATOM      7  C   UNK A   0      -6.733  13.152  23.112  0.00  0.00    +0.000 A 
ATOM      8  C   UNK A   0      -7.546  13.350  22.026  0.00  0.00    +0.000 A 
ATOM      9  C   UNK A   0      -7.340  14.483  21.246  0.00  0.00    +0.000 A 
ATOM     10  C   UNK A   0      -6.438  15.514  21.613  0.00  0.00    +0.000 A 
ATOM     11  C   UNK A   0      -5.489  15.278  22.648  0.00  0.00    +0.000 A 
ATOM     12  C   UNK A   0      -4.005  16.210  22.634  0.00  0.00    +0.000 C 
ATOM     13  C   UNK A   0      -2.918  16.181  20.991  0.00  0.00    +0.000 C 
ATOM     14  C   UNK A   0      -1.525  14.709  20.834  0.00  0.00    +0.000 C 
ATOM     15  N   UNK A   0      -1.870  13.083  21.688  0.00  0.00    +0.000 NA
ATOM     16  C   UNK A   0      -3.961  16.297  24.318  0.00  0.00    +0.000 C 
ATOM     17  C   UNK A   0      -3.059  15.008  24.759  0.00  0.00    +0.000 C 
ATOM     18  O   UNK A   0      -2.797  14.527  25.846  0.00  0.00    +0.000 OA
ENDROOT
BRANCH   3  19
ATOM     19  O   UNK A   0      -1.659  16.800  22.446  0.00  0.00    +0.000 OA
ATOM     20  H   UNK A   0      -0.984  16.593  21.766  0.00  0.00    +0.000 HD
ENDBRANCH   3  19
BRANCH   9  21
ATOM     21  O   UNK A   0      -7.916  14.508  20.002  0.00  0.00    +0.000 OA
ATOM     22  H   UNK A   0      -7.301  14.051  19.394  0.00  0.00    +0.000 HD
ENDBRANCH   9  21
BRANCH   1  23
ATOM     23  C   UNK A   0      -3.489  14.164  21.483  0.00  0.00    +0.000 C 
BRANCH  23  25
ATOM     24  N   ALA A   1      -3.333  12.733  19.195  0.00  0.00    +0.000 N 
ATOM     25  C   UNK A   0      -3.863  12.753  20.524  0.00  0.00    +0.000 C 
ATOM     26  O   UNK A   0      -4.656  11.882  20.872  0.00  0.00    +0.000 OA
ATOM     27  H   ALA A   1      -2.470  13.235  19.012  0.00  0.00    +0.000 HD
BRANCH  24  29
ATOM     28  CB  ALA A   1      -4.950  11.871  17.484  0.00  0.00    +0.000 C 
ATOM     29  CA  ALA A   1      -3.655  11.631  18.256  0.00  0.00    +0.000 C 
BRANCH  29  30
ATOM     30  C   ALA A   1      -2.609  11.245  17.179  0.00  0.00    +0.000 C 
ATOM     31  O   ALA A   1      -2.593  10.195  16.553  0.00  0.00    +0.000 OA
BRANCH  30  32
ATOM     32  OXT ALA A   1      -1.622  12.172  17.041  0.00  0.00    +0.000 OA
ATOM     33  HXT ALA A   1      -1.007  12.230  17.799  0.00  0.00    +0.000 HD
ENDBRANCH  30  32
ENDBRANCH  29  30
ENDBRANCH  24  29
ENDBRANCH  23  25
ENDBRANCH   1  23
BRANCH  15  34
ATOM     34  C   UNK A   0      -1.375  11.749  21.685  0.00  0.00    +0.000 C 
BRANCH  34  35
ATOM     35  C   UNK A   0      -0.379  11.439  20.646  0.00  0.00    +0.000 C 
ATOM     36  C   UNK A   0       1.057  11.819  20.811  0.00  0.00    +0.000 C 
ATOM     37  C   UNK A   0       0.630  10.382  20.959  0.00  0.00    +0.000 C 
ENDBRANCH  34  35
ENDBRANCH  15  34
TORSDOF 9
ENDMDL
