MODEL 1
REMARK VINA RESULT:      -8.2      0.000      0.000
REMARK  Name = 
REMARK  11 active torsions:
REMARK  status: ('A' for Active; 'I' for Inactive)
REMARK    1  A    between atoms: C_1  and  C_2
REMARK    2  A    between atoms: C_2  and  O_3
REMARK    3  A    between atoms: O_3  and  C_4
REMARK    4  A    between atoms: C_4  and  C_6
REMARK    5  A    between atoms: C_6  and  C_7
REMARK    6  A    between atoms: C_8  and  C_9
REMARK    7  A    between atoms: C_9  and  O_11
REMARK    8  A    between atoms: O_11  and  C_12
REMARK    9  A    between atoms: C_12  and  C_13
REMARK   10  A    between atoms: C_14  and  N_15
REMARK   11  A    between atoms: C_18  and  C_19
REMARK                            x       y       z     vdW  Elec       q    Type
REMARK                         _______ _______ _______ _____ _____    ______ ____
ROOT
ATOM      1  C   UNL     1       5.751   4.275  17.155  0.00  0.00    +0.000 C 
ATOM      2  C   UNL     1       5.782   5.249  16.006  0.00  0.00    +0.000 C 
ATOM      3  C   UNL     1       5.041   6.372  16.014  0.00  0.00    +0.000 C 
ATOM      4  O   UNL     1       4.254   6.720  17.101  0.00  0.00    +0.000 OA
ATOM      5  C   UNL     1       3.990   5.818  18.109  0.00  0.00    +0.000 A 
ATOM      6  C   UNL     1       3.029   6.180  19.090  0.00  0.00    +0.000 A 
ATOM      7  C   UNL     1       2.811   5.260  20.138  0.00  0.00    +0.000 A 
ATOM      8  C   UNL     1       3.497   4.043  20.208  0.00  0.00    +0.000 A 
ATOM      9  C   UNL     1       4.413   3.709  19.224  0.00  0.00    +0.000 A 
ATOM     10  C   UNL     1       4.681   4.600  18.175  0.00  0.00    +0.000 A 
ENDROOT
BRANCH   6  11
ATOM     11  C   UNL     1       2.280   7.470  19.064  0.00  0.00    +0.000 A 
ATOM     12  C   UNL     1       1.721   8.031  20.227  0.00  0.00    +0.000 A 
ATOM     13  C   UNL     1       0.952   9.198  20.188  0.00  0.00    +0.000 A 
ATOM     14  C   UNL     1       0.768   9.870  18.986  0.00  0.00    +0.000 A 
ATOM     15  C   UNL     1       1.356   9.376  17.828  0.00  0.00    +0.000 A 
ATOM     16  C   UNL     1       2.091   8.186  17.866  0.00  0.00    +0.000 A 
ENDBRANCH   6  11
BRANCH   3  17
ATOM     17  N   UNL     1       4.986   7.312  15.007  0.00  0.00    +0.000 N 
ATOM     18  H   UNL     1       5.542   8.143  15.219  0.00  0.00    +0.000 HD
ATOM     19  H   UNL     1       4.022   7.542  14.777  0.00  0.00    +0.000 HD
ENDBRANCH   3  17
BRANCH   2  20
ATOM     20  C   UNL     1       6.711   4.863  14.909  0.00  0.00    +0.000 C 
ATOM     21  O   UNL     1       7.657   5.564  14.572  0.00  0.00    +0.000 OA
BRANCH  20  22
ATOM     22  O   UNL     1       6.241   3.789  14.225  0.00  0.00    +0.000 OA
BRANCH  22  23
ATOM     23  C   UNL     1       6.485   3.802  12.811  0.00  0.00    +0.000 C 
ATOM     24  C   UNL     1       5.243   3.268  12.123  0.00  0.00    +0.000 C 
ENDBRANCH  22  23
ENDBRANCH  20  22
ENDBRANCH   2  20
BRANCH   1  25
ATOM     25  C   UNL     1       7.121   4.119  17.831  0.00  0.00    +0.000 C 
BRANCH  25  26
ATOM     26  C   UNL     1       7.509   5.305  18.673  0.00  0.00    +0.000 C 
ATOM     27  O   UNL     1       7.315   5.381  19.879  0.00  0.00    +0.000 OA
BRANCH  26  28
ATOM     28  O   UNL     1       7.999   6.296  17.885  0.00  0.00    +0.000 OA
BRANCH  28  30
ATOM     29  C   UNL     1       7.796   8.640  17.594  0.00  0.00    +0.000 C 
ATOM     30  C   UNL     1       8.234   7.542  18.547  0.00  0.00    +0.000 C 
ENDBRANCH  28  30
ENDBRANCH  26  28
ENDBRANCH  25  26
ENDBRANCH   1  25
TORSDOF 9
ENDMDL
MODEL 2
REMARK VINA RESULT:      -6.9      0.904      1.134
REMARK  Name = 
REMARK  11 active torsions:
REMARK  status: ('A' for Active; 'I' for Inactive)
REMARK    1  A    between atoms: C_1  and  C_2
REMARK    2  A    between atoms: C_2  and  O_3
REMARK    3  A    between atoms: O_3  and  C_4
REMARK    4  A    between atoms: C_4  and  C_6
REMARK    5  A    between atoms: C_6  and  C_7
REMARK    6  A    between atoms: C_8  and  C_9
REMARK    7  A    between atoms: C_9  and  O_11
REMARK    8  A    between atoms: O_11  and  C_12
REMARK    9  A    between atoms: C_12  and  C_13
REMARK   10  A    between atoms: C_14  and  N_15
REMARK   11  A    between atoms: C_18  and  C_19
REMARK                            x       y       z     vdW  Elec       q    Type
REMARK                         _______ _______ _______ _____ _____    ______ ____
ROOT
ATOM      1  C   UNL     1       4.910   3.960  16.565  0.00  0.00    +0.000 C 
ATOM      2  C   UNL     1       5.333   5.128  15.711  0.00  0.00    +0.000 C 
ATOM      3  C   UNL     1       4.892   6.375  15.953  0.00  0.00    +0.000 C 
ATOM      4  O   UNL     1       4.069   6.662  17.032  0.00  0.00    +0.000 OA
ATOM      5  C   UNL     1       3.459   5.658  17.752  0.00  0.00    +0.000 A 
ATOM      6  C   UNL     1       2.488   6.029  18.720  0.00  0.00    +0.000 A 
ATOM      7  C   UNL     1       1.913   4.986  19.477  0.00  0.00    +0.000 A 
ATOM      8  C   UNL     1       2.269   3.648  19.282  0.00  0.00    +0.000 A 
ATOM      9  C   UNL     1       3.203   3.315  18.316  0.00  0.00    +0.000 A 
ATOM     10  C   UNL     1       3.820   4.318  17.553  0.00  0.00    +0.000 A 
ENDROOT
BRANCH   6  11
ATOM     11  C   UNL     1       2.084   7.443  18.972  0.00  0.00    +0.000 A 
ATOM     12  C   UNL     1       1.708   7.894  20.250  0.00  0.00    +0.000 A 
ATOM     13  C   UNL     1       1.253   9.199  20.468  0.00  0.00    +0.000 A 
ATOM     14  C   UNL     1       1.215  10.108  19.418  0.00  0.00    +0.000 A 
ATOM     15  C   UNL     1       1.636   9.711  18.154  0.00  0.00    +0.000 A 
ATOM     16  C   UNL     1       2.053   8.394  17.933  0.00  0.00    +0.000 A 
ENDBRANCH   6  11
BRANCH   3  17
ATOM     17  N   UNL     1       5.203   7.500  15.221  0.00  0.00    +0.000 N 
ATOM     18  H   UNL     1       4.488   8.226  15.299  0.00  0.00    +0.000 HD
ATOM     19  H   UNL     1       5.406   7.261  14.253  0.00  0.00    +0.000 HD
ENDBRANCH   3  17
BRANCH   2  20
ATOM     20  C   UNL     1       6.283   4.769  14.623  0.00  0.00    +0.000 C 
ATOM     21  O   UNL     1       7.350   5.349  14.465  0.00  0.00    +0.000 OA
BRANCH  20  22
ATOM     22  O   UNL     1       5.717   3.903  13.744  0.00  0.00    +0.000 OA
BRANCH  22  23
ATOM     23  C   UNL     1       6.468   3.659  12.546  0.00  0.00    +0.000 C 
ATOM     24  C   UNL     1       5.740   2.591  11.752  0.00  0.00    +0.000 C 
ENDBRANCH  22  23
ENDBRANCH  20  22
ENDBRANCH   2  20
BRANCH   1  25
ATOM     25  C   UNL     1       6.095   3.292  17.277  0.00  0.00    +0.000 C 
BRANCH  25  26
ATOM     26  C   UNL     1       7.166   4.265  17.694  0.00  0.00    +0.000 C 
ATOM     27  O   UNL     1       8.291   4.291  17.212  0.00  0.00    +0.000 OA
BRANCH  26  28
ATOM     28  O   UNL     1       6.733   5.019  18.737  0.00  0.00    +0.000 OA
BRANCH  28  30
ATOM     29  C   UNL     1       7.673   7.086  18.059  0.00  0.00    +0.000 C 
ATOM     30  C   UNL     1       7.633   6.045  19.164  0.00  0.00    +0.000 C 
ENDBRANCH  28  30
ENDBRANCH  26  28
ENDBRANCH  25  26
ENDBRANCH   1  25
TORSDOF 9
ENDMDL
MODEL 3
REMARK VINA RESULT:      -6.8      0.836      1.099
REMARK  Name = 
REMARK  11 active torsions:
REMARK  status: ('A' for Active; 'I' for Inactive)
REMARK    1  A    between atoms: C_1  and  C_2
REMARK    2  A    between atoms: C_2  and  O_3
REMARK    3  A    between atoms: O_3  and  C_4
REMARK    4  A    between atoms: C_4  and  C_6
REMARK    5  A    between atoms: C_6  and  C_7
REMARK    6  A    between atoms: C_8  and  C_9
REMARK    7  A    between atoms: C_9  and  O_11
REMARK    8  A    between atoms: O_11  and  C_12
REMARK    9  A    between atoms: C_12  and  C_13
REMARK   10  A    between atoms: C_14  and  N_15
REMARK   11  A    between atoms: C_18  and  C_19
REMARK                            x       y       z     vdW  Elec       q    Type
REMARK                         _______ _______ _______ _____ _____    ______ ____
ROOT
ATOM      1  C   UNL     1       5.372   4.242  17.161  0.00  0.00    +0.000 C 
ATOM      2  C   UNL     1       5.497   5.194  15.999  0.00  0.00    +0.000 C 
ATOM      3  C   UNL     1       4.865   6.381  15.990  0.00  0.00    +0.000 C 
ATOM      4  O   UNL     1       4.111   6.816  17.070  0.00  0.00    +0.000 OA
ATOM      5  C   UNL     1       3.761   5.957  18.088  0.00  0.00    +0.000 A 
ATOM      6  C   UNL     1       2.836   6.420  19.061  0.00  0.00    +0.000 A 
ATOM      7  C   UNL     1       2.531   5.539  20.120  0.00  0.00    +0.000 A 
ATOM      8  C   UNL     1       3.099   4.264  20.209  0.00  0.00    +0.000 A 
ATOM      9  C   UNL     1       3.981   3.832  19.233  0.00  0.00    +0.000 A 
ATOM     10  C   UNL     1       4.335   4.680  18.173  0.00  0.00    +0.000 A 
ENDROOT
BRANCH   6  11
ATOM     11  C   UNL     1       2.212   7.774  19.016  0.00  0.00    +0.000 A 
ATOM     12  C   UNL     1       1.582   8.343  20.138  0.00  0.00    +0.000 A 
ATOM     13  C   UNL     1       0.929   9.578  20.071  0.00  0.00    +0.000 A 
ATOM     14  C   UNL     1       0.936  10.306  18.889  0.00  0.00    +0.000 A 
ATOM     15  C   UNL     1       1.599   9.801  17.777  0.00  0.00    +0.000 A 
ATOM     16  C   UNL     1       2.218   8.547  17.838  0.00  0.00    +0.000 A 
ENDBRANCH   6  11
BRANCH   3  17
ATOM     17  N   UNL     1       4.900   7.309  14.971  0.00  0.00    +0.000 N 
ATOM     18  H   UNL     1       5.087   6.881  14.062  0.00  0.00    +0.000 HD
ATOM     19  H   UNL     1       5.552   8.060  15.185  0.00  0.00    +0.000 HD
ENDBRANCH   3  17
BRANCH   2  20
ATOM     20  C   UNL     1       6.388   4.708  14.911  0.00  0.00    +0.000 C 
ATOM     21  O   UNL     1       6.358   3.553  14.503  0.00  0.00    +0.000 OA
BRANCH  20  22
ATOM     22  O   UNL     1       7.343   5.625  14.614  0.00  0.00    +0.000 OA
BRANCH  22  23
ATOM     23  C   UNL     1       8.300   5.223  13.623  0.00  0.00    +0.000 C 
ATOM     24  C   UNL     1       7.952   5.933  12.328  0.00  0.00    +0.000 C 
ENDBRANCH  22  23
ENDBRANCH  20  22
ENDBRANCH   2  20
BRANCH   1  25
ATOM     25  C   UNL     1       6.719   3.967  17.844  0.00  0.00    +0.000 C 
BRANCH  25  26
ATOM     26  C   UNL     1       7.222   5.128  18.661  0.00  0.00    +0.000 C 
ATOM     27  O   UNL     1       7.103   5.211  19.877  0.00  0.00    +0.000 OA
BRANCH  26  28
ATOM     28  O   UNL     1       7.720   6.093  17.845  0.00  0.00    +0.000 OA
BRANCH  28  30
ATOM     29  C   UNL     1       7.774   8.445  17.565  0.00  0.00    +0.000 C 
ATOM     30  C   UNL     1       8.118   7.300  18.500  0.00  0.00    +0.000 C 
ENDBRANCH  28  30
ENDBRANCH  26  28
ENDBRANCH  25  26
ENDBRANCH   1  25
TORSDOF 9
ENDMDL
MODEL 4
REMARK VINA RESULT:      -6.6      1.686      2.907
REMARK  Name = 
REMARK  11 active torsions:
REMARK  status: ('A' for Active; 'I' for Inactive)
REMARK    1  A    between atoms: C_1  and  C_2
REMARK    2  A    between atoms: C_2  and  O_3
REMARK    3  A    between atoms: O_3  and  C_4
REMARK    4  A    between atoms: C_4  and  C_6
REMARK    5  A    between atoms: C_6  and  C_7
REMARK    6  A    between atoms: C_8  and  C_9
REMARK    7  A    between atoms: C_9  and  O_11
REMARK    8  A    between atoms: O_11  and  C_12
REMARK    9  A    between atoms: C_12  and  C_13
REMARK   10  A    between atoms: C_14  and  N_15
REMARK   11  A    between atoms: C_18  and  C_19
REMARK                            x       y       z     vdW  Elec       q    Type
REMARK                         _______ _______ _______ _____ _____    ______ ____
ROOT
ATOM      1  C   UNL     1       5.053   4.223  16.962  0.00  0.00    +0.000 C 
ATOM      2  C   UNL     1       6.063   5.334  16.833  0.00  0.00    +0.000 C 
ATOM      3  C   UNL     1       5.767   6.600  17.178  0.00  0.00    +0.000 C 
ATOM      4  O   UNL     1       4.537   6.940  17.721  0.00  0.00    +0.000 OA
ATOM      5  C   UNL     1       3.477   6.060  17.696  0.00  0.00    +0.000 A 
ATOM      6  C   UNL     1       2.203   6.541  18.098  0.00  0.00    +0.000 A 
ATOM      7  C   UNL     1       1.144   5.608  18.109  0.00  0.00    +0.000 A 
ATOM      8  C   UNL     1       1.330   4.275  17.732  0.00  0.00    +0.000 A 
ATOM      9  C   UNL     1       2.580   3.840  17.323  0.00  0.00    +0.000 A 
ATOM     10  C   UNL     1       3.669   4.723  17.318  0.00  0.00    +0.000 A 
ENDROOT
BRANCH   6  11
ATOM     11  C   UNL     1       1.958   7.951  18.519  0.00  0.00    +0.000 A 
ATOM     12  C   UNL     1       1.555   8.280  19.826  0.00  0.00    +0.000 A 
ATOM     13  C   UNL     1       1.249   9.594  20.196  0.00  0.00    +0.000 A 
ATOM     14  C   UNL     1       1.392  10.627  19.279  0.00  0.00    +0.000 A 
ATOM     15  C   UNL     1       1.845  10.345  17.995  0.00  0.00    +0.000 A 
ATOM     16  C   UNL     1       2.113   9.024  17.619  0.00  0.00    +0.000 A 
ENDBRANCH   6  11
BRANCH   3  17
ATOM     17  N   UNL     1       6.612   7.684  17.078  0.00  0.00    +0.000 N 
ATOM     18  H   UNL     1       6.823   8.098  17.989  0.00  0.00    +0.000 HD
ATOM     19  H   UNL     1       6.250   8.368  16.418  0.00  0.00    +0.000 HD
ENDBRANCH   3  17
BRANCH   2  20
ATOM     20  C   UNL     1       7.390   4.889  16.326  0.00  0.00    +0.000 C 
ATOM     21  O   UNL     1       8.178   4.255  17.016  0.00  0.00    +0.000 OA
BRANCH  20  22
ATOM     22  O   UNL     1       7.672   5.460  15.127  0.00  0.00    +0.000 OA
BRANCH  22  23
ATOM     23  C   UNL     1       7.041   4.852  13.990  0.00  0.00    +0.000 C 
ATOM     24  C   UNL     1       7.847   5.225  12.760  0.00  0.00    +0.000 C 
ENDBRANCH  22  23
ENDBRANCH  20  22
ENDBRANCH   2  20
BRANCH   1  25
ATOM     25  C   UNL     1       5.505   3.128  17.939  0.00  0.00    +0.000 C 
BRANCH  25  26
ATOM     26  C   UNL     1       5.424   3.545  19.383  0.00  0.00    +0.000 C 
ATOM     27  O   UNL     1       5.806   4.629  19.805  0.00  0.00    +0.000 OA
BRANCH  26  28
ATOM     28  O   UNL     1       4.971   2.514  20.143  0.00  0.00    +0.000 OA
BRANCH  28  30
ATOM     29  C   UNL     1       2.818   3.035  20.986  0.00  0.00    +0.000 C 
ATOM     30  C   UNL     1       3.586   2.199  19.978  0.00  0.00    +0.000 C 
ENDBRANCH  28  30
ENDBRANCH  26  28
ENDBRANCH  25  26
ENDBRANCH   1  25
TORSDOF 9
ENDMDL
MODEL 5
REMARK VINA RESULT:      -6.5      5.746      9.497
REMARK  Name = 
REMARK  11 active torsions:
REMARK  status: ('A' for Active; 'I' for Inactive)
REMARK    1  A    between atoms: C_1  and  C_2
REMARK    2  A    between atoms: C_2  and  O_3
REMARK    3  A    between atoms: O_3  and  C_4
REMARK    4  A    between atoms: C_4  and  C_6
REMARK    5  A    between atoms: C_6  and  C_7
REMARK    6  A    between atoms: C_8  and  C_9
REMARK    7  A    between atoms: C_9  and  O_11
REMARK    8  A    between atoms: O_11  and  C_12
REMARK    9  A    between atoms: C_12  and  C_13
REMARK   10  A    between atoms: C_14  and  N_15
REMARK   11  A    between atoms: C_18  and  C_19
REMARK                            x       y       z     vdW  Elec       q    Type
REMARK                         _______ _______ _______ _____ _____    ______ ____
ROOT
ATOM      1  C   UNL     1      -0.332  11.081  18.647  0.00  0.00    +0.000 C 
ATOM      2  C   UNL     1      -0.405  12.188  19.668  0.00  0.00    +0.000 C 
ATOM      3  C   UNL     1      -1.571  12.778  19.985  0.00  0.00    +0.000 C 
ATOM      4  O   UNL     1      -2.774  12.364  19.432  0.00  0.00    +0.000 OA
ATOM      5  C   UNL     1      -2.806  11.512  18.350  0.00  0.00    +0.000 A 
ATOM      6  C   UNL     1      -4.059  11.281  17.722  0.00  0.00    +0.000 A 
ATOM      7  C   UNL     1      -4.073  10.368  16.646  0.00  0.00    +0.000 A 
ATOM      8  C   UNL     1      -2.912   9.725  16.206  0.00  0.00    +0.000 A 
ATOM      9  C   UNL     1      -1.701   9.988  16.824  0.00  0.00    +0.000 A 
ATOM     10  C   UNL     1      -1.639  10.870  17.913  0.00  0.00    +0.000 A 
ENDROOT
BRANCH   6  11
ATOM     11  C   UNL     1      -5.326  11.934  18.162  0.00  0.00    +0.000 A 
ATOM     12  C   UNL     1      -5.929  11.635  19.398  0.00  0.00    +0.000 A 
ATOM     13  C   UNL     1      -7.157  12.189  19.773  0.00  0.00    +0.000 A 
ATOM     14  C   UNL     1      -7.792  13.103  18.942  0.00  0.00    +0.000 A 
ATOM     15  C   UNL     1      -7.195  13.466  17.740  0.00  0.00    +0.000 A 
ATOM     16  C   UNL     1      -5.985  12.880  17.352  0.00  0.00    +0.000 A 
ENDBRANCH   6  11
BRANCH   3  17
ATOM     17  N   UNL     1      -1.739  13.807  20.887  0.00  0.00    +0.000 N 
ATOM     18  H   UNL     1      -2.064  13.477  21.798  0.00  0.00    +0.000 HD
ATOM     19  H   UNL     1      -2.337  14.534  20.503  0.00  0.00    +0.000 HD
ENDBRANCH   3  17
BRANCH   2  20
ATOM     20  C   UNL     1       0.905  12.527  20.288  0.00  0.00    +0.000 C 
ATOM     21  O   UNL     1       1.039  12.684  21.495  0.00  0.00    +0.000 OA
BRANCH  20  22
ATOM     22  O   UNL     1       1.826  12.844  19.343  0.00  0.00    +0.000 OA
BRANCH  22  23
ATOM     23  C   UNL     1       2.562  14.053  19.579  0.00  0.00    +0.000 C 
ATOM     24  C   UNL     1       2.001  15.123  18.661  0.00  0.00    +0.000 C 
ENDBRANCH  22  23
ENDBRANCH  20  22
ENDBRANCH   2  20
BRANCH   1  25
ATOM     25  C   UNL     1       0.178   9.762  19.245  0.00  0.00    +0.000 C 
BRANCH  25  26
ATOM     26  C   UNL     1       1.443   9.263  18.598  0.00  0.00    +0.000 C 
ATOM     27  O   UNL     1       1.900   9.709  17.554  0.00  0.00    +0.000 OA
BRANCH  26  28
ATOM     28  O   UNL     1       1.927   8.195  19.283  0.00  0.00    +0.000 OA
BRANCH  28  30
ATOM     29  C   UNL     1       2.559   5.912  19.210  0.00  0.00    +0.000 C 
ATOM     30  C   UNL     1       2.661   7.250  18.500  0.00  0.00    +0.000 C 
ENDBRANCH  28  30
ENDBRANCH  26  28
ENDBRANCH  25  26
ENDBRANCH   1  25
TORSDOF 9
ENDMDL
MODEL 6
REMARK VINA RESULT:      -6.5      5.663      9.523
REMARK  Name = 
REMARK  11 active torsions:
REMARK  status: ('A' for Active; 'I' for Inactive)
REMARK    1  A    between atoms: C_1  and  C_2
REMARK    2  A    between atoms: C_2  and  O_3
REMARK    3  A    between atoms: O_3  and  C_4
REMARK    4  A    between atoms: C_4  and  C_6
REMARK    5  A    between atoms: C_6  and  C_7
REMARK    6  A    between atoms: C_8  and  C_9
REMARK    7  A    between atoms: C_9  and  O_11
REMARK    8  A    between atoms: O_11  and  C_12
REMARK    9  A    between atoms: C_12  and  C_13
REMARK   10  A    between atoms: C_14  and  N_15
REMARK   11  A    between atoms: C_18  and  C_19
REMARK                            x       y       z     vdW  Elec       q    Type
REMARK                         _______ _______ _______ _____ _____    ______ ____
ROOT
ATOM      1  C   UNL     1      -0.474  10.913  18.631  0.00  0.00    +0.000 C 
ATOM      2  C   UNL     1      -0.601  11.853  19.802  0.00  0.00    +0.000 C 
ATOM      3  C   UNL     1      -1.779  12.413  20.132  0.00  0.00    +0.000 C 
ATOM      4  O   UNL     1      -2.947  12.114  19.447  0.00  0.00    +0.000 OA
ATOM      5  C   UNL     1      -2.918  11.437  18.247  0.00  0.00    +0.000 A 
ATOM      6  C   UNL     1      -4.130  11.331  17.514  0.00  0.00    +0.000 A 
ATOM      7  C   UNL     1      -4.084  10.593  16.312  0.00  0.00    +0.000 A 
ATOM      8  C   UNL     1      -2.905   9.999  15.854  0.00  0.00    +0.000 A 
ATOM      9  C   UNL     1      -1.734  10.138  16.579  0.00  0.00    +0.000 A 
ATOM     10  C   UNL     1      -1.733  10.844  17.792  0.00  0.00    +0.000 A 
ENDROOT
BRANCH   6  11
ATOM     11  C   UNL     1      -5.416  11.937  17.967  0.00  0.00    +0.000 A 
ATOM     12  C   UNL     1      -6.061  11.522  19.147  0.00  0.00    +0.000 A 
ATOM     13  C   UNL     1      -7.305  12.035  19.528  0.00  0.00    +0.000 A 
ATOM     14  C   UNL     1      -7.914  13.023  18.765  0.00  0.00    +0.000 A 
ATOM     15  C   UNL     1      -7.276  13.499  17.625  0.00  0.00    +0.000 A 
ATOM     16  C   UNL     1      -6.050  12.954  17.227  0.00  0.00    +0.000 A 
ENDBRANCH   6  11
BRANCH   3  17
ATOM     17  N   UNL     1      -1.993  13.297  21.168  0.00  0.00    +0.000 N 
ATOM     18  H   UNL     1      -2.969  13.594  21.231  0.00  0.00    +0.000 HD
ATOM     19  H   UNL     1      -1.353  14.085  21.112  0.00  0.00    +0.000 HD
ENDBRANCH   3  17
BRANCH   2  20
ATOM     20  C   UNL     1       0.669  12.066  20.548  0.00  0.00    +0.000 C 
ATOM     21  O   UNL     1       1.723  12.335  19.987  0.00  0.00    +0.000 OA
BRANCH  20  22
ATOM     22  O   UNL     1       0.536  11.710  21.851  0.00  0.00    +0.000 OA
BRANCH  22  23
ATOM     23  C   UNL     1       0.639  10.304  22.122  0.00  0.00    +0.000 C 
ATOM     24  C   UNL     1      -0.515   9.921  23.029  0.00  0.00    +0.000 C 
ENDBRANCH  22  23
ENDBRANCH  20  22
ENDBRANCH   2  20
BRANCH   1  25
ATOM     25  C   UNL     1      -0.021   9.508  19.051  0.00  0.00    +0.000 C 
BRANCH  25  26
ATOM     26  C   UNL     1       1.354   9.149  18.551  0.00  0.00    +0.000 C 
ATOM     27  O   UNL     1       1.888   9.674  17.583  0.00  0.00    +0.000 OA
BRANCH  26  28
ATOM     28  O   UNL     1       1.851   8.103  19.261  0.00  0.00    +0.000 OA
BRANCH  28  30
ATOM     29  C   UNL     1       2.994   6.033  19.417  0.00  0.00    +0.000 C 
ATOM     30  C   UNL     1       2.744   7.248  18.542  0.00  0.00    +0.000 C 
ENDBRANCH  28  30
ENDBRANCH  26  28
ENDBRANCH  25  26
ENDBRANCH   1  25
TORSDOF 9
ENDMDL
MODEL 7
REMARK VINA RESULT:      -6.4      1.290      1.820
REMARK  Name = 
REMARK  11 active torsions:
REMARK  status: ('A' for Active; 'I' for Inactive)
REMARK    1  A    between atoms: C_1  and  C_2
REMARK    2  A    between atoms: C_2  and  O_3
REMARK    3  A    between atoms: O_3  and  C_4
REMARK    4  A    between atoms: C_4  and  C_6
REMARK    5  A    between atoms: C_6  and  C_7
REMARK    6  A    between atoms: C_8  and  C_9
REMARK    7  A    between atoms: C_9  and  O_11
REMARK    8  A    between atoms: O_11  and  C_12
REMARK    9  A    between atoms: C_12  and  C_13
REMARK   10  A    between atoms: C_14  and  N_15
REMARK   11  A    between atoms: C_18  and  C_19
REMARK                            x       y       z     vdW  Elec       q    Type
REMARK                         _______ _______ _______ _____ _____    ______ ____
ROOT
ATOM      1  C   UNL     1       4.209   4.324  17.466  0.00  0.00    +0.000 C 
ATOM      2  C   UNL     1       4.642   5.552  16.708  0.00  0.00    +0.000 C 
ATOM      3  C   UNL     1       4.239   6.784  17.070  0.00  0.00    +0.000 C 
ATOM      4  O   UNL     1       3.449   6.993  18.190  0.00  0.00    +0.000 OA
ATOM      5  C   UNL     1       2.830   5.944  18.834  0.00  0.00    +0.000 A 
ATOM      6  C   UNL     1       1.891   6.251  19.854  0.00  0.00    +0.000 A 
ATOM      7  C   UNL     1       1.306   5.159  20.530  0.00  0.00    +0.000 A 
ATOM      8  C   UNL     1       1.622   3.836  20.210  0.00  0.00    +0.000 A 
ATOM      9  C   UNL     1       2.525   3.568  19.195  0.00  0.00    +0.000 A 
ATOM     10  C   UNL     1       3.151   4.619  18.509  0.00  0.00    +0.000 A 
ENDROOT
BRANCH   6  11
ATOM     11  C   UNL     1       1.529   7.646  20.239  0.00  0.00    +0.000 A 
ATOM     12  C   UNL     1       1.302   8.650  19.280  0.00  0.00    +0.000 A 
ATOM     13  C   UNL     1       1.041   9.975  19.645  0.00  0.00    +0.000 A 
ATOM     14  C   UNL     1       0.943  10.321  20.986  0.00  0.00    +0.000 A 
ATOM     15  C   UNL     1       1.103   9.342  21.960  0.00  0.00    +0.000 A 
ATOM     16  C   UNL     1       1.402   8.026  21.590  0.00  0.00    +0.000 A 
ENDBRANCH   6  11
BRANCH   3  17
ATOM     17  N   UNL     1       4.563   7.962  16.432  0.00  0.00    +0.000 N 
ATOM     18  H   UNL     1       4.232   7.985  15.465  0.00  0.00    +0.000 HD
ATOM     19  H   UNL     1       5.560   8.152  16.503  0.00  0.00    +0.000 HD
ENDBRANCH   3  17
BRANCH   2  20
ATOM     20  C   UNL     1       5.558   5.269  15.569  0.00  0.00    +0.000 C 
ATOM     21  O   UNL     1       6.449   6.040  15.235  0.00  0.00    +0.000 OA
BRANCH  20  22
ATOM     22  O   UNL     1       5.133   4.195  14.856  0.00  0.00    +0.000 OA
BRANCH  22  23
ATOM     23  C   UNL     1       6.131   3.562  14.040  0.00  0.00    +0.000 C 
ATOM     24  C   UNL     1       5.607   3.521  12.617  0.00  0.00    +0.000 C 
ENDBRANCH  22  23
ENDBRANCH  20  22
ENDBRANCH   2  20
BRANCH   1  25
ATOM     25  C   UNL     1       5.391   3.568  18.087  0.00  0.00    +0.000 C 
BRANCH  25  26
ATOM     26  C   UNL     1       6.213   4.411  19.026  0.00  0.00    +0.000 C 
ATOM     27  O   UNL     1       5.800   4.849  20.091  0.00  0.00    +0.000 OA
BRANCH  26  28
ATOM     28  O   UNL     1       7.419   4.691  18.468  0.00  0.00    +0.000 OA
BRANCH  28  30
ATOM     29  C   UNL     1       7.794   7.013  18.174  0.00  0.00    +0.000 C 
ATOM     30  C   UNL     1       8.111   5.805  19.038  0.00  0.00    +0.000 C 
ENDBRANCH  28  30
ENDBRANCH  26  28
ENDBRANCH  25  26
ENDBRANCH   1  25
TORSDOF 9
ENDMDL
MODEL 8
REMARK VINA RESULT:      -6.4      1.069      1.622
REMARK  Name = 
REMARK  11 active torsions:
REMARK  status: ('A' for Active; 'I' for Inactive)
REMARK    1  A    between atoms: C_1  and  C_2
REMARK    2  A    between atoms: C_2  and  O_3
REMARK    3  A    between atoms: O_3  and  C_4
REMARK    4  A    between atoms: C_4  and  C_6
REMARK    5  A    between atoms: C_6  and  C_7
REMARK    6  A    between atoms: C_8  and  C_9
REMARK    7  A    between atoms: C_9  and  O_11
REMARK    8  A    between atoms: O_11  and  C_12
REMARK    9  A    between atoms: C_12  and  C_13
REMARK   10  A    between atoms: C_14  and  N_15
REMARK   11  A    between atoms: C_18  and  C_19
REMARK                            x       y       z     vdW  Elec       q    Type
REMARK                         _______ _______ _______ _____ _____    ______ ____
ROOT
ATOM      1  C   UNL     1       4.784   4.207  17.370  0.00  0.00    +0.000 C 
ATOM      2  C   UNL     1       5.093   5.135  16.223  0.00  0.00    +0.000 C 
ATOM      3  C   UNL     1       4.622   6.394  16.188  0.00  0.00    +0.000 C 
ATOM      4  O   UNL     1       3.874   6.923  17.229  0.00  0.00    +0.000 OA
ATOM      5  C   UNL     1       3.362   6.117  18.222  0.00  0.00    +0.000 A 
ATOM      6  C   UNL     1       2.453   6.696  19.147  0.00  0.00    +0.000 A 
ATOM      7  C   UNL     1       1.980   5.862  20.182  0.00  0.00    +0.000 A 
ATOM      8  C   UNL     1       2.373   4.525  20.293  0.00  0.00    +0.000 A 
ATOM      9  C   UNL     1       3.243   3.982  19.362  0.00  0.00    +0.000 A 
ATOM     10  C   UNL     1       3.760   4.776  18.328  0.00  0.00    +0.000 A 
ENDROOT
BRANCH   6  11
ATOM     11  C   UNL     1       2.012   8.120  19.077  0.00  0.00    +0.000 A 
ATOM     12  C   UNL     1       2.257   8.922  17.947  0.00  0.00    +0.000 A 
ATOM     13  C   UNL     1       1.913  10.277  17.916  0.00  0.00    +0.000 A 
ATOM     14  C   UNL     1       1.262  10.856  18.998  0.00  0.00    +0.000 A 
ATOM     15  C   UNL     1       0.952  10.077  20.107  0.00  0.00    +0.000 A 
ATOM     16  C   UNL     1       1.333   8.731  20.149  0.00  0.00    +0.000 A 
ENDBRANCH   6  11
BRANCH   3  17
ATOM     17  N   UNL     1       4.831   7.309  15.178  0.00  0.00    +0.000 N 
ATOM     18  H   UNL     1       5.724   7.797  15.274  0.00  0.00    +0.000 HD
ATOM     19  H   UNL     1       4.047   7.951  15.100  0.00  0.00    +0.000 HD
ENDBRANCH   3  17
BRANCH   2  20
ATOM     20  C   UNL     1       5.971   4.537  15.180  0.00  0.00    +0.000 C 
ATOM     21  O   UNL     1       6.023   3.330  14.979  0.00  0.00    +0.000 OA
BRANCH  20  22
ATOM     22  O   UNL     1       6.826   5.460  14.672  0.00  0.00    +0.000 OA
BRANCH  22  23
ATOM     23  C   UNL     1       7.873   4.941  13.839  0.00  0.00    +0.000 C 
ATOM     24  C   UNL     1       7.501   5.226  12.396  0.00  0.00    +0.000 C 
ENDBRANCH  22  23
ENDBRANCH  20  22
ENDBRANCH   2  20
BRANCH   1  25
ATOM     25  C   UNL     1       6.046   3.761  18.122  0.00  0.00    +0.000 C 
BRANCH  25  26
ATOM     26  C   UNL     1       7.204   4.710  17.963  0.00  0.00    +0.000 C 
ATOM     27  O   UNL     1       8.247   4.428  17.388  0.00  0.00    +0.000 OA
BRANCH  26  28
ATOM     28  O   UNL     1       6.956   5.865  18.634  0.00  0.00    +0.000 OA
BRANCH  28  30
ATOM     29  C   UNL     1       7.671   7.857  17.567  0.00  0.00    +0.000 C 
ATOM     30  C   UNL     1       8.021   6.819  18.619  0.00  0.00    +0.000 C 
ENDBRANCH  28  30
ENDBRANCH  26  28
ENDBRANCH  25  26
ENDBRANCH   1  25
TORSDOF 9
ENDMDL
MODEL 9
REMARK VINA RESULT:      -6.4      2.606      4.682
REMARK  Name = 
REMARK  11 active torsions:
REMARK  status: ('A' for Active; 'I' for Inactive)
REMARK    1  A    between atoms: C_1  and  C_2
REMARK    2  A    between atoms: C_2  and  O_3
REMARK    3  A    between atoms: O_3  and  C_4
REMARK    4  A    between atoms: C_4  and  C_6
REMARK    5  A    between atoms: C_6  and  C_7
REMARK    6  A    between atoms: C_8  and  C_9
REMARK    7  A    between atoms: C_9  and  O_11
REMARK    8  A    between atoms: O_11  and  C_12
REMARK    9  A    between atoms: C_12  and  C_13
REMARK   10  A    between atoms: C_14  and  N_15
REMARK   11  A    between atoms: C_18  and  C_19
REMARK                            x       y       z     vdW  Elec       q    Type
REMARK                         _______ _______ _______ _____ _____    ______ ____
ROOT
ATOM      1  C   UNL     1       3.935   5.084  18.448  0.00  0.00    +0.000 C 
ATOM      2  C   UNL     1       3.447   4.375  19.685  0.00  0.00    +0.000 C 
ATOM      3  C   UNL     1       2.564   4.946  20.523  0.00  0.00    +0.000 C 
ATOM      4  O   UNL     1       2.015   6.194  20.266  0.00  0.00    +0.000 OA
ATOM      5  C   UNL     1       2.533   7.014  19.288  0.00  0.00    +0.000 A 
ATOM      6  C   UNL     1       2.043   8.345  19.208  0.00  0.00    +0.000 A 
ATOM      7  C   UNL     1       2.555   9.150  18.168  0.00  0.00    +0.000 A 
ATOM      8  C   UNL     1       3.506   8.671  17.262  0.00  0.00    +0.000 A 
ATOM      9  C   UNL     1       3.981   7.376  17.379  0.00  0.00    +0.000 A 
ATOM     10  C   UNL     1       3.486   6.528  18.382  0.00  0.00    +0.000 A 
ENDROOT
BRANCH   6  11
ATOM     11  C   UNL     1       1.021   8.898  20.144  0.00  0.00    +0.000 A 
ATOM     12  C   UNL     1       0.087   9.869  19.739  0.00  0.00    +0.000 A 
ATOM     13  C   UNL     1      -0.817  10.443  20.638  0.00  0.00    +0.000 A 
ATOM     14  C   UNL     1      -0.850  10.018  21.960  0.00  0.00    +0.000 A 
ATOM     15  C   UNL     1       0.019   9.018  22.379  0.00  0.00    +0.000 A 
ATOM     16  C   UNL     1       0.949   8.474  21.486  0.00  0.00    +0.000 A 
ENDBRANCH   6  11
BRANCH   3  17
ATOM     17  N   UNL     1       2.073   4.389  21.685  0.00  0.00    +0.000 N 
ATOM     18  H   UNL     1       1.584   5.072  22.267  0.00  0.00    +0.000 HD
ATOM     19  H   UNL     1       2.808   3.904  22.194  0.00  0.00    +0.000 HD
ENDBRANCH   3  17
BRANCH   2  20
ATOM     20  C   UNL     1       4.006   3.006  19.858  0.00  0.00    +0.000 C 
ATOM     21  O   UNL     1       5.201   2.765  19.740  0.00  0.00    +0.000 OA
BRANCH  20  22
ATOM     22  O   UNL     1       3.017   2.080  19.936  0.00  0.00    +0.000 OA
BRANCH  22  23
ATOM     23  C   UNL     1       2.371   1.760  18.694  0.00  0.00    +0.000 C 
ATOM     24  C   UNL     1       0.913   2.162  18.814  0.00  0.00    +0.000 C 
ENDBRANCH  22  23
ENDBRANCH  20  22
ENDBRANCH   2  20
BRANCH   1  25
ATOM     25  C   UNL     1       3.567   4.339  17.157  0.00  0.00    +0.000 C 
BRANCH  25  26
ATOM     26  C   UNL     1       4.727   4.174  16.212  0.00  0.00    +0.000 C 
ATOM     27  O   UNL     1       4.614   4.099  14.996  0.00  0.00    +0.000 OA
BRANCH  26  28
ATOM     28  O   UNL     1       5.881   4.017  16.911  0.00  0.00    +0.000 OA
BRANCH  28  30
ATOM     29  C   UNL     1       7.258   5.937  17.106  0.00  0.00    +0.000 C 
ATOM     30  C   UNL     1       7.031   4.646  16.339  0.00  0.00    +0.000 C 
ENDBRANCH  28  30
ENDBRANCH  26  28
ENDBRANCH  25  26
ENDBRANCH   1  25
TORSDOF 9
ENDMDL
