MODEL 1
REMARK VINA RESULT:      -6.6      0.000      0.000
REMARK  Name = 
REMARK  4 active torsions:
REMARK  status: ('A' for Active; 'I' for Inactive)
REMARK    1  A    between atoms: C_1  and  C_2
REMARK    2  A    between atoms: C_2  and  O_3
REMARK    3  A    between atoms: C_15  and  O_16
REMARK    4  A    between atoms: C_19  and  C_20
REMARK                            x       y       z     vdW  Elec       q    Type
REMARK                         _______ _______ _______ _____ _____    ______ ____
ROOT
ATOM      1  C   UNL     1       4.700  16.170  21.425  0.00  0.00    +0.000 C 
ATOM      2  C   UNL     1       4.945  17.208  20.306  0.00  0.00    +0.000 C 
ATOM      3  O   UNL     1       6.027  17.987  20.755  0.00  0.00    +0.000 OA
ATOM      4  C   UNL     1       7.205  17.202  20.453  0.00  0.00    +0.000 C 
ATOM      5  C   UNL     1       7.054  16.599  19.008  0.00  0.00    +0.000 C 
ATOM      6  C   UNL     1       8.251  17.363  18.220  0.00  0.00    +0.000 C 
ATOM      7  C   UNL     1       9.584  16.563  17.754  0.00  0.00    +0.000 C 
ATOM      8  C   UNL     1       9.626  15.131  18.372  0.00  0.00    +0.000 C 
ATOM      9  C   UNL     1       8.242  14.584  17.757  0.00  0.00    +0.000 C 
ATOM     10  C   UNL     1       8.065  13.072  17.499  0.00  0.00    +0.000 C 
ATOM     11  C   UNL     1       9.401  12.537  17.716  0.00  0.00    +0.000 C 
ATOM     12  C   UNL     1       9.963  13.125  18.798  0.00  0.00    +0.000 C 
ATOM     13  C   UNL     1       9.434  13.135  20.224  0.00  0.00    +0.000 C 
ATOM     14  C   UNL     1      10.043  11.904  20.810  0.00  0.00    +0.000 C 
ATOM     15  C   UNL     1      11.505  11.857  20.327  0.00  0.00    +0.000 C 
ATOM     16  C   UNL     1      11.846  12.629  18.947  0.00  0.00    +0.000 C 
ATOM     17  C   UNL     1      11.072  14.089  18.429  0.00  0.00    +0.000 C 
ATOM     18  C   UNL     1      12.054  15.032  19.122  0.00  0.00    +0.000 C 
ATOM     19  C   UNL     1       7.097  15.080  18.638  0.00  0.00    +0.000 C 
ATOM     20  C   UNL     1       5.829  14.765  17.809  0.00  0.00    +0.000 C 
ATOM     21  C   UNL     1       4.792  15.422  18.628  0.00  0.00    +0.000 C 
ATOM     22  C   UNL     1       5.461  16.773  18.926  0.00  0.00    +0.000 C 
ENDROOT
BRANCH   2  23
ATOM     23  O   UNL     1       3.763  17.967  20.111  0.00  0.00    +0.000 OA
ATOM     24  H   UNL     1       3.336  18.030  20.980  0.00  0.00    +0.000 HD
ENDBRANCH   2  23
BRANCH  14  25
ATOM     25  O   UNL     1       9.289  10.759  20.408  0.00  0.00    +0.000 OA
ATOM     26  H   UNL     1       9.806   9.967  20.640  0.00  0.00    +0.000 HD
ENDBRANCH  14  25
TORSDOF 2
ENDMDL
MODEL 2
REMARK VINA RESULT:      -6.4      2.992      6.000
REMARK  Name = 
REMARK  4 active torsions:
REMARK  status: ('A' for Active; 'I' for Inactive)
REMARK    1  A    between atoms: C_1  and  C_2
REMARK    2  A    between atoms: C_2  and  O_3
REMARK    3  A    between atoms: C_15  and  O_16
REMARK    4  A    between atoms: C_19  and  C_20
REMARK                            x       y       z     vdW  Elec       q    Type
REMARK                         _______ _______ _______ _____ _____    ______ ____
ROOT
ATOM      1  C   UNL     1      11.536  11.684  18.158  0.00  0.00    +0.000 C 
ATOM      2  C   UNL     1      11.034  12.967  17.456  0.00  0.00    +0.000 C 
ATOM      3  O   UNL     1       9.724  12.672  17.040  0.00  0.00    +0.000 OA
ATOM      4  C   UNL     1       8.906  12.851  18.221  0.00  0.00    +0.000 C 
ATOM      5  C   UNL     1       9.354  14.170  18.952  0.00  0.00    +0.000 C 
ATOM      6  C   UNL     1       8.029  15.093  18.781  0.00  0.00    +0.000 C 
ATOM      7  C   UNL     1       7.082  15.433  20.055  0.00  0.00    +0.000 C 
ATOM      8  C   UNL     1       7.484  14.579  21.298  0.00  0.00    +0.000 C 
ATOM      9  C   UNL     1       9.011  15.073  21.422  0.00  0.00    +0.000 C 
ATOM     10  C   UNL     1       9.708  15.067  22.800  0.00  0.00    +0.000 C 
ATOM     11  C   UNL     1       8.620  14.780  23.723  0.00  0.00    +0.000 C 
ATOM     12  C   UNL     1       7.817  13.822  23.204  0.00  0.00    +0.000 C 
ATOM     13  C   UNL     1       8.208  12.411  22.790  0.00  0.00    +0.000 C 
ATOM     14  C   UNL     1       8.012  11.632  24.049  0.00  0.00    +0.000 C 
ATOM     15  C   UNL     1       6.691  12.119  24.673  0.00  0.00    +0.000 C 
ATOM     16  C   UNL     1       6.207  13.615  24.291  0.00  0.00    +0.000 C 
ATOM     17  C   UNL     1       6.476  14.364  22.753  0.00  0.00    +0.000 C 
ATOM     18  C   UNL     1       5.185  13.856  22.112  0.00  0.00    +0.000 C 
ATOM     19  C   UNL     1       9.854  14.275  20.429  0.00  0.00    +0.000 C 
ATOM     20  C   UNL     1      11.210  15.021  20.412  0.00  0.00    +0.000 C 
ATOM     21  C   UNL     1      11.902  14.313  19.317  0.00  0.00    +0.000 C 
ATOM     22  C   UNL     1      10.796  14.259  18.252  0.00  0.00    +0.000 C 
ENDROOT
BRANCH   2  23
ATOM     23  O   UNL     1      11.901  13.273  16.376  0.00  0.00    +0.000 OA
ATOM     24  H   UNL     1      11.771  12.571  15.719  0.00  0.00    +0.000 HD
ENDBRANCH   2  23
BRANCH  14  25
ATOM     25  O   UNL     1       9.135  11.823  24.910  0.00  0.00    +0.000 OA
ATOM     26  H   UNL     1       9.200  12.774  25.107  0.00  0.00    +0.000 HD
ENDBRANCH  14  25
TORSDOF 2
ENDMDL
MODEL 3
REMARK VINA RESULT:      -6.3      9.468     11.266
REMARK  Name = 
REMARK  4 active torsions:
REMARK  status: ('A' for Active; 'I' for Inactive)
REMARK    1  A    between atoms: C_1  and  C_2
REMARK    2  A    between atoms: C_2  and  O_3
REMARK    3  A    between atoms: C_15  and  O_16
REMARK    4  A    between atoms: C_19  and  C_20
REMARK                            x       y       z     vdW  Elec       q    Type
REMARK                         _______ _______ _______ _____ _____    ______ ____
ROOT
ATOM      1  C   UNL     1      -6.222  14.491  21.578  0.00  0.00    +0.000 C 
ATOM      2  C   UNL     1      -5.307  14.721  22.804  0.00  0.00    +0.000 C 
ATOM      3  O   UNL     1      -5.237  13.474  23.451  0.00  0.00    +0.000 OA
ATOM      4  C   UNL     1      -4.253  12.719  22.705  0.00  0.00    +0.000 C 
ATOM      5  C   UNL     1      -3.027  13.655  22.394  0.00  0.00    +0.000 C 
ATOM      6  C   UNL     1      -1.854  12.938  23.260  0.00  0.00    +0.000 C 
ATOM      7  C   UNL     1      -0.650  12.136  22.526  0.00  0.00    +0.000 C 
ATOM      8  C   UNL     1      -0.935  11.963  21.002  0.00  0.00    +0.000 C 
ATOM      9  C   UNL     1      -1.058  13.523  20.622  0.00  0.00    +0.000 C 
ATOM     10  C   UNL     1      -0.709  13.991  19.193  0.00  0.00    +0.000 C 
ATOM     11  C   UNL     1      -0.116  12.807  18.589  0.00  0.00    +0.000 C 
ATOM     12  C   UNL     1      -0.820  11.708  18.943  0.00  0.00    +0.000 C 
ATOM     13  C   UNL     1      -2.296  11.435  18.696  0.00  0.00    +0.000 C 
ATOM     14  C   UNL     1      -2.288  10.770  17.358  0.00  0.00    +0.000 C 
ATOM     15  C   UNL     1      -1.114   9.774  17.363  0.00  0.00    +0.000 C 
ATOM     16  C   UNL     1       0.109  10.086  18.374  0.00  0.00    +0.000 C 
ATOM     17  C   UNL     1      -0.076  10.829  19.928  0.00  0.00    +0.000 C 
ATOM     18  C   UNL     1      -0.286   9.524  20.693  0.00  0.00    +0.000 C 
ATOM     19  C   UNL     1      -2.468  13.992  20.973  0.00  0.00    +0.000 C 
ATOM     20  C   UNL     1      -2.385  15.533  20.858  0.00  0.00    +0.000 C 
ATOM     21  C   UNL     1      -3.711  15.922  21.376  0.00  0.00    +0.000 C 
ATOM     22  C   UNL     1      -3.814  15.033  22.626  0.00  0.00    +0.000 C 
ENDROOT
BRANCH   2  23
ATOM     23  O   UNL     1      -5.872  15.735  23.619  0.00  0.00    +0.000 OA
ATOM     24  H   UNL     1      -5.542  15.575  24.516  0.00  0.00    +0.000 HD
ENDBRANCH   2  23
BRANCH  14  25
ATOM     25  O   UNL     1      -2.173  11.758  16.333  0.00  0.00    +0.000 OA
ATOM     26  H   UNL     1      -2.004  11.295  15.493  0.00  0.00    +0.000 HD
ENDBRANCH  14  25
TORSDOF 2
ENDMDL
MODEL 4
REMARK VINA RESULT:      -6.3      2.773      4.514
REMARK  Name = 
REMARK  4 active torsions:
REMARK  status: ('A' for Active; 'I' for Inactive)
REMARK    1  A    between atoms: C_1  and  C_2
REMARK    2  A    between atoms: C_2  and  O_3
REMARK    3  A    between atoms: C_15  and  O_16
REMARK    4  A    between atoms: C_19  and  C_20
REMARK                            x       y       z     vdW  Elec       q    Type
REMARK                         _______ _______ _______ _____ _____    ______ ____
ROOT
ATOM      1  C   UNL     1       4.512  16.244  22.206  0.00  0.00    +0.000 C 
ATOM      2  C   UNL     1       4.875  15.529  23.528  0.00  0.00    +0.000 C 
ATOM      3  O   UNL     1       4.477  14.192  23.345  0.00  0.00    +0.000 OA
ATOM      4  C   UNL     1       5.544  13.583  22.580  0.00  0.00    +0.000 C 
ATOM      5  C   UNL     1       6.924  14.050  23.177  0.00  0.00    +0.000 C 
ATOM      6  C   UNL     1       7.513  12.648  23.745  0.00  0.00    +0.000 C 
ATOM      7  C   UNL     1       8.767  11.917  23.018  0.00  0.00    +0.000 C 
ATOM      8  C   UNL     1       9.100  12.596  21.653  0.00  0.00    +0.000 C 
ATOM      9  C   UNL     1       9.393  14.079  22.210  0.00  0.00    +0.000 C 
ATOM     10  C   UNL     1      10.362  15.005  21.444  0.00  0.00    +0.000 C 
ATOM     11  C   UNL     1      10.951  14.123  20.448  0.00  0.00    +0.000 C 
ATOM     12  C   UNL     1       9.998  13.318  19.924  0.00  0.00    +0.000 C 
ATOM     13  C   UNL     1       8.727  13.738  19.203  0.00  0.00    +0.000 C 
ATOM     14  C   UNL     1       9.169  13.828  17.779  0.00  0.00    +0.000 C 
ATOM     15  C   UNL     1      10.066  12.604  17.514  0.00  0.00    +0.000 C 
ATOM     16  C   UNL     1      10.806  11.946  18.792  0.00  0.00    +0.000 C 
ATOM     17  C   UNL     1      10.129  11.880  20.385  0.00  0.00    +0.000 C 
ATOM     18  C   UNL     1       9.421  10.541  20.190  0.00  0.00    +0.000 C 
ATOM     19  C   UNL     1       8.056  14.793  22.396  0.00  0.00    +0.000 C 
ATOM     20  C   UNL     1       8.424  16.062  23.201  0.00  0.00    +0.000 C 
ATOM     21  C   UNL     1       7.082  16.604  23.494  0.00  0.00    +0.000 C 
ATOM     22  C   UNL     1       6.341  15.334  23.942  0.00  0.00    +0.000 C 
ENDROOT
BRANCH   2  23
ATOM     23  O   UNL     1       4.198  16.164  24.600  0.00  0.00    +0.000 OA
ATOM     24  H   UNL     1       3.266  16.214  24.339  0.00  0.00    +0.000 HD
ENDBRANCH   2  23
BRANCH  14  25
ATOM     25  O   UNL     1       9.847  15.068  17.566  0.00  0.00    +0.000 OA
ATOM     26  H   UNL     1      10.792  14.871  17.440  0.00  0.00    +0.000 HD
ENDBRANCH  14  25
TORSDOF 2
ENDMDL
MODEL 5
REMARK VINA RESULT:      -6.2      9.310     13.261
REMARK  Name = 
REMARK  4 active torsions:
REMARK  status: ('A' for Active; 'I' for Inactive)
REMARK    1  A    between atoms: C_1  and  C_2
REMARK    2  A    between atoms: C_2  and  O_3
REMARK    3  A    between atoms: C_15  and  O_16
REMARK    4  A    between atoms: C_19  and  C_20
REMARK                            x       y       z     vdW  Elec       q    Type
REMARK                         _______ _______ _______ _____ _____    ______ ____
ROOT
ATOM      1  C   UNL     1      -1.019  10.375  19.133  0.00  0.00    +0.000 C 
ATOM      2  C   UNL     1      -0.006  11.379  19.733  0.00  0.00    +0.000 C 
ATOM      3  O   UNL     1      -0.235  12.586  19.048  0.00  0.00    +0.000 OA
ATOM      4  C   UNL     1      -1.388  13.174  19.696  0.00  0.00    +0.000 C 
ATOM      5  C   UNL     1      -1.222  13.027  21.254  0.00  0.00    +0.000 C 
ATOM      6  C   UNL     1      -1.086  14.581  21.705  0.00  0.00    +0.000 C 
ATOM      7  C   UNL     1      -2.282  15.320  22.515  0.00  0.00    +0.000 C 
ATOM      8  C   UNL     1      -3.570  14.439  22.546  0.00  0.00    +0.000 C 
ATOM      9  C   UNL     1      -2.937  13.149  23.274  0.00  0.00    +0.000 C 
ATOM     10  C   UNL     1      -3.841  12.232  24.125  0.00  0.00    +0.000 C 
ATOM     11  C   UNL     1      -5.090  12.975  24.205  0.00  0.00    +0.000 C 
ATOM     12  C   UNL     1      -5.378  13.522  23.001  0.00  0.00    +0.000 C 
ATOM     13  C   UNL     1      -5.570  12.798  21.677  0.00  0.00    +0.000 C 
ATOM     14  C   UNL     1      -7.032  12.492  21.678  0.00  0.00    +0.000 C 
ATOM     15  C   UNL     1      -7.750  13.752  22.199  0.00  0.00    +0.000 C 
ATOM     16  C   UNL     1      -6.896  14.744  23.149  0.00  0.00    +0.000 C 
ATOM     17  C   UNL     1      -5.195  15.026  22.985  0.00  0.00    +0.000 C 
ATOM     18  C   UNL     1      -5.332  16.192  22.006  0.00  0.00    +0.000 C 
ATOM     19  C   UNL     1      -2.220  12.308  22.219  0.00  0.00    +0.000 C 
ATOM     20  C   UNL     1      -1.411  11.284  23.051  0.00  0.00    +0.000 C 
ATOM     21  C   UNL     1      -0.617  10.632  21.991  0.00  0.00    +0.000 C 
ATOM     22  C   UNL     1      -0.133  11.851  21.190  0.00  0.00    +0.000 C 
ENDROOT
BRANCH   2  23
ATOM     23  O   UNL     1       1.307  10.879  19.548  0.00  0.00    +0.000 OA
ATOM     24  H   UNL     1       1.282  10.348  18.737  0.00  0.00    +0.000 HD
ENDBRANCH   2  23
BRANCH  14  25
ATOM     25  O   UNL     1      -7.280  11.340  22.486  0.00  0.00    +0.000 OA
ATOM     26  H   UNL     1      -6.875  10.574  22.042  0.00  0.00    +0.000 HD
ENDBRANCH  14  25
TORSDOF 2
ENDMDL
MODEL 6
REMARK VINA RESULT:      -6.2      1.725      6.240
REMARK  Name = 
REMARK  4 active torsions:
REMARK  status: ('A' for Active; 'I' for Inactive)
REMARK    1  A    between atoms: C_1  and  C_2
REMARK    2  A    between atoms: C_2  and  O_3
REMARK    3  A    between atoms: C_15  and  O_16
REMARK    4  A    between atoms: C_19  and  C_20
REMARK                            x       y       z     vdW  Elec       q    Type
REMARK                         _______ _______ _______ _____ _____    ______ ____
ROOT
ATOM      1  C   UNL     1      11.888  12.106  19.727  0.00  0.00    +0.000 C 
ATOM      2  C   UNL     1      11.273  11.880  18.326  0.00  0.00    +0.000 C 
ATOM      3  O   UNL     1      10.119  11.108  18.550  0.00  0.00    +0.000 OA
ATOM      4  C   UNL     1       9.110  12.054  18.975  0.00  0.00    +0.000 C 
ATOM      5  C   UNL     1       9.190  13.327  18.053  0.00  0.00    +0.000 C 
ATOM      6  C   UNL     1       7.759  13.253  17.288  0.00  0.00    +0.000 C 
ATOM      7  C   UNL     1       6.581  14.319  17.621  0.00  0.00    +0.000 C 
ATOM      8  C   UNL     1       6.937  15.176  18.876  0.00  0.00    +0.000 C 
ATOM      9  C   UNL     1       8.310  15.814  18.326  0.00  0.00    +0.000 C 
ATOM     10  C   UNL     1       8.774  17.191  18.846  0.00  0.00    +0.000 C 
ATOM     11  C   UNL     1       7.629  17.665  19.609  0.00  0.00    +0.000 C 
ATOM     12  C   UNL     1       7.106  16.648  20.333  0.00  0.00    +0.000 C 
ATOM     13  C   UNL     1       7.809  15.804  21.385  0.00  0.00    +0.000 C 
ATOM     14  C   UNL     1       7.569  16.575  22.641  0.00  0.00    +0.000 C 
ATOM     15  C   UNL     1       6.100  17.038  22.604  0.00  0.00    +0.000 C 
ATOM     16  C   UNL     1       5.414  17.186  21.147  0.00  0.00    +0.000 C 
ATOM     17  C   UNL     1       5.774  16.170  19.792  0.00  0.00    +0.000 C 
ATOM     18  C   UNL     1       4.713  15.117  20.109  0.00  0.00    +0.000 C 
ATOM     19  C   UNL     1       9.428  14.795  18.535  0.00  0.00    +0.000 C 
ATOM     20  C   UNL     1      10.609  15.370  17.717  0.00  0.00    +0.000 C 
ATOM     21  C   UNL     1      11.580  14.262  17.817  0.00  0.00    +0.000 C 
ATOM     22  C   UNL     1      10.680  13.051  17.527  0.00  0.00    +0.000 C 
ENDROOT
BRANCH   2  23
ATOM     23  O   UNL     1      12.224  11.226  17.502  0.00  0.00    +0.000 OA
ATOM     24  H   UNL     1      13.062  11.694  17.633  0.00  0.00    +0.000 HD
ENDBRANCH   2  23
BRANCH  14  25
ATOM     25  O   UNL     1       8.491  17.663  22.720  0.00  0.00    +0.000 OA
ATOM     26  H   UNL     1       8.529  17.953  23.649  0.00  0.00    +0.000 HD
ENDBRANCH  14  25
TORSDOF 2
ENDMDL
MODEL 7
REMARK VINA RESULT:      -6.1      8.765     12.376
REMARK  Name = 
REMARK  4 active torsions:
REMARK  status: ('A' for Active; 'I' for Inactive)
REMARK    1  A    between atoms: C_1  and  C_2
REMARK    2  A    between atoms: C_2  and  O_3
REMARK    3  A    between atoms: C_15  and  O_16
REMARK    4  A    between atoms: C_19  and  C_20
REMARK                            x       y       z     vdW  Elec       q    Type
REMARK                         _______ _______ _______ _____ _____    ______ ____
ROOT
ATOM      1  C   UNL     1      -0.791  10.365  18.381  0.00  0.00    +0.000 C 
ATOM      2  C   UNL     1       0.457  10.974  19.061  0.00  0.00    +0.000 C 
ATOM      3  O   UNL     1       0.507  12.306  18.613  0.00  0.00    +0.000 OA
ATOM      4  C   UNL     1      -0.443  13.017  19.443  0.00  0.00    +0.000 C 
ATOM      5  C   UNL     1      -0.260  12.549  20.934  0.00  0.00    +0.000 C 
ATOM      6  C   UNL     1       0.269  13.917  21.632  0.00  0.00    +0.000 C 
ATOM      7  C   UNL     1      -0.679  14.752  22.650  0.00  0.00    +0.000 C 
ATOM      8  C   UNL     1      -2.141  14.207  22.633  0.00  0.00    +0.000 C 
ATOM      9  C   UNL     1      -1.818  12.693  23.076  0.00  0.00    +0.000 C 
ATOM     10  C   UNL     1      -2.887  11.872  23.828  0.00  0.00    +0.000 C 
ATOM     11  C   UNL     1      -3.912  12.859  24.134  0.00  0.00    +0.000 C 
ATOM     12  C   UNL     1      -4.101  13.672  23.069  0.00  0.00    +0.000 C 
ATOM     13  C   UNL     1      -4.513  13.272  21.661  0.00  0.00    +0.000 C 
ATOM     14  C   UNL     1      -6.005  13.322  21.727  0.00  0.00    +0.000 C 
ATOM     15  C   UNL     1      -6.372  14.596  22.512  0.00  0.00    +0.000 C 
ATOM     16  C   UNL     1      -5.266  15.166  23.546  0.00  0.00    +0.000 C 
ATOM     17  C   UNL     1      -3.555  15.068  23.295  0.00  0.00    +0.000 C 
ATOM     18  C   UNL     1      -3.438  16.393  22.545  0.00  0.00    +0.000 C 
ATOM     19  C   UNL     1      -1.368  11.918  21.839  0.00  0.00    +0.000 C 
ATOM     20  C   UNL     1      -0.804  10.597  22.415  0.00  0.00    +0.000 C 
ATOM     21  C   UNL     1      -0.234   9.985  21.199  0.00  0.00    +0.000 C 
ATOM     22  C   UNL     1       0.504  11.183  20.582  0.00  0.00    +0.000 C 
ENDROOT
BRANCH   2  23
ATOM     23  O   UNL     1       1.601  10.223  18.687  0.00  0.00    +0.000 OA
ATOM     24  H   UNL     1       2.068  10.014  19.510  0.00  0.00    +0.000 HD
ENDBRANCH   2  23
BRANCH  14  25
ATOM     25  O   UNL     1      -6.498  12.131  22.343  0.00  0.00    +0.000 OA
ATOM     26  H   UNL     1      -7.315  12.360  22.820  0.00  0.00    +0.000 HD
ENDBRANCH  14  25
TORSDOF 2
ENDMDL
MODEL 8
REMARK VINA RESULT:      -6.0      1.878      3.402
REMARK  Name = 
REMARK  4 active torsions:
REMARK  status: ('A' for Active; 'I' for Inactive)
REMARK    1  A    between atoms: C_1  and  C_2
REMARK    2  A    between atoms: C_2  and  O_3
REMARK    3  A    between atoms: C_15  and  O_16
REMARK    4  A    between atoms: C_19  and  C_20
REMARK                            x       y       z     vdW  Elec       q    Type
REMARK                         _______ _______ _______ _____ _____    ______ ____
ROOT
ATOM      1  C   UNL     1       5.376  17.072  18.573  0.00  0.00    +0.000 C 
ATOM      2  C   UNL     1       5.362  17.111  20.119  0.00  0.00    +0.000 C 
ATOM      3  O   UNL     1       4.898  15.844  20.516  0.00  0.00    +0.000 OA
ATOM      4  C   UNL     1       6.053  14.977  20.426  0.00  0.00    +0.000 C 
ATOM      5  C   UNL     1       7.296  15.725  21.037  0.00  0.00    +0.000 C 
ATOM      6  C   UNL     1       7.613  14.804  22.336  0.00  0.00    +0.000 C 
ATOM      7  C   UNL     1       8.929  13.856  22.384  0.00  0.00    +0.000 C 
ATOM      8  C   UNL     1       9.624  13.789  20.988  0.00  0.00    +0.000 C 
ATOM      9  C   UNL     1       9.913  15.363  20.810  0.00  0.00    +0.000 C 
ATOM     10  C   UNL     1      11.110  15.828  19.952  0.00  0.00    +0.000 C 
ATOM     11  C   UNL     1      11.830  14.592  19.685  0.00  0.00    +0.000 C 
ATOM     12  C   UNL     1      10.954  13.600  19.403  0.00  0.00    +0.000 C 
ATOM     13  C   UNL     1       9.924  13.566  18.284  0.00  0.00    +0.000 C 
ATOM     14  C   UNL     1      10.686  12.961  17.152  0.00  0.00    +0.000 C 
ATOM     15  C   UNL     1      11.507  11.797  17.739  0.00  0.00    +0.000 C 
ATOM     16  C   UNL     1      11.874  11.878  19.312  0.00  0.00    +0.000 C 
ATOM     17  C   UNL     1      10.847  12.579  20.518  0.00  0.00    +0.000 C 
ATOM     18  C   UNL     1      10.086  11.293  20.832  0.00  0.00    +0.000 C 
ATOM     19  C   UNL     1       8.639  16.028  20.295  0.00  0.00    +0.000 C 
ATOM     20  C   UNL     1       8.925  17.542  20.447  0.00  0.00    +0.000 C 
ATOM     21  C   UNL     1       7.605  18.109  20.105  0.00  0.00    +0.000 C 
ATOM     22  C   UNL     1       6.671  17.198  20.917  0.00  0.00    +0.000 C 
ENDROOT
BRANCH   2  23
ATOM     23  O   UNL     1       4.517  18.167  20.548  0.00  0.00    +0.000 OA
ATOM     24  H   UNL     1       5.086  18.946  20.643  0.00  0.00    +0.000 HD
ENDBRANCH   2  23
BRANCH  14  25
ATOM     25  O   UNL     1      11.503  13.959  16.537  0.00  0.00    +0.000 OA
ATOM     26  H   UNL     1      11.065  14.233  15.711  0.00  0.00    +0.000 HD
ENDBRANCH  14  25
TORSDOF 2
ENDMDL
MODEL 9
REMARK VINA RESULT:      -5.9      5.894      8.686
REMARK  Name = 
REMARK  4 active torsions:
REMARK  status: ('A' for Active; 'I' for Inactive)
REMARK    1  A    between atoms: C_1  and  C_2
REMARK    2  A    between atoms: C_2  and  O_3
REMARK    3  A    between atoms: C_15  and  O_16
REMARK    4  A    between atoms: C_19  and  C_20
REMARK                            x       y       z     vdW  Elec       q    Type
REMARK                         _______ _______ _______ _____ _____    ______ ____
ROOT
ATOM      1  C   UNL     1       2.359  16.662  21.003  0.00  0.00    +0.000 C 
ATOM      2  C   UNL     1       2.832  16.327  19.569  0.00  0.00    +0.000 C 
ATOM      3  O   UNL     1       3.911  15.441  19.734  0.00  0.00    +0.000 OA
ATOM      4  C   UNL     1       3.303  14.148  19.968  0.00  0.00    +0.000 C 
ATOM      5  C   UNL     1       2.115  13.958  18.954  0.00  0.00    +0.000 C 
ATOM      6  C   UNL     1       2.664  12.725  18.051  0.00  0.00    +0.000 C 
ATOM      7  C   UNL     1       1.999  11.249  18.165  0.00  0.00    +0.000 C 
ATOM      8  C   UNL     1       1.014  11.167  19.372  0.00  0.00    +0.000 C 
ATOM      9  C   UNL     1       0.011  12.343  18.919  0.00  0.00    +0.000 C 
ATOM     10  C   UNL     1      -1.466  12.301  19.366  0.00  0.00    +0.000 C 
ATOM     11  C   UNL     1      -1.599  10.979  19.960  0.00  0.00    +0.000 C 
ATOM     12  C   UNL     1      -0.507  10.698  20.708  0.00  0.00    +0.000 C 
ATOM     13  C   UNL     1       0.026  11.484  21.897  0.00  0.00    +0.000 C 
ATOM     14  C   UNL     1      -0.693  10.864  23.050  0.00  0.00    +0.000 C 
ATOM     15  C   UNL     1      -0.677   9.342  22.819  0.00  0.00    +0.000 C 
ATOM     16  C   UNL     1      -0.535   8.834  21.289  0.00  0.00    +0.000 C 
ATOM     17  C   UNL     1       0.385   9.652  20.072  0.00  0.00    +0.000 C 
ATOM     18  C   UNL     1       1.697   8.927  20.364  0.00  0.00    +0.000 C 
ATOM     19  C   UNL     1       0.623  13.680  19.332  0.00  0.00    +0.000 C 
ATOM     20  C   UNL     1      -0.248  14.727  18.598  0.00  0.00    +0.000 C 
ATOM     21  C   UNL     1       0.499  15.965  18.894  0.00  0.00    +0.000 C 
ATOM     22  C   UNL     1       1.942  15.516  18.615  0.00  0.00    +0.000 C 
ENDROOT
BRANCH   2  23
ATOM     23  O   UNL     1       3.199  17.528  18.910  0.00  0.00    +0.000 OA
ATOM     24  H   UNL     1       3.205  17.325  17.962  0.00  0.00    +0.000 HD
ENDBRANCH   2  23
BRANCH  14  25
ATOM     25  O   UNL     1      -2.015  11.399  23.134  0.00  0.00    +0.000 OA
ATOM     26  H   UNL     1      -2.188  11.619  24.066  0.00  0.00    +0.000 HD
ENDBRANCH  14  25
TORSDOF 2
ENDMDL
