MODEL 1
REMARK VINA RESULT:      -8.3      0.000      0.000
REMARK  Name = 
REMARK  6 active torsions:
REMARK  status: ('A' for Active; 'I' for Inactive)
REMARK    1  A    between atoms: C_1  and  C_2
REMARK    2  A    between atoms: C_5  and  S_6
REMARK    3  A    between atoms: S_6  and  C_9
REMARK    4  A    between atoms: C_12  and  N_13
REMARK    5  A    between atoms: C_14  and  C_16
REMARK    6  A    between atoms: C_17  and  C_18
REMARK                            x       y       z     vdW  Elec       q    Type
REMARK                         _______ _______ _______ _____ _____    ______ ____
ROOT
ATOM      1  C   UNL     1       3.543   5.331  18.706  0.00  0.00    +0.000 A 
ATOM      2  C   UNL     1       2.820   5.348  19.891  0.00  0.00    +0.000 A 
ATOM      3  C   UNL     1       2.096   6.492  20.233  0.00  0.00    +0.000 A 
ATOM      4  C   UNL     1       2.084   7.630  19.417  0.00  0.00    +0.000 A 
ATOM      5  C   UNL     1       2.800   7.590  18.214  0.00  0.00    +0.000 A 
ATOM      6  C   UNL     1       3.524   6.442  17.854  0.00  0.00    +0.000 A 
ENDROOT
BRANCH   4   7
ATOM      7  N   UNL     1       1.384   8.817  19.762  0.00  0.00    +0.000 N 
ATOM      8  C   UNL     1       1.069   9.208  21.052  0.00  0.00    +0.000 C 
ATOM      9  O   UNL     1       1.353   8.607  22.082  0.00  0.00    +0.000 OA
ATOM     10  H   UNL     1       1.115   9.419  18.999  0.00  0.00    +0.000 HD
BRANCH   8  11
ATOM     11  C   UNL     1       0.308  10.483  21.141  0.00  0.00    +0.000 C 
ATOM     12  C   UNL     1      -0.320  10.734  22.306  0.00  0.00    +0.000 C 
BRANCH  12  13
ATOM     13  C   UNL     1      -1.144  11.903  22.620  0.00  0.00    +0.000 A 
ATOM     14  C   UNL     1      -2.365  11.816  23.287  0.00  0.00    +0.000 A 
ATOM     15  C   UNL     1      -3.067  12.978  23.600  0.00  0.00    +0.000 A 
ATOM     16  C   UNL     1      -2.518  14.199  23.247  0.00  0.00    +0.000 A 
ATOM     17  N   UNL     1      -1.331  14.331  22.621  0.00  0.00    +0.000 NA
ATOM     18  C   UNL     1      -0.671  13.184  22.331  0.00  0.00    +0.000 A 
ENDBRANCH  12  13
ENDBRANCH   8  11
ENDBRANCH   4   7
BRANCH   1  19
ATOM     19  S   UNL     1       4.495   3.897  18.265  0.00  0.00    +0.000 S 
ATOM     20  O   UNL     1       3.533   2.882  17.888  0.00  0.00    +0.000 OA
ATOM     21  O   UNL     1       5.438   3.665  19.345  0.00  0.00    +0.000 OA
BRANCH  19  26
ATOM     22  C   UNL     1       7.823   5.225  13.337  0.00  0.00    +0.000 C 
ATOM     23  C   UNL     1       6.993   4.881  14.544  0.00  0.00    +0.000 A 
ATOM     24  C   UNL     1       7.453   5.234  15.824  0.00  0.00    +0.000 A 
ATOM     25  C   UNL     1       6.706   4.924  16.963  0.00  0.00    +0.000 A 
ATOM     26  C   UNL     1       5.487   4.258  16.828  0.00  0.00    +0.000 A 
ATOM     27  C   UNL     1       5.003   3.908  15.565  0.00  0.00    +0.000 A 
ATOM     28  C   UNL     1       5.759   4.217  14.431  0.00  0.00    +0.000 A 
ATOM     29 CL   UNL     1       5.122   3.755  12.894  0.00  0.00    +0.000 Cl
ENDBRANCH  19  26
ENDBRANCH   1  19
TORSDOF 5
ENDMDL
MODEL 2
REMARK VINA RESULT:      -8.1      2.886      3.243
REMARK  Name = 
REMARK  6 active torsions:
REMARK  status: ('A' for Active; 'I' for Inactive)
REMARK    1  A    between atoms: C_1  and  C_2
REMARK    2  A    between atoms: C_5  and  S_6
REMARK    3  A    between atoms: S_6  and  C_9
REMARK    4  A    between atoms: C_12  and  N_13
REMARK    5  A    between atoms: C_14  and  C_16
REMARK    6  A    between atoms: C_17  and  C_18
REMARK                            x       y       z     vdW  Elec       q    Type
REMARK                         _______ _______ _______ _____ _____    ______ ____
ROOT
ATOM      1  C   UNL     1       4.615   6.159  18.243  0.00  0.00    +0.000 A 
ATOM      2  C   UNL     1       3.832   5.899  19.359  0.00  0.00    +0.000 A 
ATOM      3  C   UNL     1       2.691   6.671  19.588  0.00  0.00    +0.000 A 
ATOM      4  C   UNL     1       2.316   7.709  18.725  0.00  0.00    +0.000 A 
ATOM      5  C   UNL     1       3.104   7.945  17.591  0.00  0.00    +0.000 A 
ATOM      6  C   UNL     1       4.248   7.169  17.345  0.00  0.00    +0.000 A 
ENDROOT
BRANCH   4   7
ATOM      7  N   UNL     1       1.181   8.530  18.958  0.00  0.00    +0.000 N 
ATOM      8  C   UNL     1       1.104   9.883  18.675  0.00  0.00    +0.000 C 
ATOM      9  O   UNL     1       1.988  10.570  18.173  0.00  0.00    +0.000 OA
ATOM     10  H   UNL     1       0.369   8.075  19.348  0.00  0.00    +0.000 HD
BRANCH   8  11
ATOM     11  C   UNL     1      -0.191  10.517  19.038  0.00  0.00    +0.000 C 
ATOM     12  C   UNL     1      -1.205  10.370  18.164  0.00  0.00    +0.000 C 
BRANCH  12  13
ATOM     13  C   UNL     1      -2.556  10.920  18.291  0.00  0.00    +0.000 A 
ATOM     14  C   UNL     1      -3.644  10.442  17.563  0.00  0.00    +0.000 A 
ATOM     15  C   UNL     1      -4.911  10.979  17.778  0.00  0.00    +0.000 A 
ATOM     16  C   UNL     1      -5.055  11.975  18.729  0.00  0.00    +0.000 A 
ATOM     17  N   UNL     1      -4.036  12.454  19.470  0.00  0.00    +0.000 NA
ATOM     18  C   UNL     1      -2.816  11.911  19.240  0.00  0.00    +0.000 A 
ENDBRANCH  12  13
ENDBRANCH   8  11
ENDBRANCH   4   7
BRANCH   1  19
ATOM     19  S   UNL     1       6.087   5.209  17.948  0.00  0.00    +0.000 S 
ATOM     20  O   UNL     1       5.945   4.002  18.738  0.00  0.00    +0.000 OA
ATOM     21  O   UNL     1       7.215   6.101  18.146  0.00  0.00    +0.000 OA
BRANCH  19  26
ATOM     22  C   UNL     1       6.390   3.478  12.114  0.00  0.00    +0.000 C 
ATOM     23  C   UNL     1       6.323   3.924  13.550  0.00  0.00    +0.000 A 
ATOM     24  C   UNL     1       5.366   3.354  14.407  0.00  0.00    +0.000 A 
ATOM     25  C   UNL     1       5.277   3.751  15.743  0.00  0.00    +0.000 A 
ATOM     26  C   UNL     1       6.151   4.724  16.233  0.00  0.00    +0.000 A 
ATOM     27  C   UNL     1       7.118   5.295  15.403  0.00  0.00    +0.000 A 
ATOM     28  C   UNL     1       7.197   4.896  14.066  0.00  0.00    +0.000 A 
ATOM     29 CL   UNL     1       8.403   5.639  13.078  0.00  0.00    +0.000 Cl
ENDBRANCH  19  26
ENDBRANCH   1  19
TORSDOF 5
ENDMDL
MODEL 3
REMARK VINA RESULT:      -8.1      2.265      2.558
REMARK  Name = 
REMARK  6 active torsions:
REMARK  status: ('A' for Active; 'I' for Inactive)
REMARK    1  A    between atoms: C_1  and  C_2
REMARK    2  A    between atoms: C_5  and  S_6
REMARK    3  A    between atoms: S_6  and  C_9
REMARK    4  A    between atoms: C_12  and  N_13
REMARK    5  A    between atoms: C_14  and  C_16
REMARK    6  A    between atoms: C_17  and  C_18
REMARK                            x       y       z     vdW  Elec       q    Type
REMARK                         _______ _______ _______ _____ _____    ______ ____
ROOT
ATOM      1  C   UNL     1       3.981   5.593  18.445  0.00  0.00    +0.000 A 
ATOM      2  C   UNL     1       3.894   6.640  17.539  0.00  0.00    +0.000 A 
ATOM      3  C   UNL     1       3.030   7.705  17.805  0.00  0.00    +0.000 A 
ATOM      4  C   UNL     1       2.239   7.743  18.960  0.00  0.00    +0.000 A 
ATOM      5  C   UNL     1       2.354   6.690  19.876  0.00  0.00    +0.000 A 
ATOM      6  C   UNL     1       3.227   5.619  19.624  0.00  0.00    +0.000 A 
ENDROOT
BRANCH   4   7
ATOM      7  N   UNL     1       1.327   8.797  19.233  0.00  0.00    +0.000 N 
ATOM      8  C   UNL     1       1.369  10.055  18.658  0.00  0.00    +0.000 C 
ATOM      9  O   UNL     1       2.181  10.445  17.826  0.00  0.00    +0.000 OA
ATOM     10  H   UNL     1       0.587   8.593  19.888  0.00  0.00    +0.000 HD
BRANCH   8  11
ATOM     11  C   UNL     1       0.312  10.986  19.133  0.00  0.00    +0.000 C 
ATOM     12  C   UNL     1      -0.962  10.654  18.850  0.00  0.00    +0.000 C 
BRANCH  12  13
ATOM     13  C   UNL     1      -2.163  11.420  19.191  0.00  0.00    +0.000 A 
ATOM     14  C   UNL     1      -2.196  12.367  20.212  0.00  0.00    +0.000 A 
ATOM     15  C   UNL     1      -3.360  13.097  20.442  0.00  0.00    +0.000 A 
ATOM     16  C   UNL     1      -4.458  12.865  19.631  0.00  0.00    +0.000 A 
ATOM     17  N   UNL     1      -4.465  11.974  18.619  0.00  0.00    +0.000 NA
ATOM     18  C   UNL     1      -3.318  11.281  18.419  0.00  0.00    +0.000 A 
ENDBRANCH  12  13
ENDBRANCH   8  11
ENDBRANCH   4   7
BRANCH   1  19
ATOM     19  S   UNL     1       5.052   4.215  18.113  0.00  0.00    +0.000 S 
ATOM     20  O   UNL     1       4.187   3.057  18.006  0.00  0.00    +0.000 OA
ATOM     21  O   UNL     1       6.118   4.259  19.098  0.00  0.00    +0.000 OA
BRANCH  19  26
ATOM     22  C   UNL     1       7.697   5.086  12.695  0.00  0.00    +0.000 C 
ATOM     23  C   UNL     1       7.035   4.854  14.026  0.00  0.00    +0.000 A 
ATOM     24  C   UNL     1       7.653   5.322  15.197  0.00  0.00    +0.000 A 
ATOM     25  C   UNL     1       7.063   5.118  16.447  0.00  0.00    +0.000 A 
ATOM     26  C   UNL     1       5.845   4.442  16.533  0.00  0.00    +0.000 A 
ATOM     27  C   UNL     1       5.205   3.979  15.381  0.00  0.00    +0.000 A 
ATOM     28  C   UNL     1       5.804   4.183  14.135  0.00  0.00    +0.000 A 
ATOM     29 CL   UNL     1       4.979   3.583  12.741  0.00  0.00    +0.000 Cl
ENDBRANCH  19  26
ENDBRANCH   1  19
TORSDOF 5
ENDMDL
MODEL 4
REMARK VINA RESULT:      -8.1      1.206      1.571
REMARK  Name = 
REMARK  6 active torsions:
REMARK  status: ('A' for Active; 'I' for Inactive)
REMARK    1  A    between atoms: C_1  and  C_2
REMARK    2  A    between atoms: C_5  and  S_6
REMARK    3  A    between atoms: S_6  and  C_9
REMARK    4  A    between atoms: C_12  and  N_13
REMARK    5  A    between atoms: C_14  and  C_16
REMARK    6  A    between atoms: C_17  and  C_18
REMARK                            x       y       z     vdW  Elec       q    Type
REMARK                         _______ _______ _______ _____ _____    ______ ____
ROOT
ATOM      1  C   UNL     1       3.832   5.431  18.576  0.00  0.00    +0.000 A 
ATOM      2  C   UNL     1       3.826   6.527  17.725  0.00  0.00    +0.000 A 
ATOM      3  C   UNL     1       3.044   7.638  18.046  0.00  0.00    +0.000 A 
ATOM      4  C   UNL     1       2.255   7.676  19.203  0.00  0.00    +0.000 A 
ATOM      5  C   UNL     1       2.288   6.572  20.064  0.00  0.00    +0.000 A 
ATOM      6  C   UNL     1       3.079   5.453  19.756  0.00  0.00    +0.000 A 
ENDROOT
BRANCH   4   7
ATOM      7  N   UNL     1       1.424   8.780  19.531  0.00  0.00    +0.000 N 
ATOM      8  C   UNL     1       1.115   9.826  18.678  0.00  0.00    +0.000 C 
ATOM      9  O   UNL     1       1.496   9.952  17.519  0.00  0.00    +0.000 OA
ATOM     10  H   UNL     1       1.022   8.782  20.457  0.00  0.00    +0.000 HD
BRANCH   8  11
ATOM     11  C   UNL     1       0.242  10.872  19.274  0.00  0.00    +0.000 C 
ATOM     12  C   UNL     1       0.028  10.799  20.603  0.00  0.00    +0.000 C 
BRANCH  12  13
ATOM     13  C   UNL     1      -0.808  11.695  21.404  0.00  0.00    +0.000 A 
ATOM     14  C   UNL     1      -1.355  11.329  22.632  0.00  0.00    +0.000 A 
ATOM     15  C   UNL     1      -2.095  12.255  23.364  0.00  0.00    +0.000 A 
ATOM     16  C   UNL     1      -2.257  13.529  22.848  0.00  0.00    +0.000 A 
ATOM     17  N   UNL     1      -1.729  13.933  21.675  0.00  0.00    +0.000 NA
ATOM     18  C   UNL     1      -1.013  13.011  20.987  0.00  0.00    +0.000 A 
ENDBRANCH  12  13
ENDBRANCH   8  11
ENDBRANCH   4   7
BRANCH   1  19
ATOM     19  S   UNL     1       4.797   3.995  18.172  0.00  0.00    +0.000 S 
ATOM     20  O   UNL     1       3.844   2.929  17.939  0.00  0.00    +0.000 OA
ATOM     21  O   UNL     1       5.820   3.869  19.196  0.00  0.00    +0.000 OA
BRANCH  19  26
ATOM     22  C   UNL     1       7.736   5.052  12.942  0.00  0.00    +0.000 C 
ATOM     23  C   UNL     1       7.001   4.775  14.225  0.00  0.00    +0.000 A 
ATOM     24  C   UNL     1       7.579   5.151  15.448  0.00  0.00    +0.000 A 
ATOM     25  C   UNL     1       6.922   4.903  16.656  0.00  0.00    +0.000 A 
ATOM     26  C   UNL     1       5.675   4.276  16.646  0.00  0.00    +0.000 A 
ATOM     27  C   UNL     1       5.074   3.904  15.441  0.00  0.00    +0.000 A 
ATOM     28  C   UNL     1       5.741   4.151  14.238  0.00  0.00    +0.000 A 
ATOM     29 CL   UNL     1       4.962   3.664  12.775  0.00  0.00    +0.000 Cl
ENDBRANCH  19  26
ENDBRANCH   1  19
TORSDOF 5
ENDMDL
MODEL 5
REMARK VINA RESULT:      -8.0      0.462      1.021
REMARK  Name = 
REMARK  6 active torsions:
REMARK  status: ('A' for Active; 'I' for Inactive)
REMARK    1  A    between atoms: C_1  and  C_2
REMARK    2  A    between atoms: C_5  and  S_6
REMARK    3  A    between atoms: S_6  and  C_9
REMARK    4  A    between atoms: C_12  and  N_13
REMARK    5  A    between atoms: C_14  and  C_16
REMARK    6  A    between atoms: C_17  and  C_18
REMARK                            x       y       z     vdW  Elec       q    Type
REMARK                         _______ _______ _______ _____ _____    ______ ____
ROOT
ATOM      1  C   UNL     1       3.168   5.553  18.837  0.00  0.00    +0.000 A 
ATOM      2  C   UNL     1       3.202   6.656  17.995  0.00  0.00    +0.000 A 
ATOM      3  C   UNL     1       2.537   7.825  18.374  0.00  0.00    +0.000 A 
ATOM      4  C   UNL     1       1.827   7.913  19.578  0.00  0.00    +0.000 A 
ATOM      5  C   UNL     1       1.820   6.799  20.426  0.00  0.00    +0.000 A 
ATOM      6  C   UNL     1       2.493   5.622  20.061  0.00  0.00    +0.000 A 
ENDROOT
BRANCH   4   7
ATOM      7  N   UNL     1       1.113   9.079  19.965  0.00  0.00    +0.000 N 
ATOM      8  C   UNL     1       0.998   9.548  21.262  0.00  0.00    +0.000 C 
ATOM      9  O   UNL     1       1.499   9.045  22.262  0.00  0.00    +0.000 OA
ATOM     10  H   UNL     1       0.673   9.604  19.224  0.00  0.00    +0.000 HD
BRANCH   8  11
ATOM     11  C   UNL     1       0.174  10.778  21.403  0.00  0.00    +0.000 C 
ATOM     12  C   UNL     1      -0.512  10.920  22.554  0.00  0.00    +0.000 C 
BRANCH  12  13
ATOM     13  C   UNL     1      -1.403  12.026  22.909  0.00  0.00    +0.000 A 
ATOM     14  C   UNL     1      -2.703  11.837  23.375  0.00  0.00    +0.000 A 
ATOM     15  C   UNL     1      -3.473  12.936  23.745  0.00  0.00    +0.000 A 
ATOM     16  C   UNL     1      -2.913  14.199  23.651  0.00  0.00    +0.000 A 
ATOM     17  N   UNL     1      -1.654  14.428  23.227  0.00  0.00    +0.000 NA
ATOM     18  C   UNL     1      -0.929  13.339  22.875  0.00  0.00    +0.000 A 
ENDBRANCH  12  13
ENDBRANCH   8  11
ENDBRANCH   4   7
BRANCH   1  19
ATOM     19  S   UNL     1       3.982   4.047  18.362  0.00  0.00    +0.000 S 
ATOM     20  O   UNL     1       2.937   3.164  17.886  0.00  0.00    +0.000 OA
ATOM     21  O   UNL     1       4.837   3.659  19.470  0.00  0.00    +0.000 OA
BRANCH  19  26
ATOM     22  C   UNL     1       7.672   5.235  13.662  0.00  0.00    +0.000 C 
ATOM     23  C   UNL     1       6.754   4.925  14.813  0.00  0.00    +0.000 A 
ATOM     24  C   UNL     1       7.097   5.352  16.106  0.00  0.00    +0.000 A 
ATOM     25  C   UNL     1       6.266   5.075  17.195  0.00  0.00    +0.000 A 
ATOM     26  C   UNL     1       5.080   4.368  16.994  0.00  0.00    +0.000 A 
ATOM     27  C   UNL     1       4.711   3.944  15.715  0.00  0.00    +0.000 A 
ATOM     28  C   UNL     1       5.550   4.220  14.633  0.00  0.00    +0.000 A 
ATOM     29 CL   UNL     1       5.056   3.667  13.073  0.00  0.00    +0.000 Cl
ENDBRANCH  19  26
ENDBRANCH   1  19
TORSDOF 5
ENDMDL
MODEL 6
REMARK VINA RESULT:      -8.0      4.117     10.517
REMARK  Name = 
REMARK  6 active torsions:
REMARK  status: ('A' for Active; 'I' for Inactive)
REMARK    1  A    between atoms: C_1  and  C_2
REMARK    2  A    between atoms: C_5  and  S_6
REMARK    3  A    between atoms: S_6  and  C_9
REMARK    4  A    between atoms: C_12  and  N_13
REMARK    5  A    between atoms: C_14  and  C_16
REMARK    6  A    between atoms: C_17  and  C_18
REMARK                            x       y       z     vdW  Elec       q    Type
REMARK                         _______ _______ _______ _____ _____    ______ ____
ROOT
ATOM      1  C   UNL     1       1.510   8.196  20.320  0.00  0.00    +0.000 A 
ATOM      2  C   UNL     1       1.829   6.889  20.662  0.00  0.00    +0.000 A 
ATOM      3  C   UNL     1       2.538   6.099  19.756  0.00  0.00    +0.000 A 
ATOM      4  C   UNL     1       2.932   6.585  18.502  0.00  0.00    +0.000 A 
ATOM      5  C   UNL     1       2.622   7.912  18.180  0.00  0.00    +0.000 A 
ATOM      6  C   UNL     1       1.918   8.720  19.087  0.00  0.00    +0.000 A 
ENDROOT
BRANCH   4   7
ATOM      7  N   UNL     1       3.622   5.788  17.551  0.00  0.00    +0.000 N 
ATOM      8  C   UNL     1       4.663   4.923  17.840  0.00  0.00    +0.000 C 
ATOM      9  O   UNL     1       5.136   4.704  18.951  0.00  0.00    +0.000 OA
ATOM     10  H   UNL     1       3.308   5.856  16.594  0.00  0.00    +0.000 HD
BRANCH   8  11
ATOM     11  C   UNL     1       5.231   4.223  16.658  0.00  0.00    +0.000 C 
ATOM     12  C   UNL     1       5.443   4.967  15.556  0.00  0.00    +0.000 C 
BRANCH  12  13
ATOM     13  C   UNL     1       5.968   4.498  14.272  0.00  0.00    +0.000 A 
ATOM     14  C   UNL     1       5.274   3.621  13.441  0.00  0.00    +0.000 A 
ATOM     15  C   UNL     1       5.813   3.262  12.208  0.00  0.00    +0.000 A 
ATOM     16  C   UNL     1       7.032   3.804  11.835  0.00  0.00    +0.000 A 
ATOM     17  N   UNL     1       7.728   4.671  12.597  0.00  0.00    +0.000 NA
ATOM     18  C   UNL     1       7.178   5.003  13.790  0.00  0.00    +0.000 A 
ENDBRANCH  12  13
ENDBRANCH   8  11
ENDBRANCH   4   7
BRANCH   1  19
ATOM     19  S   UNL     1       0.583   9.210  21.446  0.00  0.00    +0.000 S 
ATOM     20  O   UNL     1       1.444   9.420  22.592  0.00  0.00    +0.000 OA
ATOM     21  O   UNL     1      -0.722   8.591  21.598  0.00  0.00    +0.000 OA
BRANCH  19  26
ATOM     22  C   UNL     1      -0.391  14.621  18.820  0.00  0.00    +0.000 C 
ATOM     23  C   UNL     1      -0.140  13.294  19.484  0.00  0.00    +0.000 A 
ATOM     24  C   UNL     1      -1.062  12.248  19.310  0.00  0.00    +0.000 A 
ATOM     25  C   UNL     1      -0.857  11.006  19.917  0.00  0.00    +0.000 A 
ATOM     26  C   UNL     1       0.278  10.802  20.703  0.00  0.00    +0.000 A 
ATOM     27  C   UNL     1       1.215  11.823  20.880  0.00  0.00    +0.000 A 
ATOM     28  C   UNL     1       1.000  13.063  20.274  0.00  0.00    +0.000 A 
ATOM     29 CL   UNL     1       2.182  14.296  20.530  0.00  0.00    +0.000 Cl
ENDBRANCH  19  26
ENDBRANCH   1  19
TORSDOF 5
ENDMDL
MODEL 7
REMARK VINA RESULT:      -8.0      3.998     10.518
REMARK  Name = 
REMARK  6 active torsions:
REMARK  status: ('A' for Active; 'I' for Inactive)
REMARK    1  A    between atoms: C_1  and  C_2
REMARK    2  A    between atoms: C_5  and  S_6
REMARK    3  A    between atoms: S_6  and  C_9
REMARK    4  A    between atoms: C_12  and  N_13
REMARK    5  A    between atoms: C_14  and  C_16
REMARK    6  A    between atoms: C_17  and  C_18
REMARK                            x       y       z     vdW  Elec       q    Type
REMARK                         _______ _______ _______ _____ _____    ______ ____
ROOT
ATOM      1  C   UNL     1       1.329   9.105  19.804  0.00  0.00    +0.000 A 
ATOM      2  C   UNL     1       1.644   7.849  20.305  0.00  0.00    +0.000 A 
ATOM      3  C   UNL     1       2.416   6.979  19.532  0.00  0.00    +0.000 A 
ATOM      4  C   UNL     1       2.876   7.334  18.257  0.00  0.00    +0.000 A 
ATOM      5  C   UNL     1       2.569   8.613  17.775  0.00  0.00    +0.000 A 
ATOM      6  C   UNL     1       1.802   9.500  18.547  0.00  0.00    +0.000 A 
ENDROOT
BRANCH   4   7
ATOM      7  N   UNL     1       3.630   6.452  17.439  0.00  0.00    +0.000 N 
ATOM      8  C   UNL     1       4.673   5.654  17.878  0.00  0.00    +0.000 C 
ATOM      9  O   UNL     1       5.092   5.576  19.028  0.00  0.00    +0.000 OA
ATOM     10  H   UNL     1       3.365   6.402  16.467  0.00  0.00    +0.000 HD
BRANCH   8  11
ATOM     11  C   UNL     1       5.316   4.838  16.814  0.00  0.00    +0.000 C 
ATOM     12  C   UNL     1       5.338   5.366  15.575  0.00  0.00    +0.000 C 
BRANCH  12  13
ATOM     13  C   UNL     1       5.891   4.744  14.369  0.00  0.00    +0.000 A 
ATOM     14  C   UNL     1       5.190   3.814  13.604  0.00  0.00    +0.000 A 
ATOM     15  C   UNL     1       5.760   3.306  12.439  0.00  0.00    +0.000 A 
ATOM     16  C   UNL     1       7.015   3.756  12.065  0.00  0.00    +0.000 A 
ATOM     17  N   UNL     1       7.720   4.670  12.763  0.00  0.00    +0.000 NA
ATOM     18  C   UNL     1       7.139   5.147  13.891  0.00  0.00    +0.000 A 
ENDBRANCH  12  13
ENDBRANCH   8  11
ENDBRANCH   4   7
BRANCH   1  19
ATOM     19  S   UNL     1       0.325  10.217  20.758  0.00  0.00    +0.000 S 
ATOM     20  O   UNL     1       1.151  11.380  21.012  0.00  0.00    +0.000 OA
ATOM     21  O   UNL     1      -0.236   9.448  21.855  0.00  0.00    +0.000 OA
BRANCH  19  26
ATOM     22  C   UNL     1      -4.500  11.958  17.470  0.00  0.00    +0.000 C 
ATOM     23  C   UNL     1      -3.299  11.521  18.265  0.00  0.00    +0.000 A 
ATOM     24  C   UNL     1      -2.982  12.187  19.461  0.00  0.00    +0.000 A 
ATOM     25  C   UNL     1      -1.870  11.806  20.218  0.00  0.00    +0.000 A 
ATOM     26  C   UNL     1      -1.068  10.750  19.782  0.00  0.00    +0.000 A 
ATOM     27  C   UNL     1      -1.372  10.065  18.603  0.00  0.00    +0.000 A 
ATOM     28  C   UNL     1      -2.481  10.456  17.849  0.00  0.00    +0.000 A 
ATOM     29 CL   UNL     1      -2.809   9.584  16.394  0.00  0.00    +0.000 Cl
ENDBRANCH  19  26
ENDBRANCH   1  19
TORSDOF 5
ENDMDL
MODEL 8
REMARK VINA RESULT:      -7.9      3.236      3.956
REMARK  Name = 
REMARK  6 active torsions:
REMARK  status: ('A' for Active; 'I' for Inactive)
REMARK    1  A    between atoms: C_1  and  C_2
REMARK    2  A    between atoms: C_5  and  S_6
REMARK    3  A    between atoms: S_6  and  C_9
REMARK    4  A    between atoms: C_12  and  N_13
REMARK    5  A    between atoms: C_14  and  C_16
REMARK    6  A    between atoms: C_17  and  C_18
REMARK                            x       y       z     vdW  Elec       q    Type
REMARK                         _______ _______ _______ _____ _____    ______ ____
ROOT
ATOM      1  C   UNL     1       2.155   7.090  19.065  0.00  0.00    +0.000 A 
ATOM      2  C   UNL     1       1.692   7.660  20.243  0.00  0.00    +0.000 A 
ATOM      3  C   UNL     1       1.237   8.980  20.232  0.00  0.00    +0.000 A 
ATOM      4  C   UNL     1       1.242   9.752  19.063  0.00  0.00    +0.000 A 
ATOM      5  C   UNL     1       1.691   9.157  17.877  0.00  0.00    +0.000 A 
ATOM      6  C   UNL     1       2.141   7.827  17.875  0.00  0.00    +0.000 A 
ENDROOT
BRANCH   4   7
ATOM      7  N   UNL     1       0.818  11.107  19.036  0.00  0.00    +0.000 N 
ATOM      8  C   UNL     1      -0.443  11.541  18.666  0.00  0.00    +0.000 C 
ATOM      9  O   UNL     1      -1.382  10.830  18.321  0.00  0.00    +0.000 OA
ATOM     10  H   UNL     1       1.496  11.797  19.326  0.00  0.00    +0.000 HD
BRANCH   8  11
ATOM     11  C   UNL     1      -0.624  13.016  18.699  0.00  0.00    +0.000 C 
ATOM     12  C   UNL     1       0.485  13.759  18.885  0.00  0.00    +0.000 C 
BRANCH  12  13
ATOM     13  C   UNL     1       0.554  15.219  18.978  0.00  0.00    +0.000 A 
ATOM     14  C   UNL     1       1.676  15.953  18.600  0.00  0.00    +0.000 A 
ATOM     15  C   UNL     1       1.648  17.344  18.665  0.00  0.00    +0.000 A 
ATOM     16  C   UNL     1       0.487  17.964  19.095  0.00  0.00    +0.000 A 
ATOM     17  N   UNL     1      -0.629  17.295  19.450  0.00  0.00    +0.000 NA
ATOM     18  C   UNL     1      -0.572  15.943  19.375  0.00  0.00    +0.000 A 
ENDBRANCH  12  13
ENDBRANCH   8  11
ENDBRANCH   4   7
BRANCH   1  19
ATOM     19  S   UNL     1       2.765   5.422  19.063  0.00  0.00    +0.000 S 
ATOM     20  O   UNL     1       1.659   4.595  18.625  0.00  0.00    +0.000 OA
ATOM     21  O   UNL     1       3.396   5.199  20.352  0.00  0.00    +0.000 OA
BRANCH  19  26
ATOM     22  C   UNL     1       7.272   4.815  15.009  0.00  0.00    +0.000 C 
ATOM     23  C   UNL     1       6.164   4.984  16.012  0.00  0.00    +0.000 A 
ATOM     24  C   UNL     1       5.029   4.159  15.937  0.00  0.00    +0.000 A 
ATOM     25  C   UNL     1       3.983   4.296  16.853  0.00  0.00    +0.000 A 
ATOM     26  C   UNL     1       4.067   5.264  17.855  0.00  0.00    +0.000 A 
ATOM     27  C   UNL     1       5.190   6.087  17.958  0.00  0.00    +0.000 A 
ATOM     28  C   UNL     1       6.230   5.947  17.035  0.00  0.00    +0.000 A 
ATOM     29 CL   UNL     1       7.593   6.995  17.198  0.00  0.00    +0.000 Cl
ENDBRANCH  19  26
ENDBRANCH   1  19
TORSDOF 5
ENDMDL
MODEL 9
REMARK VINA RESULT:      -7.9      3.973     10.451
REMARK  Name = 
REMARK  6 active torsions:
REMARK  status: ('A' for Active; 'I' for Inactive)
REMARK    1  A    between atoms: C_1  and  C_2
REMARK    2  A    between atoms: C_5  and  S_6
REMARK    3  A    between atoms: S_6  and  C_9
REMARK    4  A    between atoms: C_12  and  N_13
REMARK    5  A    between atoms: C_14  and  C_16
REMARK    6  A    between atoms: C_17  and  C_18
REMARK                            x       y       z     vdW  Elec       q    Type
REMARK                         _______ _______ _______ _____ _____    ______ ____
ROOT
ATOM      1  C   UNL     1       1.529   7.915  20.332  0.00  0.00    +0.000 A 
ATOM      2  C   UNL     1       1.787   6.581  20.614  0.00  0.00    +0.000 A 
ATOM      3  C   UNL     1       2.518   5.818  19.701  0.00  0.00    +0.000 A 
ATOM      4  C   UNL     1       2.994   6.360  18.500  0.00  0.00    +0.000 A 
ATOM      5  C   UNL     1       2.745   7.714  18.240  0.00  0.00    +0.000 A 
ATOM      6  C   UNL     1       2.019   8.493  19.155  0.00  0.00    +0.000 A 
ENDROOT
BRANCH   4   7
ATOM      7  N   UNL     1       3.708   5.594  17.540  0.00  0.00    +0.000 N 
ATOM      8  C   UNL     1       4.881   4.903  17.786  0.00  0.00    +0.000 C 
ATOM      9  O   UNL     1       5.471   4.833  18.859  0.00  0.00    +0.000 OA
ATOM     10  H   UNL     1       3.309   5.548  16.614  0.00  0.00    +0.000 HD
BRANCH   8  11
ATOM     11  C   UNL     1       5.442   4.198  16.603  0.00  0.00    +0.000 C 
ATOM     12  C   UNL     1       5.455   4.880  15.441  0.00  0.00    +0.000 C 
BRANCH  12  13
ATOM     13  C   UNL     1       5.932   4.391  14.145  0.00  0.00    +0.000 A 
ATOM     14  C   UNL     1       5.188   3.538  13.333  0.00  0.00    +0.000 A 
ATOM     15  C   UNL     1       5.685   3.159  12.088  0.00  0.00    +0.000 A 
ATOM     16  C   UNL     1       6.913   3.658  11.685  0.00  0.00    +0.000 A 
ATOM     17  N   UNL     1       7.657   4.501  12.429  0.00  0.00    +0.000 NA
ATOM     18  C   UNL     1       7.147   4.853  13.634  0.00  0.00    +0.000 A 
ENDBRANCH  12  13
ENDBRANCH   8  11
ENDBRANCH   4   7
BRANCH   1  19
ATOM     19  S   UNL     1       0.576   8.896  21.466  0.00  0.00    +0.000 S 
ATOM     20  O   UNL     1       1.445   9.153  22.597  0.00  0.00    +0.000 OA
ATOM     21  O   UNL     1      -0.697   8.220  21.645  0.00  0.00    +0.000 OA
BRANCH  19  26
ATOM     22  C   UNL     1      -0.836  14.276  18.982  0.00  0.00    +0.000 C 
ATOM     23  C   UNL     1      -0.493  12.938  19.579  0.00  0.00    +0.000 A 
ATOM     24  C   UNL     1       0.518  12.852  20.550  0.00  0.00    +0.000 A 
ATOM     25  C   UNL     1       0.860  11.622  21.118  0.00  0.00    +0.000 A 
ATOM     26  C   UNL     1       0.188  10.466  20.718  0.00  0.00    +0.000 A 
ATOM     27  C   UNL     1      -0.829  10.529  19.763  0.00  0.00    +0.000 A 
ATOM     28  C   UNL     1      -1.162  11.762  19.195  0.00  0.00    +0.000 A 
ATOM     29 CL   UNL     1      -2.420  11.786  18.012  0.00  0.00    +0.000 Cl
ENDBRANCH  19  26
ENDBRANCH   1  19
TORSDOF 5
ENDMDL
