MODEL 1
REMARK VINA RESULT:      -8.1      0.000      0.000
REMARK  Name = 
REMARK  5 active torsions:
REMARK  status: ('A' for Active; 'I' for Inactive)
REMARK    1  A    between atoms: C_1  and  O_2
REMARK    2  A    between atoms: O_2  and  C_3
REMARK    3  A    between atoms: C_7  and  C_8
REMARK    4  A    between atoms: N_20  and  C_21
REMARK    5  A    between atoms: C_21  and  C_22
REMARK                            x       y       z     vdW  Elec       q    Type
REMARK                         _______ _______ _______ _____ _____    ______ ____
ROOT
ATOM      1  C   UNL     1       2.176   7.007  19.865  0.00  0.00    +0.000 A 
ATOM      2  N   UNL     1       1.498   7.431  20.890  0.00  0.00    +0.000 NA
ATOM      3  C   UNL     1       0.951   8.668  20.737  0.00  0.00    +0.000 A 
ATOM      4  S   UNL     1      -0.019   9.391  21.949  0.00  0.00    +0.000 S 
ATOM      5  C   UNL     1      -0.289  10.775  20.992  0.00  0.00    +0.000 A 
ATOM      6  C   UNL     1       0.396  10.727  19.792  0.00  0.00    +0.000 A 
ATOM      7  C   UNL     1       1.066   9.483  19.632  0.00  0.00    +0.000 A 
ATOM      8  C   UNL     1       1.798   8.984  18.495  0.00  0.00    +0.000 A 
ATOM      9  O   UNL     1       1.937   9.582  17.434  0.00  0.00    +0.000 OA
ATOM     10  N   UNL     1       2.323   7.732  18.693  0.00  0.00    +0.000 N 
ATOM     11  C   UNL     1       0.315  11.850  18.807  0.00  0.00    +0.000 C 
ATOM     12  C   UNL     1      -0.358  13.083  19.450  0.00  0.00    +0.000 C 
ATOM     13  N   UNL     1      -1.563  12.779  20.264  0.00  0.00    +0.000 NA
ATOM     14  C   UNL     1      -1.171  11.919  21.419  0.00  0.00    +0.000 C 
ATOM     15  H   UNL     1       2.774   7.345  17.879  0.00  0.00    +0.000 HD
ENDROOT
BRANCH   1  20
ATOM     16  C   UNL     1       4.722   4.258  19.314  0.00  0.00    +0.000 A 
ATOM     17  C   UNL     1       3.999   3.150  19.761  0.00  0.00    +0.000 A 
ATOM     18  C   UNL     1       2.711   3.301  20.283  0.00  0.00    +0.000 A 
ATOM     19  C   UNL     1       2.125   4.564  20.338  0.00  0.00    +0.000 A 
ATOM     20  C   UNL     1       2.832   5.674  19.869  0.00  0.00    +0.000 A 
ATOM     21  C   UNL     1       4.143   5.523  19.388  0.00  0.00    +0.000 A 
BRANCH  16  23
ATOM     22  C   UNL     1       6.388   4.712  17.675  0.00  0.00    +0.000 C 
ATOM     23  O   UNL     1       5.968   3.981  18.823  0.00  0.00    +0.000 OA
ENDBRANCH  16  23
ENDBRANCH   1  20
BRANCH  13  24
ATOM     24  C   UNL     1      -2.638  12.121  19.489  0.00  0.00    +0.000 C 
BRANCH  24  25
ATOM     25  C   UNL     1      -4.047  12.526  19.873  0.00  0.00    +0.000 A 
ATOM     26  C   UNL     1      -5.149  12.011  19.171  0.00  0.00    +0.000 A 
ATOM     27  C   UNL     1      -6.451  12.363  19.529  0.00  0.00    +0.000 A 
ATOM     28  C   UNL     1      -6.670  13.227  20.598  0.00  0.00    +0.000 A 
ATOM     29  C   UNL     1      -5.584  13.743  21.308  0.00  0.00    +0.000 A 
ATOM     30  C   UNL     1      -4.281  13.395  20.947  0.00  0.00    +0.000 A 
ENDBRANCH  24  25
ENDBRANCH  13  24
TORSDOF 4
ENDMDL
MODEL 2
REMARK VINA RESULT:      -8.0      2.540      4.509
REMARK  Name = 
REMARK  5 active torsions:
REMARK  status: ('A' for Active; 'I' for Inactive)
REMARK    1  A    between atoms: C_1  and  O_2
REMARK    2  A    between atoms: O_2  and  C_3
REMARK    3  A    between atoms: C_7  and  C_8
REMARK    4  A    between atoms: N_20  and  C_21
REMARK    5  A    between atoms: C_21  and  C_22
REMARK                            x       y       z     vdW  Elec       q    Type
REMARK                         _______ _______ _______ _____ _____    ______ ____
ROOT
ATOM      1  C   UNL     1       2.233   7.014  19.984  0.00  0.00    +0.000 A 
ATOM      2  N   UNL     1       2.110   7.754  18.923  0.00  0.00    +0.000 NA
ATOM      3  C   UNL     1       1.481   8.944  19.130  0.00  0.00    +0.000 A 
ATOM      4  S   UNL     1       1.259  10.087  17.874  0.00  0.00    +0.000 S 
ATOM      5  C   UNL     1       0.497  11.187  18.929  0.00  0.00    +0.000 A 
ATOM      6  C   UNL     1       0.350  10.676  20.205  0.00  0.00    +0.000 A 
ATOM      7  C   UNL     1       0.969   9.402  20.324  0.00  0.00    +0.000 A 
ATOM      8  C   UNL     1       1.139   8.580  21.495  0.00  0.00    +0.000 A 
ATOM      9  O   UNL     1       0.777   8.886  22.625  0.00  0.00    +0.000 OA
ATOM     10  N   UNL     1       1.785   7.396  21.239  0.00  0.00    +0.000 N 
ATOM     11  C   UNL     1      -0.312  11.470  21.286  0.00  0.00    +0.000 C 
ATOM     12  C   UNL     1      -1.008  12.715  20.692  0.00  0.00    +0.000 C 
ATOM     13  N   UNL     1      -0.208  13.448  19.677  0.00  0.00    +0.000 NA
ATOM     14  C   UNL     1       0.033  12.556  18.505  0.00  0.00    +0.000 C 
ATOM     15  H   UNL     1       1.973   6.847  22.063  0.00  0.00    +0.000 HD
ENDROOT
BRANCH   1  20
ATOM     16  C   UNL     1       4.777   4.303  19.263  0.00  0.00    +0.000 A 
ATOM     17  C   UNL     1       4.082   3.178  19.712  0.00  0.00    +0.000 A 
ATOM     18  C   UNL     1       2.815   3.304  20.288  0.00  0.00    +0.000 A 
ATOM     19  C   UNL     1       2.222   4.560  20.398  0.00  0.00    +0.000 A 
ATOM     20  C   UNL     1       2.901   5.687  19.929  0.00  0.00    +0.000 A 
ATOM     21  C   UNL     1       4.192   5.561  19.392  0.00  0.00    +0.000 A 
BRANCH  16  23
ATOM     22  C   UNL     1       6.367   4.805  17.564  0.00  0.00    +0.000 C 
ATOM     23  O   UNL     1       6.005   4.050  18.715  0.00  0.00    +0.000 OA
ENDBRANCH  16  23
ENDBRANCH   1  20
BRANCH  13  24
ATOM     24  C   UNL     1       1.081  13.949  20.202  0.00  0.00    +0.000 C 
BRANCH  24  25
ATOM     25  C   UNL     1       1.860  14.837  19.252  0.00  0.00    +0.000 A 
ATOM     26  C   UNL     1       3.075  14.394  18.704  0.00  0.00    +0.000 A 
ATOM     27  C   UNL     1       3.790  15.196  17.813  0.00  0.00    +0.000 A 
ATOM     28  C   UNL     1       3.297  16.448  17.454  0.00  0.00    +0.000 A 
ATOM     29  C   UNL     1       2.089  16.899  17.988  0.00  0.00    +0.000 A 
ATOM     30  C   UNL     1       1.375  16.098  18.882  0.00  0.00    +0.000 A 
ENDBRANCH  24  25
ENDBRANCH  13  24
TORSDOF 4
ENDMDL
MODEL 3
REMARK VINA RESULT:      -8.0      1.107      1.489
REMARK  Name = 
REMARK  5 active torsions:
REMARK  status: ('A' for Active; 'I' for Inactive)
REMARK    1  A    between atoms: C_1  and  O_2
REMARK    2  A    between atoms: O_2  and  C_3
REMARK    3  A    between atoms: C_7  and  C_8
REMARK    4  A    between atoms: N_20  and  C_21
REMARK    5  A    between atoms: C_21  and  C_22
REMARK                            x       y       z     vdW  Elec       q    Type
REMARK                         _______ _______ _______ _____ _____    ______ ____
ROOT
ATOM      1  C   UNL     1       2.365   7.164  19.072  0.00  0.00    +0.000 A 
ATOM      2  N   UNL     1       1.829   7.337  20.243  0.00  0.00    +0.000 NA
ATOM      3  C   UNL     1       1.311   8.579  20.452  0.00  0.00    +0.000 A 
ATOM      4  S   UNL     1       0.517   9.001  21.910  0.00  0.00    +0.000 S 
ATOM      5  C   UNL     1       0.183  10.573  21.343  0.00  0.00    +0.000 A 
ATOM      6  C   UNL     1       0.719  10.805  20.090  0.00  0.00    +0.000 A 
ATOM      7  C   UNL     1       1.322   9.632  19.562  0.00  0.00    +0.000 A 
ATOM      8  C   UNL     1       1.896   9.410  18.260  0.00  0.00    +0.000 A 
ATOM      9  O   UNL     1       1.929  10.241  17.359  0.00  0.00    +0.000 OA
ATOM     10  N   UNL     1       2.398   8.144  18.093  0.00  0.00    +0.000 N 
ATOM     11  C   UNL     1       0.561  12.130  19.413  0.00  0.00    +0.000 C 
ATOM     12  C   UNL     1       0.011  13.180  20.403  0.00  0.00    +0.000 C 
ATOM     13  N   UNL     1      -1.098  12.699  21.266  0.00  0.00    +0.000 NA
ATOM     14  C   UNL     1      -0.602  11.588  22.131  0.00  0.00    +0.000 C 
ATOM     15  H   UNL     1       2.736   7.958  17.162  0.00  0.00    +0.000 HD
ENDROOT
BRANCH   1  20
ATOM     16  C   UNL     1       4.910   4.417  18.507  0.00  0.00    +0.000 A 
ATOM     17  C   UNL     1       4.125   3.479  17.833  0.00  0.00    +0.000 A 
ATOM     18  C   UNL     1       2.766   3.717  17.605  0.00  0.00    +0.000 A 
ATOM     19  C   UNL     1       2.187   4.910  18.031  0.00  0.00    +0.000 A 
ATOM     20  C   UNL     1       2.972   5.864  18.684  0.00  0.00    +0.000 A 
ATOM     21  C   UNL     1       4.325   5.601  18.950  0.00  0.00    +0.000 A 
BRANCH  16  23
ATOM     22  C   UNL     1       7.176   4.768  17.868  0.00  0.00    +0.000 C 
ATOM     23  O   UNL     1       6.224   4.071  18.665  0.00  0.00    +0.000 OA
ENDBRANCH  16  23
ENDBRANCH   1  20
BRANCH  13  24
ATOM     24  C   UNL     1      -2.280  12.249  20.497  0.00  0.00    +0.000 C 
BRANCH  24  25
ATOM     25  C   UNL     1      -3.619  12.649  21.084  0.00  0.00    +0.000 A 
ATOM     26  C   UNL     1      -3.707  13.081  22.418  0.00  0.00    +0.000 A 
ATOM     27  C   UNL     1      -4.931  13.469  22.963  0.00  0.00    +0.000 A 
ATOM     28  C   UNL     1      -6.083  13.439  22.180  0.00  0.00    +0.000 A 
ATOM     29  C   UNL     1      -6.009  13.015  20.852  0.00  0.00    +0.000 A 
ATOM     30  C   UNL     1      -4.785  12.622  20.308  0.00  0.00    +0.000 A 
ENDBRANCH  24  25
ENDBRANCH  13  24
TORSDOF 4
ENDMDL
MODEL 4
REMARK VINA RESULT:      -7.9      1.766      2.322
REMARK  Name = 
REMARK  5 active torsions:
REMARK  status: ('A' for Active; 'I' for Inactive)
REMARK    1  A    between atoms: C_1  and  O_2
REMARK    2  A    between atoms: O_2  and  C_3
REMARK    3  A    between atoms: C_7  and  C_8
REMARK    4  A    between atoms: N_20  and  C_21
REMARK    5  A    between atoms: C_21  and  C_22
REMARK                            x       y       z     vdW  Elec       q    Type
REMARK                         _______ _______ _______ _____ _____    ______ ____
ROOT
ATOM      1  C   UNL     1       2.353   7.473  18.619  0.00  0.00    +0.000 A 
ATOM      2  N   UNL     1       1.835   7.447  19.811  0.00  0.00    +0.000 NA
ATOM      3  C   UNL     1       1.347   8.642  20.244  0.00  0.00    +0.000 A 
ATOM      4  S   UNL     1       0.581   8.815  21.767  0.00  0.00    +0.000 S 
ATOM      5  C   UNL     1       0.275  10.469  21.491  0.00  0.00    +0.000 A 
ATOM      6  C   UNL     1       0.801  10.909  20.291  0.00  0.00    +0.000 A 
ATOM      7  C   UNL     1       1.371   9.835  19.554  0.00  0.00    +0.000 A 
ATOM      8  C   UNL     1       1.924   9.837  18.224  0.00  0.00    +0.000 A 
ATOM      9  O   UNL     1       1.964  10.813  17.483  0.00  0.00    +0.000 OA
ATOM     10  N   UNL     1       2.395   8.610  17.828  0.00  0.00    +0.000 N 
ATOM     11  C   UNL     1       0.663  12.335  19.860  0.00  0.00    +0.000 C 
ATOM     12  C   UNL     1       0.149  13.204  21.030  0.00  0.00    +0.000 C 
ATOM     13  N   UNL     1      -0.960  12.600  21.811  0.00  0.00    +0.000 NA
ATOM     14  C   UNL     1      -0.478  11.344  22.459  0.00  0.00    +0.000 C 
ATOM     15  H   UNL     1       2.717   8.585  16.874  0.00  0.00    +0.000 HD
ENDROOT
BRANCH   1  20
ATOM     16  C   UNL     1       2.767   3.889  17.467  0.00  0.00    +0.000 A 
ATOM     17  C   UNL     1       4.064   3.937  16.952  0.00  0.00    +0.000 A 
ATOM     18  C   UNL     1       4.781   5.136  16.935  0.00  0.00    +0.000 A 
ATOM     19  C   UNL     1       4.213   6.296  17.459  0.00  0.00    +0.000 A 
ATOM     20  C   UNL     1       2.925   6.250  17.999  0.00  0.00    +0.000 A 
ATOM     21  C   UNL     1       2.192   5.053  17.973  0.00  0.00    +0.000 A 
BRANCH  16  23
ATOM     22  C   UNL     1       2.115   1.931  18.655  0.00  0.00    +0.000 C 
ATOM     23  O   UNL     1       2.170   2.658  17.432  0.00  0.00    +0.000 OA
ENDBRANCH  16  23
ENDBRANCH   1  20
BRANCH  13  24
ATOM     24  C   UNL     1      -2.161  12.316  20.994  0.00  0.00    +0.000 C 
BRANCH  24  25
ATOM     25  C   UNL     1      -3.484  12.609  21.674  0.00  0.00    +0.000 A 
ATOM     26  C   UNL     1      -4.660  12.721  20.915  0.00  0.00    +0.000 A 
ATOM     27  C   UNL     1      -5.886  12.972  21.532  0.00  0.00    +0.000 A 
ATOM     28  C   UNL     1      -5.955  13.106  22.916  0.00  0.00    +0.000 A 
ATOM     29  C   UNL     1      -4.794  12.993  23.683  0.00  0.00    +0.000 A 
ATOM     30  C   UNL     1      -3.566  12.746  23.065  0.00  0.00    +0.000 A 
ENDBRANCH  24  25
ENDBRANCH  13  24
TORSDOF 4
ENDMDL
MODEL 5
REMARK VINA RESULT:      -7.9      1.570      2.288
REMARK  Name = 
REMARK  5 active torsions:
REMARK  status: ('A' for Active; 'I' for Inactive)
REMARK    1  A    between atoms: C_1  and  O_2
REMARK    2  A    between atoms: O_2  and  C_3
REMARK    3  A    between atoms: C_7  and  C_8
REMARK    4  A    between atoms: N_20  and  C_21
REMARK    5  A    between atoms: C_21  and  C_22
REMARK                            x       y       z     vdW  Elec       q    Type
REMARK                         _______ _______ _______ _____ _____    ______ ____
ROOT
ATOM      1  C   UNL     1       1.760   7.817  19.944  0.00  0.00    +0.000 A 
ATOM      2  N   UNL     1       1.167   7.912  21.097  0.00  0.00    +0.000 NA
ATOM      3  C   UNL     1       0.578   9.116  21.335  0.00  0.00    +0.000 A 
ATOM      4  S   UNL     1      -0.295   9.434  22.774  0.00  0.00    +0.000 S 
ATOM      5  C   UNL     1      -0.685  11.011  22.260  0.00  0.00    +0.000 A 
ATOM      6  C   UNL     1      -0.110  11.325  21.042  0.00  0.00    +0.000 A 
ATOM      7  C   UNL     1       0.573  10.207  20.492  0.00  0.00    +0.000 A 
ATOM      8  C   UNL     1       1.211  10.072  19.207  0.00  0.00    +0.000 A 
ATOM      9  O   UNL     1       1.239  10.942  18.345  0.00  0.00    +0.000 OA
ATOM     10  N   UNL     1       1.783   8.840  19.009  0.00  0.00    +0.000 N 
ATOM     11  C   UNL     1      -0.307  12.669  20.415  0.00  0.00    +0.000 C 
ATOM     12  C   UNL     1      -0.950  13.646  21.424  0.00  0.00    +0.000 C 
ATOM     13  N   UNL     1      -2.068  13.073  22.217  0.00  0.00    +0.000 NA
ATOM     14  C   UNL     1      -1.552  11.951  23.055  0.00  0.00    +0.000 C 
ATOM     15  H   UNL     1       2.168   8.712  18.087  0.00  0.00    +0.000 HD
ENDROOT
BRANCH   1  20
ATOM     16  C   UNL     1       2.997   4.238  19.924  0.00  0.00    +0.000 A 
ATOM     17  C   UNL     1       3.845   4.269  18.814  0.00  0.00    +0.000 A 
ATOM     18  C   UNL     1       3.977   5.432  18.049  0.00  0.00    +0.000 A 
ATOM     19  C   UNL     1       3.278   6.583  18.405  0.00  0.00    +0.000 A 
ATOM     20  C   UNL     1       2.447   6.567  19.529  0.00  0.00    +0.000 A 
ATOM     21  C   UNL     1       2.283   5.384  20.267  0.00  0.00    +0.000 A 
BRANCH  16  23
ATOM     22  C   UNL     1       2.045   2.944  21.681  0.00  0.00    +0.000 C 
ATOM     23  O   UNL     1       2.957   3.045  20.593  0.00  0.00    +0.000 OA
ENDBRANCH  16  23
ENDBRANCH   1  20
BRANCH  13  24
ATOM     24  C   UNL     1      -3.193  12.600  21.379  0.00  0.00    +0.000 C 
BRANCH  24  25
ATOM     25  C   UNL     1      -4.566  12.744  22.006  0.00  0.00    +0.000 A 
ATOM     26  C   UNL     1      -5.717  12.410  21.274  0.00  0.00    +0.000 A 
ATOM     27  C   UNL     1      -6.984  12.521  21.847  0.00  0.00    +0.000 A 
ATOM     28  C   UNL     1      -7.117  12.960  23.162  0.00  0.00    +0.000 A 
ATOM     29  C   UNL     1      -5.981  13.291  23.902  0.00  0.00    +0.000 A 
ATOM     30  C   UNL     1      -4.713  13.184  23.327  0.00  0.00    +0.000 A 
ENDBRANCH  24  25
ENDBRANCH  13  24
TORSDOF 4
ENDMDL
MODEL 6
REMARK VINA RESULT:      -7.9      0.927      1.731
REMARK  Name = 
REMARK  5 active torsions:
REMARK  status: ('A' for Active; 'I' for Inactive)
REMARK    1  A    between atoms: C_1  and  O_2
REMARK    2  A    between atoms: O_2  and  C_3
REMARK    3  A    between atoms: C_7  and  C_8
REMARK    4  A    between atoms: N_20  and  C_21
REMARK    5  A    between atoms: C_21  and  C_22
REMARK                            x       y       z     vdW  Elec       q    Type
REMARK                         _______ _______ _______ _____ _____    ______ ____
ROOT
ATOM      1  C   UNL     1       2.214   7.276  19.622  0.00  0.00    +0.000 A 
ATOM      2  N   UNL     1       1.533   7.607  20.678  0.00  0.00    +0.000 NA
ATOM      3  C   UNL     1       0.955   8.838  20.619  0.00  0.00    +0.000 A 
ATOM      4  S   UNL     1      -0.024   9.447  21.885  0.00  0.00    +0.000 S 
ATOM      5  C   UNL     1      -0.333  10.890  21.033  0.00  0.00    +0.000 A 
ATOM      6  C   UNL     1       0.346  10.947  19.830  0.00  0.00    +0.000 A 
ATOM      7  C   UNL     1       1.045   9.735  19.576  0.00  0.00    +0.000 A 
ATOM      8  C   UNL     1       1.781   9.339  18.403  0.00  0.00    +0.000 A 
ATOM      9  O   UNL     1       1.900  10.016  17.388  0.00  0.00    +0.000 OA
ATOM     10  N   UNL     1       2.337   8.089  18.506  0.00  0.00    +0.000 N 
ATOM     11  C   UNL     1       0.232  12.137  18.931  0.00  0.00    +0.000 C 
ATOM     12  C   UNL     1      -0.467  13.303  19.665  0.00  0.00    +0.000 C 
ATOM     13  N   UNL     1      -1.659  12.910  20.459  0.00  0.00    +0.000 NA
ATOM     14  C   UNL     1      -1.240  11.978  21.547  0.00  0.00    +0.000 C 
ATOM     15  H   UNL     1       2.793   7.773  17.664  0.00  0.00    +0.000 HD
ENDROOT
BRANCH   1  20
ATOM     16  C   UNL     1       3.163   3.666  20.259  0.00  0.00    +0.000 A 
ATOM     17  C   UNL     1       4.284   3.549  19.435  0.00  0.00    +0.000 A 
ATOM     18  C   UNL     1       4.701   4.621  18.641  0.00  0.00    +0.000 A 
ATOM     19  C   UNL     1       4.011   5.831  18.685  0.00  0.00    +0.000 A 
ATOM     20  C   UNL     1       2.903   5.963  19.526  0.00  0.00    +0.000 A 
ATOM     21  C   UNL     1       2.462   4.869  20.288  0.00  0.00    +0.000 A 
BRANCH  16  23
ATOM     22  C   UNL     1       1.605   2.541  21.665  0.00  0.00    +0.000 C 
ATOM     23  O   UNL     1       2.859   2.549  20.990  0.00  0.00    +0.000 OA
ENDBRANCH  16  23
ENDBRANCH   1  20
BRANCH  13  24
ATOM     24  C   UNL     1      -2.723  12.285  19.642  0.00  0.00    +0.000 C 
BRANCH  24  25
ATOM     25  C   UNL     1      -4.137  12.540  20.124  0.00  0.00    +0.000 A 
ATOM     26  C   UNL     1      -5.234  12.165  19.332  0.00  0.00    +0.000 A 
ATOM     27  C   UNL     1      -6.540  12.378  19.775  0.00  0.00    +0.000 A 
ATOM     28  C   UNL     1      -6.767  12.961  21.019  0.00  0.00    +0.000 A 
ATOM     29  C   UNL     1      -5.686  13.335  21.818  0.00  0.00    +0.000 A 
ATOM     30  C   UNL     1      -4.379  13.126  21.374  0.00  0.00    +0.000 A 
ENDBRANCH  24  25
ENDBRANCH  13  24
TORSDOF 4
ENDMDL
MODEL 7
REMARK VINA RESULT:      -7.8      2.810      4.816
REMARK  Name = 
REMARK  5 active torsions:
REMARK  status: ('A' for Active; 'I' for Inactive)
REMARK    1  A    between atoms: C_1  and  O_2
REMARK    2  A    between atoms: O_2  and  C_3
REMARK    3  A    between atoms: C_7  and  C_8
REMARK    4  A    between atoms: N_20  and  C_21
REMARK    5  A    between atoms: C_21  and  C_22
REMARK                            x       y       z     vdW  Elec       q    Type
REMARK                         _______ _______ _______ _____ _____    ______ ____
ROOT
ATOM      1  C   UNL     1       1.908   7.690  19.961  0.00  0.00    +0.000 A 
ATOM      2  N   UNL     1       1.592   8.485  18.982  0.00  0.00    +0.000 NA
ATOM      3  C   UNL     1       1.034   9.666  19.367  0.00  0.00    +0.000 A 
ATOM      4  S   UNL     1       0.589  10.873  18.237  0.00  0.00    +0.000 S 
ATOM      5  C   UNL     1       0.067  11.923  19.474  0.00  0.00    +0.000 A 
ATOM      6  C   UNL     1       0.164  11.348  20.727  0.00  0.00    +0.000 A 
ATOM      7  C   UNL     1       0.773  10.066  20.660  0.00  0.00    +0.000 A 
ATOM      8  C   UNL     1       1.156   9.183  21.732  0.00  0.00    +0.000 A 
ATOM      9  O   UNL     1       1.027   9.433  22.925  0.00  0.00    +0.000 OA
ATOM     10  N   UNL     1       1.721   8.010  21.297  0.00  0.00    +0.000 N 
ATOM     11  C   UNL     1      -0.261  12.089  21.955  0.00  0.00    +0.000 C 
ATOM     12  C   UNL     1      -1.039  13.367  21.571  0.00  0.00    +0.000 C 
ATOM     13  N   UNL     1      -0.442  14.146  20.456  0.00  0.00    +0.000 NA
ATOM     14  C   UNL     1      -0.449  13.314  19.217  0.00  0.00    +0.000 C 
ATOM     15  H   UNL     1       2.057   7.418  22.039  0.00  0.00    +0.000 HD
ENDROOT
BRANCH   1  20
ATOM     16  C   UNL     1       2.902   4.058  20.365  0.00  0.00    +0.000 A 
ATOM     17  C   UNL     1       3.805   3.924  19.308  0.00  0.00    +0.000 A 
ATOM     18  C   UNL     1       4.054   4.992  18.441  0.00  0.00    +0.000 A 
ATOM     19  C   UNL     1       3.416   6.214  18.641  0.00  0.00    +0.000 A 
ATOM     20  C   UNL     1       2.530   6.364  19.711  0.00  0.00    +0.000 A 
ATOM     21  C   UNL     1       2.250   5.275  20.552  0.00  0.00    +0.000 A 
BRANCH  16  23
ATOM     22  C   UNL     1       1.431   2.649  21.596  0.00  0.00    +0.000 C 
ATOM     23  O   UNL     1       2.748   2.945  21.144  0.00  0.00    +0.000 OA
ENDBRANCH  16  23
ENDBRANCH   1  20
BRANCH  13  24
ATOM     24  C   UNL     1       0.933  14.612  20.742  0.00  0.00    +0.000 C 
BRANCH  24  25
ATOM     25  C   UNL     1       1.635  15.293  19.584  0.00  0.00    +0.000 A 
ATOM     26  C   UNL     1       1.206  16.554  19.139  0.00  0.00    +0.000 A 
ATOM     27  C   UNL     1       1.856  17.199  18.086  0.00  0.00    +0.000 A 
ATOM     28  C   UNL     1       2.949  16.595  17.469  0.00  0.00    +0.000 A 
ATOM     29  C   UNL     1       3.388  15.344  17.903  0.00  0.00    +0.000 A 
ATOM     30  C   UNL     1       2.735  14.697  18.954  0.00  0.00    +0.000 A 
ENDBRANCH  24  25
ENDBRANCH  13  24
TORSDOF 4
ENDMDL
MODEL 8
REMARK VINA RESULT:      -7.8      1.577      1.761
REMARK  Name = 
REMARK  5 active torsions:
REMARK  status: ('A' for Active; 'I' for Inactive)
REMARK    1  A    between atoms: C_1  and  O_2
REMARK    2  A    between atoms: O_2  and  C_3
REMARK    3  A    between atoms: C_7  and  C_8
REMARK    4  A    between atoms: N_20  and  C_21
REMARK    5  A    between atoms: C_21  and  C_22
REMARK                            x       y       z     vdW  Elec       q    Type
REMARK                         _______ _______ _______ _____ _____    ______ ____
ROOT
ATOM      1  C   UNL     1       2.412   7.473  18.665  0.00  0.00    +0.000 A 
ATOM      2  N   UNL     1       1.875   7.465  19.849  0.00  0.00    +0.000 NA
ATOM      3  C   UNL     1       1.367   8.663  20.250  0.00  0.00    +0.000 A 
ATOM      4  S   UNL     1       0.574   8.857  21.755  0.00  0.00    +0.000 S 
ATOM      5  C   UNL     1       0.254  10.501  21.442  0.00  0.00    +0.000 A 
ATOM      6  C   UNL     1       0.794  10.923  20.241  0.00  0.00    +0.000 A 
ATOM      7  C   UNL     1       1.388   9.842  19.536  0.00  0.00    +0.000 A 
ATOM      8  C   UNL     1       1.963   9.823  18.215  0.00  0.00    +0.000 A 
ATOM      9  O   UNL     1       2.004  10.784  17.455  0.00  0.00    +0.000 OA
ATOM     10  N   UNL     1       2.454   8.595  17.852  0.00  0.00    +0.000 N 
ATOM     11  C   UNL     1       0.647  12.339  19.780  0.00  0.00    +0.000 C 
ATOM     12  C   UNL     1       0.105  13.225  20.923  0.00  0.00    +0.000 C 
ATOM     13  N   UNL     1      -1.010  12.624  21.699  0.00  0.00    +0.000 NA
ATOM     14  C   UNL     1      -0.524  11.387  22.379  0.00  0.00    +0.000 C 
ATOM     15  H   UNL     1       2.792   8.554  16.903  0.00  0.00    +0.000 HD
ENDROOT
BRANCH   1  20
ATOM     16  C   UNL     1       4.808   5.147  16.878  0.00  0.00    +0.000 A 
ATOM     17  C   UNL     1       4.056   3.970  16.865  0.00  0.00    +0.000 A 
ATOM     18  C   UNL     1       2.800   3.919  17.475  0.00  0.00    +0.000 A 
ATOM     19  C   UNL     1       2.273   5.057  18.083  0.00  0.00    +0.000 A 
ATOM     20  C   UNL     1       3.009   6.245  18.078  0.00  0.00    +0.000 A 
ATOM     21  C   UNL     1       4.290   6.279  17.504  0.00  0.00    +0.000 A 
BRANCH  16  23
ATOM     22  C   UNL     1       7.120   4.593  17.011  0.00  0.00    +0.000 C 
ATOM     23  O   UNL     1       6.019   5.072  16.246  0.00  0.00    +0.000 OA
ENDBRANCH  16  23
ENDBRANCH   1  20
BRANCH  13  24
ATOM     24  C   UNL     1      -2.194  12.309  20.869  0.00  0.00    +0.000 C 
BRANCH  24  25
ATOM     25  C   UNL     1      -3.531  12.598  21.522  0.00  0.00    +0.000 A 
ATOM     26  C   UNL     1      -4.705  12.626  20.751  0.00  0.00    +0.000 A 
ATOM     27  C   UNL     1      -5.943  12.872  21.344  0.00  0.00    +0.000 A 
ATOM     28  C   UNL     1      -6.027  13.085  22.718  0.00  0.00    +0.000 A 
ATOM     29  C   UNL     1      -4.869  13.056  23.497  0.00  0.00    +0.000 A 
ATOM     30  C   UNL     1      -3.629  12.814  22.902  0.00  0.00    +0.000 A 
ENDBRANCH  24  25
ENDBRANCH  13  24
TORSDOF 4
ENDMDL
MODEL 9
REMARK VINA RESULT:      -7.8      2.773      4.813
REMARK  Name = 
REMARK  5 active torsions:
REMARK  status: ('A' for Active; 'I' for Inactive)
REMARK    1  A    between atoms: C_1  and  O_2
REMARK    2  A    between atoms: O_2  and  C_3
REMARK    3  A    between atoms: C_7  and  C_8
REMARK    4  A    between atoms: N_20  and  C_21
REMARK    5  A    between atoms: C_21  and  C_22
REMARK                            x       y       z     vdW  Elec       q    Type
REMARK                         _______ _______ _______ _____ _____    ______ ____
ROOT
ATOM      1  C   UNL     1       2.284   7.071  19.646  0.00  0.00    +0.000 A 
ATOM      2  N   UNL     1       2.044   7.861  18.642  0.00  0.00    +0.000 NA
ATOM      3  C   UNL     1       1.446   9.037  18.975  0.00  0.00    +0.000 A 
ATOM      4  S   UNL     1       1.087  10.238  17.808  0.00  0.00    +0.000 S 
ATOM      5  C   UNL     1       0.452  11.285  18.993  0.00  0.00    +0.000 A 
ATOM      6  C   UNL     1       0.448  10.714  20.252  0.00  0.00    +0.000 A 
ATOM      7  C   UNL     1       1.072   9.437  20.240  0.00  0.00    +0.000 A 
ATOM      8  C   UNL     1       1.371   8.560  21.343  0.00  0.00    +0.000 A 
ATOM      9  O   UNL     1       1.139   8.812  22.520  0.00  0.00    +0.000 OA
ATOM     10  N   UNL     1       1.981   7.392  20.961  0.00  0.00    +0.000 N 
ATOM     11  C   UNL     1      -0.086  11.454  21.437  0.00  0.00    +0.000 C 
ATOM     12  C   UNL     1      -0.841  12.724  20.985  0.00  0.00    +0.000 C 
ATOM     13  N   UNL     1      -0.159  13.506  19.922  0.00  0.00    +0.000 NA
ATOM     14  C   UNL     1      -0.053  12.671  18.689  0.00  0.00    +0.000 C 
ATOM     15  H   UNL     1       2.259   6.805  21.731  0.00  0.00    +0.000 HD
ENDROOT
BRANCH   1  20
ATOM     16  C   UNL     1       2.786   3.338  19.259  0.00  0.00    +0.000 A 
ATOM     17  C   UNL     1       4.181   3.272  19.226  0.00  0.00    +0.000 A 
ATOM     18  C   UNL     1       4.952   4.436  19.281  0.00  0.00    +0.000 A 
ATOM     19  C   UNL     1       4.331   5.678  19.395  0.00  0.00    +0.000 A 
ATOM     20  C   UNL     1       2.937   5.751  19.454  0.00  0.00    +0.000 A 
ATOM     21  C   UNL     1       2.165   4.582  19.353  0.00  0.00    +0.000 A 
BRANCH  16  23
ATOM     22  C   UNL     1       0.761   2.149  18.867  0.00  0.00    +0.000 C 
ATOM     23  O   UNL     1       2.144   2.131  19.203  0.00  0.00    +0.000 OA
ENDBRANCH  16  23
ENDBRANCH   1  20
BRANCH  13  24
ATOM     24  C   UNL     1       1.183  13.985  20.322  0.00  0.00    +0.000 C 
BRANCH  24  25
ATOM     25  C   UNL     1       1.882  14.863  19.303  0.00  0.00    +0.000 A 
ATOM     26  C   UNL     1       1.364  16.129  18.985  0.00  0.00    +0.000 A 
ATOM     27  C   UNL     1       2.010  16.953  18.062  0.00  0.00    +0.000 A 
ATOM     28  C   UNL     1       3.186  16.526  17.451  0.00  0.00    +0.000 A 
ATOM     29  C   UNL     1       3.714  15.271  17.760  0.00  0.00    +0.000 A 
ATOM     30  C   UNL     1       3.065  14.445  18.680  0.00  0.00    +0.000 A 
ENDBRANCH  24  25
ENDBRANCH  13  24
TORSDOF 4
ENDMDL
