MODEL 1
REMARK VINA RESULT:      -8.0      0.000      0.000
REMARK  Name = 
REMARK  1 active torsions:
REMARK  status: ('A' for Active; 'I' for Inactive)
REMARK    1  A    between atoms: C_7  and  C_8
REMARK                            x       y       z     vdW  Elec       q    Type
REMARK                         _______ _______ _______ _____ _____    ______ ____
ROOT
ATOM      1  N   UNL     1       1.974   2.229  22.177  0.00  0.00    +0.000 N 
ATOM      2  C   UNL     1       1.913   2.909  21.031  0.00  0.00    +0.000 A 
ATOM      3  N   UNL     1       0.813   3.538  20.605  0.00  0.00    +0.000 NA
ATOM      4  N   UNL     1       1.178   4.089  19.426  0.00  0.00    +0.000 N 
ATOM      5  C   UNL     1       2.469   3.823  19.107  0.00  0.00    +0.000 A 
ATOM      6  C   UNL     1       3.169   4.249  17.963  0.00  0.00    +0.000 A 
ATOM      7  C   UNL     1       4.458   3.839  17.915  0.00  0.00    +0.000 A 
ATOM      8  N   UNL     1       5.018   3.057  18.924  0.00  0.00    +0.000 N 
ATOM      9  C   UNL     1       4.353   2.620  20.067  0.00  0.00    +0.000 A 
ATOM     10  O   UNL     1       4.901   1.935  20.924  0.00  0.00    +0.000 OA
ATOM     11  C   UNL     1       2.978   3.057  20.130  0.00  0.00    +0.000 A 
ATOM     12  H   UNL     1       1.168   2.183  22.788  0.00  0.00    +0.000 HD
ATOM     13  H   UNL     1       2.820   1.769  22.499  0.00  0.00    +0.000 HD
ATOM     14  H   UNL     1       0.487   4.626  18.915  0.00  0.00    +0.000 HD
ATOM     15  H   UNL     1       5.988   2.776  18.846  0.00  0.00    +0.000 HD
ENDROOT
BRANCH   7  16
ATOM     16  C   UNL     1       5.343   4.208  16.804  0.00  0.00    +0.000 A 
ATOM     17  C   UNL     1       6.656   4.624  17.062  0.00  0.00    +0.000 A 
ATOM     18  C   UNL     1       7.527   4.902  16.007  0.00  0.00    +0.000 A 
ATOM     19  C   UNL     1       7.087   4.783  14.689  0.00  0.00    +0.000 A 
ATOM     20  C   UNL     1       5.775   4.389  14.425  0.00  0.00    +0.000 A 
ATOM     21  C   UNL     1       4.906   4.098  15.479  0.00  0.00    +0.000 A 
ENDBRANCH   7  16
TORSDOF 1
ENDMDL
MODEL 2
REMARK VINA RESULT:      -7.8      0.380      1.227
REMARK  Name = 
REMARK  1 active torsions:
REMARK  status: ('A' for Active; 'I' for Inactive)
REMARK    1  A    between atoms: C_7  and  C_8
REMARK                            x       y       z     vdW  Elec       q    Type
REMARK                         _______ _______ _______ _____ _____    ______ ____
ROOT
ATOM      1  N   UNL     1       2.136   2.632  22.171  0.00  0.00    +0.000 N 
ATOM      2  C   UNL     1       2.120   3.345  21.043  0.00  0.00    +0.000 A 
ATOM      3  N   UNL     1       1.118   4.161  20.701  0.00  0.00    +0.000 NA
ATOM      4  N   UNL     1       1.497   4.677  19.512  0.00  0.00    +0.000 N 
ATOM      5  C   UNL     1       2.703   4.210  19.105  0.00  0.00    +0.000 A 
ATOM      6  C   UNL     1       3.394   4.547  17.926  0.00  0.00    +0.000 A 
ATOM      7  C   UNL     1       4.590   3.931  17.787  0.00  0.00    +0.000 A 
ATOM      8  N   UNL     1       5.072   3.038  18.742  0.00  0.00    +0.000 N 
ATOM      9  C   UNL     1       4.414   2.684  19.918  0.00  0.00    +0.000 A 
ATOM     10  O   UNL     1       4.892   1.893  20.725  0.00  0.00    +0.000 OA
ATOM     11  C   UNL     1       3.138   3.341  20.078  0.00  0.00    +0.000 A 
ATOM     12  H   UNL     1       1.373   2.703  22.831  0.00  0.00    +0.000 HD
ATOM     13  H   UNL     1       2.911   2.029  22.428  0.00  0.00    +0.000 HD
ATOM     14  H   UNL     1       0.876   5.336  19.056  0.00  0.00    +0.000 HD
ATOM     15  H   UNL     1       5.975   2.602  18.597  0.00  0.00    +0.000 HD
ENDROOT
BRANCH   7  16
ATOM     16  C   UNL     1       5.455   4.181  16.628  0.00  0.00    +0.000 A 
ATOM     17  C   UNL     1       4.990   3.907  15.334  0.00  0.00    +0.000 A 
ATOM     18  C   UNL     1       5.778   4.214  14.223  0.00  0.00    +0.000 A 
ATOM     19  C   UNL     1       7.040   4.781  14.397  0.00  0.00    +0.000 A 
ATOM     20  C   UNL     1       7.518   5.038  15.682  0.00  0.00    +0.000 A 
ATOM     21  C   UNL     1       6.727   4.742  16.796  0.00  0.00    +0.000 A 
ENDBRANCH   7  16
TORSDOF 1
ENDMDL
MODEL 3
REMARK VINA RESULT:      -7.6      3.283      6.138
REMARK  Name = 
REMARK  1 active torsions:
REMARK  status: ('A' for Active; 'I' for Inactive)
REMARK    1  A    between atoms: C_7  and  C_8
REMARK                            x       y       z     vdW  Elec       q    Type
REMARK                         _______ _______ _______ _____ _____    ______ ____
ROOT
ATOM      1  N   UNL     1       7.906   7.489  16.792  0.00  0.00    +0.000 N 
ATOM      2  C   UNL     1       7.449   6.700  17.766  0.00  0.00    +0.000 A 
ATOM      3  N   UNL     1       8.174   6.354  18.835  0.00  0.00    +0.000 NA
ATOM      4  N   UNL     1       7.349   5.564  19.557  0.00  0.00    +0.000 N 
ATOM      5  C   UNL     1       6.136   5.409  18.972  0.00  0.00    +0.000 A 
ATOM      6  C   UNL     1       5.045   4.664  19.456  0.00  0.00    +0.000 A 
ATOM      7  C   UNL     1       3.950   4.699  18.662  0.00  0.00    +0.000 A 
ATOM      8  N   UNL     1       3.933   5.416  17.467  0.00  0.00    +0.000 N 
ATOM      9  C   UNL     1       4.995   6.162  16.960  0.00  0.00    +0.000 A 
ATOM     10  O   UNL     1       4.919   6.776  15.901  0.00  0.00    +0.000 OA
ATOM     11  C   UNL     1       6.166   6.135  17.804  0.00  0.00    +0.000 A 
ATOM     12  H   UNL     1       8.839   7.877  16.844  0.00  0.00    +0.000 HD
ATOM     13  H   UNL     1       7.341   7.759  15.993  0.00  0.00    +0.000 HD
ATOM     14  H   UNL     1       7.696   5.180  20.429  0.00  0.00    +0.000 HD
ATOM     15  H   UNL     1       3.090   5.415  16.905  0.00  0.00    +0.000 HD
ENDROOT
BRANCH   7  16
ATOM     16  C   UNL     1       2.714   3.996  19.022  0.00  0.00    +0.000 A 
ATOM     17  C   UNL     1       2.197   3.007  18.174  0.00  0.00    +0.000 A 
ATOM     18  C   UNL     1       1.064   2.280  18.548  0.00  0.00    +0.000 A 
ATOM     19  C   UNL     1       0.433   2.548  19.762  0.00  0.00    +0.000 A 
ATOM     20  C   UNL     1       0.929   3.545  20.602  0.00  0.00    +0.000 A 
ATOM     21  C   UNL     1       2.069   4.265  20.236  0.00  0.00    +0.000 A 
ENDBRANCH   7  16
TORSDOF 1
ENDMDL
MODEL 4
REMARK VINA RESULT:      -7.5      3.246      6.070
REMARK  Name = 
REMARK  1 active torsions:
REMARK  status: ('A' for Active; 'I' for Inactive)
REMARK    1  A    between atoms: C_7  and  C_8
REMARK                            x       y       z     vdW  Elec       q    Type
REMARK                         _______ _______ _______ _____ _____    ______ ____
ROOT
ATOM      1  N   UNL     1       7.879   7.527  16.805  0.00  0.00    +0.000 N 
ATOM      2  C   UNL     1       7.458   6.730  17.788  0.00  0.00    +0.000 A 
ATOM      3  N   UNL     1       8.208   6.407  18.847  0.00  0.00    +0.000 NA
ATOM      4  N   UNL     1       7.415   5.598  19.584  0.00  0.00    +0.000 N 
ATOM      5  C   UNL     1       6.197   5.410  19.019  0.00  0.00    +0.000 A 
ATOM      6  C   UNL     1       5.133   4.639  19.523  0.00  0.00    +0.000 A 
ATOM      7  C   UNL     1       4.026   4.644  18.746  0.00  0.00    +0.000 A 
ATOM      8  N   UNL     1       3.971   5.355  17.549  0.00  0.00    +0.000 N 
ATOM      9  C   UNL     1       5.005   6.127  17.023  0.00  0.00    +0.000 A 
ATOM     10  O   UNL     1       4.897   6.735  15.963  0.00  0.00    +0.000 OA
ATOM     11  C   UNL     1       6.190   6.132  17.848  0.00  0.00    +0.000 A 
ATOM     12  H   UNL     1       8.802   7.939  16.840  0.00  0.00    +0.000 HD
ATOM     13  H   UNL     1       7.294   7.780  16.014  0.00  0.00    +0.000 HD
ATOM     14  H   UNL     1       7.785   5.226  20.451  0.00  0.00    +0.000 HD
ATOM     15  H   UNL     1       3.120   5.331  17.001  0.00  0.00    +0.000 HD
ENDROOT
BRANCH   7  16
ATOM     16  C   UNL     1       2.813   3.910  19.128  0.00  0.00    +0.000 A 
ATOM     17  C   UNL     1       2.298   4.035  20.426  0.00  0.00    +0.000 A 
ATOM     18  C   UNL     1       1.103   3.402  20.773  0.00  0.00    +0.000 A 
ATOM     19  C   UNL     1       0.424   2.628  19.832  0.00  0.00    +0.000 A 
ATOM     20  C   UNL     1       0.941   2.483  18.545  0.00  0.00    +0.000 A 
ATOM     21  C   UNL     1       2.131   3.125  18.191  0.00  0.00    +0.000 A 
ENDBRANCH   7  16
TORSDOF 1
ENDMDL
MODEL 5
REMARK VINA RESULT:      -7.4      2.692      6.104
REMARK  Name = 
REMARK  1 active torsions:
REMARK  status: ('A' for Active; 'I' for Inactive)
REMARK    1  A    between atoms: C_7  and  C_8
REMARK                            x       y       z     vdW  Elec       q    Type
REMARK                         _______ _______ _______ _____ _____    ______ ____
ROOT
ATOM      1  N   UNL     1       7.568   5.552  14.832  0.00  0.00    +0.000 N 
ATOM      2  C   UNL     1       7.119   5.794  16.065  0.00  0.00    +0.000 A 
ATOM      3  N   UNL     1       7.612   6.755  16.853  0.00  0.00    +0.000 NA
ATOM      4  N   UNL     1       6.887   6.660  17.989  0.00  0.00    +0.000 N 
ATOM      5  C   UNL     1       5.959   5.674  17.932  0.00  0.00    +0.000 A 
ATOM      6  C   UNL     1       5.036   5.313  18.930  0.00  0.00    +0.000 A 
ATOM      7  C   UNL     1       4.217   4.291  18.588  0.00  0.00    +0.000 A 
ATOM      8  N   UNL     1       4.306   3.663  17.348  0.00  0.00    +0.000 N 
ATOM      9  C   UNL     1       5.207   3.996  16.339  0.00  0.00    +0.000 A 
ATOM     10  O   UNL     1       5.235   3.408  15.263  0.00  0.00    +0.000 OA
ATOM     11  C   UNL     1       6.081   5.089  16.693  0.00  0.00    +0.000 A 
ATOM     12  H   UNL     1       8.309   6.117  14.437  0.00  0.00    +0.000 HD
ATOM     13  H   UNL     1       7.174   4.831  14.236  0.00  0.00    +0.000 HD
ATOM     14  H   UNL     1       7.093   7.306  18.743  0.00  0.00    +0.000 HD
ATOM     15  H   UNL     1       3.670   2.904  17.135  0.00  0.00    +0.000 HD
ENDROOT
BRANCH   7  16
ATOM     16  C   UNL     1       3.179   3.797  19.501  0.00  0.00    +0.000 A 
ATOM     17  C   UNL     1       3.522   2.935  20.551  0.00  0.00    +0.000 A 
ATOM     18  C   UNL     1       2.553   2.523  21.469  0.00  0.00    +0.000 A 
ATOM     19  C   UNL     1       1.235   2.957  21.334  0.00  0.00    +0.000 A 
ATOM     20  C   UNL     1       0.882   3.799  20.279  0.00  0.00    +0.000 A 
ATOM     21  C   UNL     1       1.852   4.222  19.367  0.00  0.00    +0.000 A 
ENDBRANCH   7  16
TORSDOF 1
ENDMDL
MODEL 6
REMARK VINA RESULT:      -7.4      2.676      6.172
REMARK  Name = 
REMARK  1 active torsions:
REMARK  status: ('A' for Active; 'I' for Inactive)
REMARK    1  A    between atoms: C_7  and  C_8
REMARK                            x       y       z     vdW  Elec       q    Type
REMARK                         _______ _______ _______ _____ _____    ______ ____
ROOT
ATOM      1  N   UNL     1       7.623   5.379  14.824  0.00  0.00    +0.000 N 
ATOM      2  C   UNL     1       7.150   5.712  16.026  0.00  0.00    +0.000 A 
ATOM      3  N   UNL     1       7.609   6.747  16.737  0.00  0.00    +0.000 NA
ATOM      4  N   UNL     1       6.870   6.728  17.869  0.00  0.00    +0.000 N 
ATOM      5  C   UNL     1       5.968   5.717  17.883  0.00  0.00    +0.000 A 
ATOM      6  C   UNL     1       5.040   5.416  18.897  0.00  0.00    +0.000 A 
ATOM      7  C   UNL     1       4.252   4.348  18.632  0.00  0.00    +0.000 A 
ATOM      8  N   UNL     1       4.374   3.621  17.449  0.00  0.00    +0.000 N 
ATOM      9  C   UNL     1       5.281   3.893  16.427  0.00  0.00    +0.000 A 
ATOM     10  O   UNL     1       5.338   3.218  15.404  0.00  0.00    +0.000 OA
ATOM     11  C   UNL     1       6.122   5.034  16.698  0.00  0.00    +0.000 A 
ATOM     12  H   UNL     1       8.354   5.929  14.391  0.00  0.00    +0.000 HD
ATOM     13  H   UNL     1       7.256   4.601  14.285  0.00  0.00    +0.000 HD
ATOM     14  H   UNL     1       7.049   7.440  18.568  0.00  0.00    +0.000 HD
ATOM     15  H   UNL     1       3.761   2.830  17.293  0.00  0.00    +0.000 HD
ENDROOT
BRANCH   7  16
ATOM     16  C   UNL     1       3.215   3.904  19.570  0.00  0.00    +0.000 A 
ATOM     17  C   UNL     1       1.894   4.347  19.415  0.00  0.00    +0.000 A 
ATOM     18  C   UNL     1       0.888   3.869  20.257  0.00  0.00    +0.000 A 
ATOM     19  C   UNL     1       1.197   2.958  21.266  0.00  0.00    +0.000 A 
ATOM     20  C   UNL     1       2.512   2.528  21.440  0.00  0.00    +0.000 A 
ATOM     21  C   UNL     1       3.519   2.996  20.592  0.00  0.00    +0.000 A 
ENDBRANCH   7  16
TORSDOF 1
ENDMDL
MODEL 7
REMARK VINA RESULT:      -7.4      3.264      6.344
REMARK  Name = 
REMARK  1 active torsions:
REMARK  status: ('A' for Active; 'I' for Inactive)
REMARK    1  A    between atoms: C_7  and  C_8
REMARK                            x       y       z     vdW  Elec       q    Type
REMARK                         _______ _______ _______ _____ _____    ______ ____
ROOT
ATOM      1  N   UNL     1       8.010   5.754  14.235  0.00  0.00    +0.000 N 
ATOM      2  C   UNL     1       7.009   4.942  14.580  0.00  0.00    +0.000 A 
ATOM      3  N   UNL     1       6.725   3.806  13.933  0.00  0.00    +0.000 NA
ATOM      4  N   UNL     1       5.661   3.302  14.595  0.00  0.00    +0.000 N 
ATOM      5  C   UNL     1       5.275   4.086  15.632  0.00  0.00    +0.000 A 
ATOM      6  C   UNL     1       4.216   3.853  16.528  0.00  0.00    +0.000 A 
ATOM      7  C   UNL     1       4.070   4.807  17.477  0.00  0.00    +0.000 A 
ATOM      8  N   UNL     1       4.908   5.918  17.535  0.00  0.00    +0.000 N 
ATOM      9  C   UNL     1       5.964   6.178  16.664  0.00  0.00    +0.000 A 
ATOM     10  O   UNL     1       6.671   7.175  16.768  0.00  0.00    +0.000 OA
ATOM     11  C   UNL     1       6.131   5.163  15.651  0.00  0.00    +0.000 A 
ATOM     12  H   UNL     1       8.617   5.518  13.461  0.00  0.00    +0.000 HD
ATOM     13  H   UNL     1       8.227   6.605  14.745  0.00  0.00    +0.000 HD
ATOM     14  H   UNL     1       5.269   2.424  14.272  0.00  0.00    +0.000 HD
ATOM     15  H   UNL     1       4.763   6.606  18.265  0.00  0.00    +0.000 HD
ENDROOT
BRANCH   7  16
ATOM     16  C   UNL     1       3.030   4.715  18.508  0.00  0.00    +0.000 A 
ATOM     17  C   UNL     1       2.037   3.730  18.416  0.00  0.00    +0.000 A 
ATOM     18  C   UNL     1       1.090   3.588  19.432  0.00  0.00    +0.000 A 
ATOM     19  C   UNL     1       1.119   4.438  20.537  0.00  0.00    +0.000 A 
ATOM     20  C   UNL     1       2.092   5.434  20.626  0.00  0.00    +0.000 A 
ATOM     21  C   UNL     1       3.048   5.571  19.616  0.00  0.00    +0.000 A 
ENDBRANCH   7  16
TORSDOF 1
ENDMDL
MODEL 8
REMARK VINA RESULT:      -7.4      3.287      6.328
REMARK  Name = 
REMARK  1 active torsions:
REMARK  status: ('A' for Active; 'I' for Inactive)
REMARK    1  A    between atoms: C_7  and  C_8
REMARK                            x       y       z     vdW  Elec       q    Type
REMARK                         _______ _______ _______ _____ _____    ______ ____
ROOT
ATOM      1  N   UNL     1       8.201   5.611  13.796  0.00  0.00    +0.000 N 
ATOM      2  C   UNL     1       7.144   4.911  14.211  0.00  0.00    +0.000 A 
ATOM      3  N   UNL     1       6.579   3.936  13.492  0.00  0.00    +0.000 NA
ATOM      4  N   UNL     1       5.561   3.498  14.265  0.00  0.00    +0.000 N 
ATOM      5  C   UNL     1       5.477   4.167  15.441  0.00  0.00    +0.000 A 
ATOM      6  C   UNL     1       4.547   3.960  16.476  0.00  0.00    +0.000 A 
ATOM      7  C   UNL     1       4.711   4.773  17.544  0.00  0.00    +0.000 A 
ATOM      8  N   UNL     1       5.722   5.732  17.588  0.00  0.00    +0.000 N 
ATOM      9  C   UNL     1       6.658   5.962  16.582  0.00  0.00    +0.000 A 
ATOM     10  O   UNL     1       7.528   6.821  16.679  0.00  0.00    +0.000 OA
ATOM     11  C   UNL     1       6.493   5.095  15.440  0.00  0.00    +0.000 A 
ATOM     12  H   UNL     1       8.632   5.408  12.904  0.00  0.00    +0.000 HD
ATOM     13  H   UNL     1       8.634   6.338  14.358  0.00  0.00    +0.000 HD
ATOM     14  H   UNL     1       4.983   2.743  13.912  0.00  0.00    +0.000 HD
ATOM     15  H   UNL     1       5.808   6.318  18.409  0.00  0.00    +0.000 HD
ENDROOT
BRANCH   7  16
ATOM     16  C   UNL     1       3.843   4.682  18.724  0.00  0.00    +0.000 A 
ATOM     17  C   UNL     1       3.067   5.783  19.110  0.00  0.00    +0.000 A 
ATOM     18  C   UNL     1       2.181   5.678  20.184  0.00  0.00    +0.000 A 
ATOM     19  C   UNL     1       2.077   4.478  20.888  0.00  0.00    +0.000 A 
ATOM     20  C   UNL     1       2.861   3.384  20.522  0.00  0.00    +0.000 A 
ATOM     21  C   UNL     1       3.740   3.483  19.440  0.00  0.00    +0.000 A 
ENDBRANCH   7  16
TORSDOF 1
ENDMDL
MODEL 9
REMARK VINA RESULT:      -7.3      2.908      6.194
REMARK  Name = 
REMARK  1 active torsions:
REMARK  status: ('A' for Active; 'I' for Inactive)
REMARK    1  A    between atoms: C_7  and  C_8
REMARK                            x       y       z     vdW  Elec       q    Type
REMARK                         _______ _______ _______ _____ _____    ______ ____
ROOT
ATOM      1  N   UNL     1       7.791   5.534  14.665  0.00  0.00    +0.000 N 
ATOM      2  C   UNL     1       7.166   5.866  15.796  0.00  0.00    +0.000 A 
ATOM      3  N   UNL     1       7.541   6.888  16.572  0.00  0.00    +0.000 NA
ATOM      4  N   UNL     1       6.656   6.875  17.593  0.00  0.00    +0.000 N 
ATOM      5  C   UNL     1       5.743   5.879  17.475  0.00  0.00    +0.000 A 
ATOM      6  C   UNL     1       4.681   5.588  18.352  0.00  0.00    +0.000 A 
ATOM      7  C   UNL     1       3.919   4.537  17.972  0.00  0.00    +0.000 A 
ATOM      8  N   UNL     1       4.187   3.817  16.810  0.00  0.00    +0.000 N 
ATOM      9  C   UNL     1       5.228   4.079  15.922  0.00  0.00    +0.000 A 
ATOM     10  O   UNL     1       5.412   3.411  14.910  0.00  0.00    +0.000 OA
ATOM     11  C   UNL     1       6.045   5.203  16.316  0.00  0.00    +0.000 A 
ATOM     12  H   UNL     1       8.583   6.074  14.341  0.00  0.00    +0.000 HD
ATOM     13  H   UNL     1       7.487   4.767  14.074  0.00  0.00    +0.000 HD
ATOM     14  H   UNL     1       6.750   7.577  18.318  0.00  0.00    +0.000 HD
ATOM     15  H   UNL     1       3.587   3.038  16.564  0.00  0.00    +0.000 HD
ENDROOT
BRANCH   7  16
ATOM     16  C   UNL     1       2.756   4.105  18.757  0.00  0.00    +0.000 A 
ATOM     17  C   UNL     1       1.903   3.111  18.258  0.00  0.00    +0.000 A 
ATOM     18  C   UNL     1       0.841   2.641  19.032  0.00  0.00    +0.000 A 
ATOM     19  C   UNL     1       0.614   3.172  20.302  0.00  0.00    +0.000 A 
ATOM     20  C   UNL     1       1.446   4.176  20.797  0.00  0.00    +0.000 A 
ATOM     21  C   UNL     1       2.517   4.640  20.029  0.00  0.00    +0.000 A 
ENDBRANCH   7  16
TORSDOF 1
ENDMDL
