MODEL 1
REMARK VINA RESULT:      -7.3      0.000      0.000
REMARK  Name = 
REMARK  8 active torsions:
REMARK  status: ('A' for Active; 'I' for Inactive)
REMARK    1  A    between atoms: C_1  and  C_2
REMARK    2  A    between atoms: C_2  and  N_3
REMARK    3  A    between atoms: C_8  and  C_9
REMARK    4  A    between atoms: N_11  and  C_12
REMARK    5  A    between atoms: C_14  and  C_15
REMARK    6  A    between atoms: C_15  and  C_16
REMARK    7  A    between atoms: C_16  and  C_17
REMARK    8  A    between atoms: C_16  and  C_18
REMARK                            x       y       z     vdW  Elec       q    Type
REMARK                         _______ _______ _______ _____ _____    ______ ____
ROOT
ATOM      1  C   UNL     1       5.437   4.437  18.759  0.00  0.00    +0.000 C 
ATOM      2  O   UNL     1       5.239   3.431  19.435  0.00  0.00    +0.000 OA
ATOM      3  N   UNL     1       4.632   5.577  18.858  0.00  0.00    +0.000 N 
ATOM      4  H   UNL     1       4.896   6.407  18.344  0.00  0.00    +0.000 HD
ENDROOT
BRANCH   1  10
ATOM      5  N   UNL     1       6.314   5.550  16.592  0.00  0.00    +0.000 NA
ATOM      6  C   UNL     1       6.316   6.953  17.024  0.00  0.00    +0.000 C 
ATOM      7  C   UNL     1       7.624   7.319  17.726  0.00  0.00    +0.000 C 
ATOM      8  C   UNL     1       7.922   6.372  18.878  0.00  0.00    +0.000 C 
ATOM      9  C   UNL     1       7.899   4.928  18.388  0.00  0.00    +0.000 C 
ATOM     10  C   UNL     1       6.567   4.583  17.697  0.00  0.00    +0.000 C 
BRANCH   5  12
ATOM     11  C   UNL     1       5.511   4.230  14.650  0.00  0.00    +0.000 C 
ATOM     12  C   UNL     1       5.148   5.206  15.772  0.00  0.00    +0.000 C 
ENDBRANCH   5  12
ENDBRANCH   1  10
BRANCH   3  13
ATOM     13  C   UNL     1       3.501   5.658  19.735  0.00  0.00    +0.000 C 
ATOM     14  C   UNL     1       2.391   6.614  19.408  0.00  0.00    +0.000 C 
ATOM     15  C   UNL     1       2.129   5.132  19.343  0.00  0.00    +0.000 C 
BRANCH  15  16
ATOM     16  C   UNL     1       1.171   4.567  20.365  0.00  0.00    +0.000 C 
BRANCH  16  17
ATOM     17  C   UNL     1       1.176   3.032  20.469  0.00  0.00    +0.000 C 
ATOM     18  C   UNL     1       1.596   2.358  19.165  0.00  0.00    +0.000 C 
ATOM     19  C   UNL     1       2.116   2.592  21.598  0.00  0.00    +0.000 C 
ENDBRANCH  16  17
ENDBRANCH  15  16
ENDBRANCH   3  13
TORSDOF 5
ENDMDL
MODEL 2
REMARK VINA RESULT:      -7.2      2.418      6.602
REMARK  Name = 
REMARK  8 active torsions:
REMARK  status: ('A' for Active; 'I' for Inactive)
REMARK    1  A    between atoms: C_1  and  C_2
REMARK    2  A    between atoms: C_2  and  N_3
REMARK    3  A    between atoms: C_8  and  C_9
REMARK    4  A    between atoms: N_11  and  C_12
REMARK    5  A    between atoms: C_14  and  C_15
REMARK    6  A    between atoms: C_15  and  C_16
REMARK    7  A    between atoms: C_16  and  C_17
REMARK    8  A    between atoms: C_16  and  C_18
REMARK                            x       y       z     vdW  Elec       q    Type
REMARK                         _______ _______ _______ _____ _____    ______ ____
ROOT
ATOM      1  C   UNL     1       4.279   4.548  17.388  0.00  0.00    +0.000 C 
ATOM      2  O   UNL     1       3.876   5.692  17.191  0.00  0.00    +0.000 OA
ATOM      3  N   UNL     1       5.027   3.843  16.438  0.00  0.00    +0.000 N 
ATOM      4  H   UNL     1       5.408   2.940  16.689  0.00  0.00    +0.000 HD
ENDROOT
BRANCH   1  10
ATOM      5  N   UNL     1       2.909   4.218  19.560  0.00  0.00    +0.000 NA
ATOM      6  C   UNL     1       1.569   4.066  18.981  0.00  0.00    +0.000 C 
ATOM      7  C   UNL     1       1.287   2.613  18.598  0.00  0.00    +0.000 C 
ATOM      8  C   UNL     1       2.366   2.060  17.679  0.00  0.00    +0.000 C 
ATOM      9  C   UNL     1       3.740   2.247  18.314  0.00  0.00    +0.000 C 
ATOM     10  C   UNL     1       4.002   3.720  18.678  0.00  0.00    +0.000 C 
BRANCH   5  12
ATOM     11  C   UNL     1       1.851   6.287  20.431  0.00  0.00    +0.000 C 
ATOM     12  C   UNL     1       3.155   5.562  20.091  0.00  0.00    +0.000 C 
ENDBRANCH   5  12
ENDBRANCH   1  10
BRANCH   3  13
ATOM     13  C   UNL     1       5.364   4.385  15.154  0.00  0.00    +0.000 C 
ATOM     14  C   UNL     1       6.748   4.922  14.929  0.00  0.00    +0.000 C 
ATOM     15  C   UNL     1       6.313   3.679  14.198  0.00  0.00    +0.000 C 
BRANCH  15  16
ATOM     16  C   UNL     1       6.162   3.792  12.699  0.00  0.00    +0.000 C 
BRANCH  16  17
ATOM     17  C   UNL     1       5.309   2.685  12.055  0.00  0.00    +0.000 C 
ATOM     18  C   UNL     1       4.188   3.243  11.181  0.00  0.00    +0.000 C 
ATOM     19  C   UNL     1       6.203   1.766  11.213  0.00  0.00    +0.000 C 
ENDBRANCH  16  17
ENDBRANCH  15  16
ENDBRANCH   3  13
TORSDOF 5
ENDMDL
MODEL 3
REMARK VINA RESULT:      -7.2      1.421      2.196
REMARK  Name = 
REMARK  8 active torsions:
REMARK  status: ('A' for Active; 'I' for Inactive)
REMARK    1  A    between atoms: C_1  and  C_2
REMARK    2  A    between atoms: C_2  and  N_3
REMARK    3  A    between atoms: C_8  and  C_9
REMARK    4  A    between atoms: N_11  and  C_12
REMARK    5  A    between atoms: C_14  and  C_15
REMARK    6  A    between atoms: C_15  and  C_16
REMARK    7  A    between atoms: C_16  and  C_17
REMARK    8  A    between atoms: C_16  and  C_18
REMARK                            x       y       z     vdW  Elec       q    Type
REMARK                         _______ _______ _______ _____ _____    ______ ____
ROOT
ATOM      1  C   UNL     1       5.421   4.367  17.577  0.00  0.00    +0.000 C 
ATOM      2  O   UNL     1       4.778   5.161  18.259  0.00  0.00    +0.000 OA
ATOM      3  N   UNL     1       4.897   3.135  17.171  0.00  0.00    +0.000 N 
ATOM      4  H   UNL     1       5.437   2.560  16.536  0.00  0.00    +0.000 HD
ENDROOT
BRANCH   1  10
ATOM      5  N   UNL     1       7.117   5.772  16.217  0.00  0.00    +0.000 NA
ATOM      6  C   UNL     1       6.974   7.059  16.907  0.00  0.00    +0.000 C 
ATOM      7  C   UNL     1       7.897   7.147  18.123  0.00  0.00    +0.000 C 
ATOM      8  C   UNL     1       7.687   5.973  19.067  0.00  0.00    +0.000 C 
ATOM      9  C   UNL     1       7.833   4.658  18.308  0.00  0.00    +0.000 C 
ATOM     10  C   UNL     1       6.885   4.592  17.097  0.00  0.00    +0.000 C 
BRANCH   5  12
ATOM     11  C   UNL     1       6.656   4.419  14.188  0.00  0.00    +0.000 C 
ATOM     12  C   UNL     1       6.373   5.713  14.955  0.00  0.00    +0.000 C 
ENDBRANCH   5  12
ENDBRANCH   1  10
BRANCH   3  13
ATOM     13  C   UNL     1       3.584   2.688  17.534  0.00  0.00    +0.000 C 
ATOM     14  C   UNL     1       3.441   1.486  18.422  0.00  0.00    +0.000 C 
ATOM     15  C   UNL     1       3.033   2.840  18.943  0.00  0.00    +0.000 C 
BRANCH  15  16
ATOM     16  C   UNL     1       1.561   3.052  19.204  0.00  0.00    +0.000 C 
BRANCH  16  17
ATOM     17  C   UNL     1       1.232   3.639  20.588  0.00  0.00    +0.000 C 
ATOM     18  C   UNL     1       1.627   2.705  21.729  0.00  0.00    +0.000 C 
ATOM     19  C   UNL     1       1.945   4.987  20.761  0.00  0.00    +0.000 C 
ENDBRANCH  16  17
ENDBRANCH  15  16
ENDBRANCH   3  13
TORSDOF 5
ENDMDL
MODEL 4
REMARK VINA RESULT:      -7.0      2.354      6.317
REMARK  Name = 
REMARK  8 active torsions:
REMARK  status: ('A' for Active; 'I' for Inactive)
REMARK    1  A    between atoms: C_1  and  C_2
REMARK    2  A    between atoms: C_2  and  N_3
REMARK    3  A    between atoms: C_8  and  C_9
REMARK    4  A    between atoms: N_11  and  C_12
REMARK    5  A    between atoms: C_14  and  C_15
REMARK    6  A    between atoms: C_15  and  C_16
REMARK    7  A    between atoms: C_16  and  C_17
REMARK    8  A    between atoms: C_16  and  C_18
REMARK                            x       y       z     vdW  Elec       q    Type
REMARK                         _______ _______ _______ _____ _____    ______ ____
ROOT
ATOM      1  C   UNL     1       4.986   5.494  17.309  0.00  0.00    +0.000 C 
ATOM      2  O   UNL     1       5.442   6.626  17.171  0.00  0.00    +0.000 OA
ATOM      3  N   UNL     1       5.019   4.543  16.283  0.00  0.00    +0.000 N 
ATOM      4  H   UNL     1       4.712   3.600  16.481  0.00  0.00    +0.000 HD
ENDROOT
BRANCH   1  10
ATOM      5  N   UNL     1       2.947   5.524  18.903  0.00  0.00    +0.000 NA
ATOM      6  C   UNL     1       1.904   5.079  17.971  0.00  0.00    +0.000 C 
ATOM      7  C   UNL     1       1.819   3.554  17.913  0.00  0.00    +0.000 C 
ATOM      8  C   UNL     1       3.170   2.934  17.589  0.00  0.00    +0.000 C 
ATOM      9  C   UNL     1       4.224   3.430  18.573  0.00  0.00    +0.000 C 
ATOM     10  C   UNL     1       4.296   4.967  18.602  0.00  0.00    +0.000 C 
BRANCH   5  12
ATOM     11  C   UNL     1       2.214   7.712  17.987  0.00  0.00    +0.000 C 
ATOM     12  C   UNL     1       2.948   6.976  19.110  0.00  0.00    +0.000 C 
ENDBRANCH   5  12
ENDBRANCH   1  10
BRANCH   3  13
ATOM     13  C   UNL     1       5.564   4.816  14.985  0.00  0.00    +0.000 C 
ATOM     14  C   UNL     1       7.054   4.820  14.804  0.00  0.00    +0.000 C 
ATOM     15  C   UNL     1       6.235   3.742  14.143  0.00  0.00    +0.000 C 
BRANCH  15  16
ATOM     16  C   UNL     1       6.179   3.763  12.634  0.00  0.00    +0.000 C 
BRANCH  16  17
ATOM     17  C   UNL     1       5.314   2.655  12.008  0.00  0.00    +0.000 C 
ATOM     18  C   UNL     1       4.194   3.212  11.132  0.00  0.00    +0.000 C 
ATOM     19  C   UNL     1       6.196   1.718  11.174  0.00  0.00    +0.000 C 
ENDBRANCH  16  17
ENDBRANCH  15  16
ENDBRANCH   3  13
TORSDOF 5
ENDMDL
MODEL 5
REMARK VINA RESULT:      -6.9      1.413      2.973
REMARK  Name = 
REMARK  8 active torsions:
REMARK  status: ('A' for Active; 'I' for Inactive)
REMARK    1  A    between atoms: C_1  and  C_2
REMARK    2  A    between atoms: C_2  and  N_3
REMARK    3  A    between atoms: C_8  and  C_9
REMARK    4  A    between atoms: N_11  and  C_12
REMARK    5  A    between atoms: C_14  and  C_15
REMARK    6  A    between atoms: C_15  and  C_16
REMARK    7  A    between atoms: C_16  and  C_17
REMARK    8  A    between atoms: C_16  and  C_18
REMARK                            x       y       z     vdW  Elec       q    Type
REMARK                         _______ _______ _______ _____ _____    ______ ____
ROOT
ATOM      1  C   UNL     1       4.671   5.816  18.090  0.00  0.00    +0.000 C 
ATOM      2  O   UNL     1       4.903   5.595  19.275  0.00  0.00    +0.000 OA
ATOM      3  N   UNL     1       3.429   5.542  17.506  0.00  0.00    +0.000 N 
ATOM      4  H   UNL     1       3.265   5.829  16.549  0.00  0.00    +0.000 HD
ENDROOT
BRANCH   1  10
ATOM      5  N   UNL     1       7.117   5.960  17.255  0.00  0.00    +0.000 NA
ATOM      6  C   UNL     1       7.345   4.547  16.930  0.00  0.00    +0.000 C 
ATOM      7  C   UNL     1       6.893   4.221  15.506  0.00  0.00    +0.000 C 
ATOM      8  C   UNL     1       5.445   4.628  15.276  0.00  0.00    +0.000 C 
ATOM      9  C   UNL     1       5.251   6.098  15.635  0.00  0.00    +0.000 C 
ATOM     10  C   UNL     1       5.703   6.394  17.077  0.00  0.00    +0.000 C 
BRANCH   5  12
ATOM     11  C   UNL     1       8.272   7.763  18.510  0.00  0.00    +0.000 C 
ATOM     12  C   UNL     1       7.688   6.349  18.549  0.00  0.00    +0.000 C 
ENDBRANCH   5  12
ENDBRANCH   1  10
BRANCH   3  13
ATOM     13  C   UNL     1       2.337   4.962  18.232  0.00  0.00    +0.000 C 
ATOM     14  C   UNL     1       1.200   4.346  17.472  0.00  0.00    +0.000 C 
ATOM     15  C   UNL     1       2.105   3.460  18.289  0.00  0.00    +0.000 C 
BRANCH  15  16
ATOM     16  C   UNL     1       1.491   2.795  19.498  0.00  0.00    +0.000 C 
BRANCH  16  17
ATOM     17  C   UNL     1       2.472   2.534  20.654  0.00  0.00    +0.000 C 
ATOM     18  C   UNL     1       3.921   2.440  20.181  0.00  0.00    +0.000 C 
ATOM     19  C   UNL     1       2.348   3.649  21.700  0.00  0.00    +0.000 C 
ENDBRANCH  16  17
ENDBRANCH  15  16
ENDBRANCH   3  13
TORSDOF 5
ENDMDL
MODEL 6
REMARK VINA RESULT:      -6.8      1.692      3.332
REMARK  Name = 
REMARK  8 active torsions:
REMARK  status: ('A' for Active; 'I' for Inactive)
REMARK    1  A    between atoms: C_1  and  C_2
REMARK    2  A    between atoms: C_2  and  N_3
REMARK    3  A    between atoms: C_8  and  C_9
REMARK    4  A    between atoms: N_11  and  C_12
REMARK    5  A    between atoms: C_14  and  C_15
REMARK    6  A    between atoms: C_15  and  C_16
REMARK    7  A    between atoms: C_16  and  C_17
REMARK    8  A    between atoms: C_16  and  C_18
REMARK                            x       y       z     vdW  Elec       q    Type
REMARK                         _______ _______ _______ _____ _____    ______ ____
ROOT
ATOM      1  C   UNL     1       3.895   5.713  17.388  0.00  0.00    +0.000 C 
ATOM      2  O   UNL     1       2.982   6.332  17.928  0.00  0.00    +0.000 OA
ATOM      3  N   UNL     1       3.798   4.350  17.083  0.00  0.00    +0.000 N 
ATOM      4  H   UNL     1       4.544   3.914  16.557  0.00  0.00    +0.000 HD
ENDROOT
BRANCH   1  10
ATOM      5  N   UNL     1       6.480   5.591  17.464  0.00  0.00    +0.000 NA
ATOM      6  C   UNL     1       6.681   4.300  16.794  0.00  0.00    +0.000 C 
ATOM      7  C   UNL     1       6.747   4.462  15.276  0.00  0.00    +0.000 C 
ATOM      8  C   UNL     1       5.524   5.192  14.741  0.00  0.00    +0.000 C 
ATOM      9  C   UNL     1       5.346   6.520  15.469  0.00  0.00    +0.000 C 
ATOM     10  C   UNL     1       5.271   6.326  16.995  0.00  0.00    +0.000 C 
BRANCH   5  12
ATOM     11  C   UNL     1       7.984   5.836  19.423  0.00  0.00    +0.000 C 
ATOM     12  C   UNL     1       6.577   5.500  18.924  0.00  0.00    +0.000 C 
ENDBRANCH   5  12
ENDBRANCH   1  10
BRANCH   3  13
ATOM     13  C   UNL     1       2.642   3.562  17.396  0.00  0.00    +0.000 C 
ATOM     14  C   UNL     1       2.780   2.071  17.495  0.00  0.00    +0.000 C 
ATOM     15  C   UNL     1       2.471   2.866  18.737  0.00  0.00    +0.000 C 
BRANCH  15  16
ATOM     16  C   UNL     1       1.109   2.654  19.355  0.00  0.00    +0.000 C 
BRANCH  16  17
ATOM     17  C   UNL     1       0.911   3.338  20.720  0.00  0.00    +0.000 C 
ATOM     18  C   UNL     1       1.714   2.667  21.831  0.00  0.00    +0.000 C 
ATOM     19  C   UNL     1       1.310   4.816  20.622  0.00  0.00    +0.000 C 
ENDBRANCH  16  17
ENDBRANCH  15  16
ENDBRANCH   3  13
TORSDOF 5
ENDMDL
MODEL 7
REMARK VINA RESULT:      -6.8      2.411      6.729
REMARK  Name = 
REMARK  8 active torsions:
REMARK  status: ('A' for Active; 'I' for Inactive)
REMARK    1  A    between atoms: C_1  and  C_2
REMARK    2  A    between atoms: C_2  and  N_3
REMARK    3  A    between atoms: C_8  and  C_9
REMARK    4  A    between atoms: N_11  and  C_12
REMARK    5  A    between atoms: C_14  and  C_15
REMARK    6  A    between atoms: C_15  and  C_16
REMARK    7  A    between atoms: C_16  and  C_17
REMARK    8  A    between atoms: C_16  and  C_18
REMARK                            x       y       z     vdW  Elec       q    Type
REMARK                         _______ _______ _______ _____ _____    ______ ____
ROOT
ATOM      1  C   UNL     1       3.317   3.413  18.000  0.00  0.00    +0.000 C 
ATOM      2  O   UNL     1       2.770   4.513  17.999  0.00  0.00    +0.000 OA
ATOM      3  N   UNL     1       4.428   3.129  17.198  0.00  0.00    +0.000 N 
ATOM      4  H   UNL     1       4.892   2.236  17.306  0.00  0.00    +0.000 HD
ENDROOT
BRANCH   1  10
ATOM      5  N   UNL     1       3.355   2.136  20.251  0.00  0.00    +0.000 NA
ATOM      6  C   UNL     1       2.782   3.167  21.124  0.00  0.00    +0.000 C 
ATOM      7  C   UNL     1       1.254   3.107  21.132  0.00  0.00    +0.000 C 
ATOM      8  C   UNL     1       0.688   3.181  19.721  0.00  0.00    +0.000 C 
ATOM      9  C   UNL     1       1.317   2.102  18.847  0.00  0.00    +0.000 C 
ATOM     10  C   UNL     1       2.854   2.193  18.849  0.00  0.00    +0.000 C 
BRANCH   5  12
ATOM     11  C   UNL     1       5.262   1.007  21.369  0.00  0.00    +0.000 C 
ATOM     12  C   UNL     1       4.816   2.053  20.345  0.00  0.00    +0.000 C 
ENDBRANCH   5  12
ENDBRANCH   1  10
BRANCH   3  13
ATOM     13  C   UNL     1       5.003   4.084  16.297  0.00  0.00    +0.000 C 
ATOM     14  C   UNL     1       6.443   4.474  16.468  0.00  0.00    +0.000 C 
ATOM     15  C   UNL     1       6.032   3.693  15.246  0.00  0.00    +0.000 C 
BRANCH  15  16
ATOM     16  C   UNL     1       6.126   4.410  13.920  0.00  0.00    +0.000 C 
BRANCH  16  17
ATOM     17  C   UNL     1       6.171   3.484  12.692  0.00  0.00    +0.000 C 
ATOM     18  C   UNL     1       4.826   3.399  11.974  0.00  0.00    +0.000 C 
ATOM     19  C   UNL     1       7.243   3.977  11.711  0.00  0.00    +0.000 C 
ENDBRANCH  16  17
ENDBRANCH  15  16
ENDBRANCH   3  13
TORSDOF 5
ENDMDL
MODEL 8
REMARK VINA RESULT:      -6.8      1.084      2.640
REMARK  Name = 
REMARK  8 active torsions:
REMARK  status: ('A' for Active; 'I' for Inactive)
REMARK    1  A    between atoms: C_1  and  C_2
REMARK    2  A    between atoms: C_2  and  N_3
REMARK    3  A    between atoms: C_8  and  C_9
REMARK    4  A    between atoms: N_11  and  C_12
REMARK    5  A    between atoms: C_14  and  C_15
REMARK    6  A    between atoms: C_15  and  C_16
REMARK    7  A    between atoms: C_16  and  C_17
REMARK    8  A    between atoms: C_16  and  C_18
REMARK                            x       y       z     vdW  Elec       q    Type
REMARK                         _______ _______ _______ _____ _____    ______ ____
ROOT
ATOM      1  C   UNL     1       4.843   5.604  18.053  0.00  0.00    +0.000 C 
ATOM      2  O   UNL     1       5.130   4.472  18.432  0.00  0.00    +0.000 OA
ATOM      3  N   UNL     1       3.855   6.375  18.675  0.00  0.00    +0.000 N 
ATOM      4  H   UNL     1       3.724   7.333  18.378  0.00  0.00    +0.000 HD
ENDROOT
BRANCH   1  10
ATOM      5  N   UNL     1       6.986   6.266  16.759  0.00  0.00    +0.000 NA
ATOM      6  C   UNL     1       7.506   4.928  16.453  0.00  0.00    +0.000 C 
ATOM      7  C   UNL     1       6.910   4.379  15.157  0.00  0.00    +0.000 C 
ATOM      8  C   UNL     1       5.389   4.399  15.192  0.00  0.00    +0.000 C 
ATOM      9  C   UNL     1       4.892   5.803  15.523  0.00  0.00    +0.000 C 
ATOM     10  C   UNL     1       5.499   6.325  16.838  0.00  0.00    +0.000 C 
BRANCH   5  12
ATOM     11  C   UNL     1       7.898   8.387  17.670  0.00  0.00    +0.000 C 
ATOM     12  C   UNL     1       7.656   6.894  17.902  0.00  0.00    +0.000 C 
ENDBRANCH   5  12
ENDBRANCH   1  10
BRANCH   3  13
ATOM     13  C   UNL     1       3.082   5.901  19.786  0.00  0.00    +0.000 C 
ATOM     14  C   UNL     1       1.900   6.703  20.248  0.00  0.00    +0.000 C 
ATOM     15  C   UNL     1       1.673   5.352  19.621  0.00  0.00    +0.000 C 
BRANCH  15  16
ATOM     16  C   UNL     1       1.131   4.269  20.523  0.00  0.00    +0.000 C 
BRANCH  16  17
ATOM     17  C   UNL     1       1.338   2.836  20.001  0.00  0.00    +0.000 C 
ATOM     18  C   UNL     1       1.137   2.729  18.492  0.00  0.00    +0.000 C 
ATOM     19  C   UNL     1       2.747   2.350  20.365  0.00  0.00    +0.000 C 
ENDBRANCH  16  17
ENDBRANCH  15  16
ENDBRANCH   3  13
TORSDOF 5
ENDMDL
MODEL 9
REMARK VINA RESULT:      -6.7      1.823      6.352
REMARK  Name = 
REMARK  8 active torsions:
REMARK  status: ('A' for Active; 'I' for Inactive)
REMARK    1  A    between atoms: C_1  and  C_2
REMARK    2  A    between atoms: C_2  and  N_3
REMARK    3  A    between atoms: C_8  and  C_9
REMARK    4  A    between atoms: N_11  and  C_12
REMARK    5  A    between atoms: C_14  and  C_15
REMARK    6  A    between atoms: C_15  and  C_16
REMARK    7  A    between atoms: C_16  and  C_17
REMARK    8  A    between atoms: C_16  and  C_18
REMARK                            x       y       z     vdW  Elec       q    Type
REMARK                         _______ _______ _______ _____ _____    ______ ____
ROOT
ATOM      1  C   UNL     1       4.209   4.061  18.766  0.00  0.00    +0.000 C 
ATOM      2  O   UNL     1       3.598   4.844  18.042  0.00  0.00    +0.000 OA
ATOM      3  N   UNL     1       5.606   4.030  18.824  0.00  0.00    +0.000 N 
ATOM      4  H   UNL     1       6.053   3.428  19.504  0.00  0.00    +0.000 HD
ENDROOT
BRANCH   1  10
ATOM      5  N   UNL     1       2.272   3.403  20.353  0.00  0.00    +0.000 NA
ATOM      6  C   UNL     1       1.141   3.555  19.430  0.00  0.00    +0.000 C 
ATOM      7  C   UNL     1       0.899   2.277  18.627  0.00  0.00    +0.000 C 
ATOM      8  C   UNL     1       2.161   1.826  17.905  0.00  0.00    +0.000 C 
ATOM      9  C   UNL     1       3.311   1.691  18.898  0.00  0.00    +0.000 C 
ATOM     10  C   UNL     1       3.540   2.995  19.683  0.00  0.00    +0.000 C 
BRANCH   5  12
ATOM     11  C   UNL     1       1.651   5.769  20.770  0.00  0.00    +0.000 C 
ATOM     12  C   UNL     1       2.432   4.546  21.256  0.00  0.00    +0.000 C 
ENDBRANCH   5  12
ENDBRANCH   1  10
BRANCH   3  13
ATOM     13  C   UNL     1       6.439   4.887  18.032  0.00  0.00    +0.000 C 
ATOM     14  C   UNL     1       7.870   4.502  17.797  0.00  0.00    +0.000 C 
ATOM     15  C   UNL     1       6.908   4.503  16.637  0.00  0.00    +0.000 C 
BRANCH  15  16
ATOM     16  C   UNL     1       7.143   5.538  15.563  0.00  0.00    +0.000 C 
BRANCH  16  17
ATOM     17  C   UNL     1       6.704   5.109  14.152  0.00  0.00    +0.000 C 
ATOM     18  C   UNL     1       7.854   5.133  13.149  0.00  0.00    +0.000 C 
ATOM     19  C   UNL     1       6.101   3.699  14.203  0.00  0.00    +0.000 C 
ENDBRANCH  16  17
ENDBRANCH  15  16
ENDBRANCH   3  13
TORSDOF 5
ENDMDL
