MODEL 1
REMARK VINA RESULT:      -7.3      0.000      0.000
REMARK  Name = 
REMARK  5 active torsions:
REMARK  status: ('A' for Active; 'I' for Inactive)
REMARK    1  A    between atoms: C_1  and  O_2
REMARK    2  A    between atoms: O_2  and  C_3
REMARK    3  A    between atoms: C_6  and  C_7
REMARK    4  A    between atoms: C_8  and  C_9
REMARK    5  A    between atoms: C_11  and  C_12
REMARK                            x       y       z     vdW  Elec       q    Type
REMARK                         _______ _______ _______ _____ _____    ______ ____
ROOT
ATOM      1  C   UNL     1       4.560   6.365  17.581  0.00  0.00    +0.000 C 
ATOM      2  C   UNL     1       5.870   6.175  18.380  0.00  0.00    +0.000 C 
ATOM      3  C   UNL     1       6.979   6.383  17.363  0.00  0.00    +0.000 C 
ATOM      4  N   UNL     1       6.362   6.194  16.025  0.00  0.00    +0.000 NA
ATOM      5  C   UNL     1       6.962   5.074  15.284  0.00  0.00    +0.000 C 
ATOM      6  C   UNL     1       6.167   3.856  15.674  0.00  0.00    +0.000 C 
ATOM      7  C   UNL     1       4.789   4.409  15.964  0.00  0.00    +0.000 C 
ATOM      8  N   UNL     1       4.929   5.860  16.220  0.00  0.00    +0.000 NA
ENDROOT
BRANCH   1  12
ATOM      9  C   UNL     1       1.384   4.306  19.699  0.00  0.00    +0.000 A 
ATOM     10  C   UNL     1       2.021   5.394  20.287  0.00  0.00    +0.000 A 
ATOM     11  C   UNL     1       2.934   6.158  19.555  0.00  0.00    +0.000 A 
ATOM     12  C   UNL     1       3.292   5.793  18.241  0.00  0.00    +0.000 A 
ATOM     13  C   UNL     1       2.516   4.808  17.616  0.00  0.00    +0.000 A 
ATOM     14  C   UNL     1       1.605   4.035  18.353  0.00  0.00    +0.000 A 
BRANCH   9  16
ATOM     15  C   UNL     1       1.303   2.763  21.483  0.00  0.00    +0.000 C 
ATOM     16  O   UNL     1       0.602   3.562  20.541  0.00  0.00    +0.000 OA
ENDBRANCH   9  16
ENDBRANCH   1  12
BRANCH   2  17
ATOM     17  C   UNL     1       5.856   4.737  18.873  0.00  0.00    +0.000 C 
ATOM     18  N   UNL     1       5.842   3.544  19.282  0.00  0.00    +0.000 NA
ENDBRANCH   2  17
BRANCH   3  19
ATOM     19  C   UNL     1       7.519   7.764  17.493  0.00  0.00    +0.000 C 
ATOM     20  N   UNL     1       7.950   8.828  17.643  0.00  0.00    +0.000 NA
ENDBRANCH   3  19
TORSDOF 4
ENDMDL
MODEL 2
REMARK VINA RESULT:      -6.7      2.859      4.594
REMARK  Name = 
REMARK  5 active torsions:
REMARK  status: ('A' for Active; 'I' for Inactive)
REMARK    1  A    between atoms: C_1  and  O_2
REMARK    2  A    between atoms: O_2  and  C_3
REMARK    3  A    between atoms: C_6  and  C_7
REMARK    4  A    between atoms: C_8  and  C_9
REMARK    5  A    between atoms: C_11  and  C_12
REMARK                            x       y       z     vdW  Elec       q    Type
REMARK                         _______ _______ _______ _____ _____    ______ ____
ROOT
ATOM      1  C   UNL     1       3.564   5.410  19.592  0.00  0.00    +0.000 C 
ATOM      2  C   UNL     1       2.965   4.004  19.355  0.00  0.00    +0.000 C 
ATOM      3  C   UNL     1       4.145   3.144  18.937  0.00  0.00    +0.000 C 
ATOM      4  N   UNL     1       5.205   4.079  18.481  0.00  0.00    +0.000 NA
ATOM      5  C   UNL     1       5.562   3.876  17.069  0.00  0.00    +0.000 C 
ATOM      6  C   UNL     1       4.630   4.760  16.282  0.00  0.00    +0.000 C 
ATOM      7  C   UNL     1       4.356   5.912  17.222  0.00  0.00    +0.000 C 
ATOM      8  N   UNL     1       4.681   5.463  18.595  0.00  0.00    +0.000 NA
ENDROOT
BRANCH   1  12
ATOM      9  C   UNL     1       1.198   9.036  19.859  0.00  0.00    +0.000 A 
ATOM     10  C   UNL     1       1.853   8.717  18.674  0.00  0.00    +0.000 A 
ATOM     11  C   UNL     1       2.487   7.481  18.527  0.00  0.00    +0.000 A 
ATOM     12  C   UNL     1       2.552   6.569  19.601  0.00  0.00    +0.000 A 
ATOM     13  C   UNL     1       1.745   6.834  20.716  0.00  0.00    +0.000 A 
ATOM     14  C   UNL     1       1.114   8.079  20.866  0.00  0.00    +0.000 A 
BRANCH   9  16
ATOM     15  C   UNL     1      -0.624  10.490  19.497  0.00  0.00    +0.000 C 
ATOM     16  O   UNL     1       0.715  10.314  19.935  0.00  0.00    +0.000 OA
ENDBRANCH   9  16
ENDBRANCH   1  12
BRANCH   2  17
ATOM     17  C   UNL     1       1.978   4.156  18.209  0.00  0.00    +0.000 C 
ATOM     18  N   UNL     1       1.159   4.283  17.259  0.00  0.00    +0.000 NA
ENDBRANCH   2  17
BRANCH   3  19
ATOM     19  C   UNL     1       4.622   2.354  20.106  0.00  0.00    +0.000 C 
ATOM     20  N   UNL     1       5.030   1.775  21.022  0.00  0.00    +0.000 NA
ENDBRANCH   3  19
TORSDOF 4
ENDMDL
MODEL 3
REMARK VINA RESULT:      -6.7      3.203      5.897
REMARK  Name = 
REMARK  5 active torsions:
REMARK  status: ('A' for Active; 'I' for Inactive)
REMARK    1  A    between atoms: C_1  and  O_2
REMARK    2  A    between atoms: O_2  and  C_3
REMARK    3  A    between atoms: C_6  and  C_7
REMARK    4  A    between atoms: C_8  and  C_9
REMARK    5  A    between atoms: C_11  and  C_12
REMARK                            x       y       z     vdW  Elec       q    Type
REMARK                         _______ _______ _______ _____ _____    ______ ____
ROOT
ATOM      1  C   UNL     1       3.875   5.562  19.157  0.00  0.00    +0.000 C 
ATOM      2  C   UNL     1       2.372   5.797  18.876  0.00  0.00    +0.000 C 
ATOM      3  C   UNL     1       1.690   5.610  20.220  0.00  0.00    +0.000 C 
ATOM      4  N   UNL     1       2.637   4.838  21.066  0.00  0.00    +0.000 NA
ATOM      5  C   UNL     1       2.085   3.542  21.487  0.00  0.00    +0.000 C 
ATOM      6  C   UNL     1       2.465   2.566  20.405  0.00  0.00    +0.000 C 
ATOM      7  C   UNL     1       3.770   3.118  19.873  0.00  0.00    +0.000 C 
ATOM      8  N   UNL     1       3.847   4.546  20.257  0.00  0.00    +0.000 NA
ENDROOT
BRANCH   1  12
ATOM      9  C   UNL     1       6.672   5.230  15.859  0.00  0.00    +0.000 A 
ATOM     10  C   UNL     1       6.883   4.504  17.027  0.00  0.00    +0.000 A 
ATOM     11  C   UNL     1       5.912   4.484  18.032  0.00  0.00    +0.000 A 
ATOM     12  C   UNL     1       4.741   5.262  17.922  0.00  0.00    +0.000 A 
ATOM     13  C   UNL     1       4.472   5.840  16.674  0.00  0.00    +0.000 A 
ATOM     14  C   UNL     1       5.451   5.868  15.668  0.00  0.00    +0.000 A 
BRANCH   9  16
ATOM     15  C   UNL     1       7.441   4.964  13.644  0.00  0.00    +0.000 C 
ATOM     16  O   UNL     1       7.735   5.275  14.998  0.00  0.00    +0.000 OA
ENDBRANCH   9  16
ENDBRANCH   1  12
BRANCH   2  17
ATOM     17  C   UNL     1       1.952   4.708  17.903  0.00  0.00    +0.000 C 
ATOM     18  N   UNL     1       1.602   3.804  17.097  0.00  0.00    +0.000 NA
ENDBRANCH   2  17
BRANCH   3  19
ATOM     19  C   UNL     1       1.420   6.941  20.830  0.00  0.00    +0.000 C 
ATOM     20  N   UNL     1       1.218   7.998  21.257  0.00  0.00    +0.000 NA
ENDBRANCH   3  19
TORSDOF 4
ENDMDL
MODEL 4
REMARK VINA RESULT:      -6.5      2.965      5.899
REMARK  Name = 
REMARK  5 active torsions:
REMARK  status: ('A' for Active; 'I' for Inactive)
REMARK    1  A    between atoms: C_1  and  O_2
REMARK    2  A    between atoms: O_2  and  C_3
REMARK    3  A    between atoms: C_6  and  C_7
REMARK    4  A    between atoms: C_8  and  C_9
REMARK    5  A    between atoms: C_11  and  C_12
REMARK                            x       y       z     vdW  Elec       q    Type
REMARK                         _______ _______ _______ _____ _____    ______ ____
ROOT
ATOM      1  C   UNL     1       4.362   3.712  19.133  0.00  0.00    +0.000 C 
ATOM      2  C   UNL     1       3.502   4.527  20.127  0.00  0.00    +0.000 C 
ATOM      3  C   UNL     1       2.226   3.720  20.290  0.00  0.00    +0.000 C 
ATOM      4  N   UNL     1       2.151   2.812  19.117  0.00  0.00    +0.000 NA
ATOM      5  C   UNL     1       0.959   3.059  18.291  0.00  0.00    +0.000 C 
ATOM      6  C   UNL     1       1.369   4.105  17.288  0.00  0.00    +0.000 C 
ATOM      7  C   UNL     1       2.846   3.846  17.089  0.00  0.00    +0.000 C 
ATOM      8  N   UNL     1       3.331   3.073  18.255  0.00  0.00    +0.000 NA
ENDROOT
BRANCH   1  12
ATOM      9  C   UNL     1       7.185   6.415  17.251  0.00  0.00    +0.000 A 
ATOM     10  C   UNL     1       7.233   6.204  18.626  0.00  0.00    +0.000 A 
ATOM     11  C   UNL     1       6.434   5.223  19.218  0.00  0.00    +0.000 A 
ATOM     12  C   UNL     1       5.505   4.488  18.454  0.00  0.00    +0.000 A 
ATOM     13  C   UNL     1       5.597   4.593  17.059  0.00  0.00    +0.000 A 
ATOM     14  C   UNL     1       6.394   5.584  16.465  0.00  0.00    +0.000 A 
BRANCH   9  16
ATOM     15  C   UNL     1       8.000   8.588  17.677  0.00  0.00    +0.000 C 
ATOM     16  O   UNL     1       7.919   7.476  16.797  0.00  0.00    +0.000 OA
ENDBRANCH   9  16
ENDBRANCH   1  12
BRANCH   2  17
ATOM     17  C   UNL     1       3.215   5.854  19.443  0.00  0.00    +0.000 C 
ATOM     18  N   UNL     1       2.976   6.954  18.875  0.00  0.00    +0.000 NA
ENDBRANCH   2  17
BRANCH   3  19
ATOM     19  C   UNL     1       2.296   2.930  21.551  0.00  0.00    +0.000 C 
ATOM     20  N   UNL     1       2.299   2.310  22.528  0.00  0.00    +0.000 NA
ENDBRANCH   3  19
TORSDOF 4
ENDMDL
MODEL 5
REMARK VINA RESULT:      -6.4      3.224      6.175
REMARK  Name = 
REMARK  5 active torsions:
REMARK  status: ('A' for Active; 'I' for Inactive)
REMARK    1  A    between atoms: C_1  and  O_2
REMARK    2  A    between atoms: O_2  and  C_3
REMARK    3  A    between atoms: C_6  and  C_7
REMARK    4  A    between atoms: C_8  and  C_9
REMARK    5  A    between atoms: C_11  and  C_12
REMARK                            x       y       z     vdW  Elec       q    Type
REMARK                         _______ _______ _______ _____ _____    ______ ____
ROOT
ATOM      1  C   UNL     1       4.906   3.068  17.869  0.00  0.00    +0.000 C 
ATOM      2  C   UNL     1       4.818   3.737  19.261  0.00  0.00    +0.000 C 
ATOM      3  C   UNL     1       3.839   2.881  20.043  0.00  0.00    +0.000 C 
ATOM      4  N   UNL     1       3.057   2.114  19.039  0.00  0.00    +0.000 NA
ATOM      5  C   UNL     1       1.620   2.422  19.093  0.00  0.00    +0.000 C 
ATOM      6  C   UNL     1       1.418   3.589  18.162  0.00  0.00    +0.000 C 
ATOM      7  C   UNL     1       2.493   3.396  17.115  0.00  0.00    +0.000 C 
ATOM      8  N   UNL     1       3.529   2.507  17.688  0.00  0.00    +0.000 NA
ENDROOT
BRANCH   1  12
ATOM      9  C   UNL     1       6.839   5.018  14.511  0.00  0.00    +0.000 A 
ATOM     10  C   UNL     1       5.574   4.461  14.358  0.00  0.00    +0.000 A 
ATOM     11  C   UNL     1       4.879   3.969  15.467  0.00  0.00    +0.000 A 
ATOM     12  C   UNL     1       5.477   3.950  16.744  0.00  0.00    +0.000 A 
ATOM     13  C   UNL     1       6.669   4.668  16.904  0.00  0.00    +0.000 A 
ATOM     14  C   UNL     1       7.370   5.155  15.789  0.00  0.00    +0.000 A 
BRANCH   9  16
ATOM     15  C   UNL     1       7.280   4.464  12.260  0.00  0.00    +0.000 C 
ATOM     16  O   UNL     1       7.473   5.358  13.347  0.00  0.00    +0.000 OA
ENDBRANCH   9  16
ENDBRANCH   1  12
BRANCH   2  17
ATOM     17  C   UNL     1       4.248   5.126  19.023  0.00  0.00    +0.000 C 
ATOM     18  N   UNL     1       3.776   6.278  18.825  0.00  0.00    +0.000 NA
ENDBRANCH   2  17
BRANCH   3  19
ATOM     19  C   UNL     1       4.591   1.951  20.931  0.00  0.00    +0.000 C 
ATOM     20  N   UNL     1       5.210   1.222  21.582  0.00  0.00    +0.000 NA
ENDBRANCH   3  19
TORSDOF 4
ENDMDL
MODEL 6
REMARK VINA RESULT:      -6.3      3.072      5.718
REMARK  Name = 
REMARK  5 active torsions:
REMARK  status: ('A' for Active; 'I' for Inactive)
REMARK    1  A    between atoms: C_1  and  O_2
REMARK    2  A    between atoms: O_2  and  C_3
REMARK    3  A    between atoms: C_6  and  C_7
REMARK    4  A    between atoms: C_8  and  C_9
REMARK    5  A    between atoms: C_11  and  C_12
REMARK                            x       y       z     vdW  Elec       q    Type
REMARK                         _______ _______ _______ _____ _____    ______ ____
ROOT
ATOM      1  C   UNL     1       4.164   5.604  18.947  0.00  0.00    +0.000 C 
ATOM      2  C   UNL     1       2.650   5.603  18.627  0.00  0.00    +0.000 C 
ATOM      3  C   UNL     1       1.976   5.226  19.934  0.00  0.00    +0.000 C 
ATOM      4  N   UNL     1       3.018   4.573  20.769  0.00  0.00    +0.000 NA
ATOM      5  C   UNL     1       2.680   3.181  21.100  0.00  0.00    +0.000 C 
ATOM      6  C   UNL     1       3.245   2.348  19.980  0.00  0.00    +0.000 C 
ATOM      7  C   UNL     1       4.452   3.139  19.524  0.00  0.00    +0.000 C 
ATOM      8  N   UNL     1       4.279   4.534  19.988  0.00  0.00    +0.000 NA
ENDROOT
BRANCH   1  12
ATOM      9  C   UNL     1       6.396   4.917  15.292  0.00  0.00    +0.000 A 
ATOM     10  C   UNL     1       5.429   5.916  15.340  0.00  0.00    +0.000 A 
ATOM     11  C   UNL     1       4.816   6.249  16.550  0.00  0.00    +0.000 A 
ATOM     12  C   UNL     1       5.099   5.525  17.727  0.00  0.00    +0.000 A 
ATOM     13  C   UNL     1       6.192   4.649  17.692  0.00  0.00    +0.000 A 
ATOM     14  C   UNL     1       6.803   4.309  16.475  0.00  0.00    +0.000 A 
BRANCH   9  16
ATOM     15  C   UNL     1       6.016   3.705  13.303  0.00  0.00    +0.000 C 
ATOM     16  O   UNL     1       6.843   4.596  14.039  0.00  0.00    +0.000 OA
ENDBRANCH   9  16
ENDBRANCH   1  12
BRANCH   2  17
ATOM     17  C   UNL     1       2.443   4.519  17.582  0.00  0.00    +0.000 C 
ATOM     18  N   UNL     1       2.272   3.620  16.715  0.00  0.00    +0.000 NA
ENDBRANCH   2  17
BRANCH   3  19
ATOM     19  C   UNL     1       1.472   6.456  20.606  0.00  0.00    +0.000 C 
ATOM     20  N   UNL     1       1.129   7.430  21.128  0.00  0.00    +0.000 NA
ENDBRANCH   3  19
TORSDOF 4
ENDMDL
MODEL 7
REMARK VINA RESULT:      -6.0      3.086      4.412
REMARK  Name = 
REMARK  5 active torsions:
REMARK  status: ('A' for Active; 'I' for Inactive)
REMARK    1  A    between atoms: C_1  and  O_2
REMARK    2  A    between atoms: O_2  and  C_3
REMARK    3  A    between atoms: C_6  and  C_7
REMARK    4  A    between atoms: C_8  and  C_9
REMARK    5  A    between atoms: C_11  and  C_12
REMARK                            x       y       z     vdW  Elec       q    Type
REMARK                         _______ _______ _______ _____ _____    ______ ____
ROOT
ATOM      1  C   UNL     1       3.493   6.260  18.385  0.00  0.00    +0.000 C 
ATOM      2  C   UNL     1       4.111   5.464  19.559  0.00  0.00    +0.000 C 
ATOM      3  C   UNL     1       4.754   4.251  18.910  0.00  0.00    +0.000 C 
ATOM      4  N   UNL     1       4.120   4.103  17.575  0.00  0.00    +0.000 NA
ATOM      5  C   UNL     1       3.406   2.825  17.431  0.00  0.00    +0.000 C 
ATOM      6  C   UNL     1       2.005   3.083  17.920  0.00  0.00    +0.000 C 
ATOM      7  C   UNL     1       1.781   4.544  17.597  0.00  0.00    +0.000 C 
ATOM      8  N   UNL     1       3.107   5.178  17.424  0.00  0.00    +0.000 NA
ENDROOT
BRANCH   1  12
ATOM      9  C   UNL     1       0.966   9.583  19.561  0.00  0.00    +0.000 A 
ATOM     10  C   UNL     1       1.209   9.336  18.214  0.00  0.00    +0.000 A 
ATOM     11  C   UNL     1       1.891   8.182  17.819  0.00  0.00    +0.000 A 
ATOM     12  C   UNL     1       2.420   7.291  18.775  0.00  0.00    +0.000 A 
ATOM     13  C   UNL     1       2.016   7.467  20.106  0.00  0.00    +0.000 A 
ATOM     14  C   UNL     1       1.338   8.630  20.504  0.00  0.00    +0.000 A 
BRANCH   9  16
ATOM     15  C   UNL     1      -0.675  11.179  18.989  0.00  0.00    +0.000 C 
ATOM     16  O   UNL     1       0.396  10.796  19.840  0.00  0.00    +0.000 OA
ENDBRANCH   9  16
ENDBRANCH   1  12
BRANCH   2  17
ATOM     17  C   UNL     1       2.947   5.048  20.443  0.00  0.00    +0.000 C 
ATOM     18  N   UNL     1       1.982   4.702  21.176  0.00  0.00    +0.000 NA
ENDBRANCH   2  17
BRANCH   3  19
ATOM     19  C   UNL     1       6.218   4.483  18.764  0.00  0.00    +0.000 C 
ATOM     20  N   UNL     1       7.346   4.682  18.601  0.00  0.00    +0.000 NA
ENDBRANCH   3  19
TORSDOF 4
ENDMDL
MODEL 8
REMARK VINA RESULT:      -5.8      3.140      6.129
REMARK  Name = 
REMARK  5 active torsions:
REMARK  status: ('A' for Active; 'I' for Inactive)
REMARK    1  A    between atoms: C_1  and  O_2
REMARK    2  A    between atoms: O_2  and  C_3
REMARK    3  A    between atoms: C_6  and  C_7
REMARK    4  A    between atoms: C_8  and  C_9
REMARK    5  A    between atoms: C_11  and  C_12
REMARK                            x       y       z     vdW  Elec       q    Type
REMARK                         _______ _______ _______ _____ _____    ______ ____
ROOT
ATOM      1  C   UNL     1       4.190   3.497  18.558  0.00  0.00    +0.000 C 
ATOM      2  C   UNL     1       3.619   4.304  19.747  0.00  0.00    +0.000 C 
ATOM      3  C   UNL     1       2.406   3.514  20.206  0.00  0.00    +0.000 C 
ATOM      4  N   UNL     1       2.025   2.634  19.072  0.00  0.00    +0.000 NA
ATOM      5  C   UNL     1       0.672   2.919  18.570  0.00  0.00    +0.000 C 
ATOM      6  C   UNL     1       0.844   3.980  17.516  0.00  0.00    +0.000 C 
ATOM      7  C   UNL     1       2.220   3.702  16.953  0.00  0.00    +0.000 C 
ATOM      8  N   UNL     1       2.961   2.895  17.950  0.00  0.00    +0.000 NA
ENDROOT
BRANCH   1  12
ATOM      9  C   UNL     1       7.046   5.089  15.707  0.00  0.00    +0.000 A 
ATOM     10  C   UNL     1       5.699   5.001  15.369  0.00  0.00    +0.000 A 
ATOM     11  C   UNL     1       4.751   4.637  16.329  0.00  0.00    +0.000 A 
ATOM     12  C   UNL     1       5.146   4.269  17.632  0.00  0.00    +0.000 A 
ATOM     13  C   UNL     1       6.474   4.531  17.996  0.00  0.00    +0.000 A 
ATOM     14  C   UNL     1       7.428   4.889  17.029  0.00  0.00    +0.000 A 
BRANCH   9  16
ATOM     15  C   UNL     1       7.414   4.970  13.379  0.00  0.00    +0.000 C 
ATOM     16  O   UNL     1       7.896   5.338  14.663  0.00  0.00    +0.000 OA
ENDBRANCH   9  16
ENDBRANCH   1  12
BRANCH   2  17
ATOM     17  C   UNL     1       3.200   5.650  19.179  0.00  0.00    +0.000 C 
ATOM     18  N   UNL     1       2.853   6.767  18.709  0.00  0.00    +0.000 NA
ENDBRANCH   2  17
BRANCH   3  19
ATOM     19  C   UNL     1       2.768   2.694  21.396  0.00  0.00    +0.000 C 
ATOM     20  N   UNL     1       3.029   2.015  22.296  0.00  0.00    +0.000 NA
ENDBRANCH   3  19
TORSDOF 4
ENDMDL
MODEL 9
REMARK VINA RESULT:      -5.8      1.645      2.912
REMARK  Name = 
REMARK  5 active torsions:
REMARK  status: ('A' for Active; 'I' for Inactive)
REMARK    1  A    between atoms: C_1  and  O_2
REMARK    2  A    between atoms: O_2  and  C_3
REMARK    3  A    between atoms: C_6  and  C_7
REMARK    4  A    between atoms: C_8  and  C_9
REMARK    5  A    between atoms: C_11  and  C_12
REMARK                            x       y       z     vdW  Elec       q    Type
REMARK                         _______ _______ _______ _____ _____    ______ ____
ROOT
ATOM      1  C   UNL     1       4.871   4.093  17.138  0.00  0.00    +0.000 C 
ATOM      2  C   UNL     1       4.856   5.219  16.077  0.00  0.00    +0.000 C 
ATOM      3  C   UNL     1       6.306   5.376  15.656  0.00  0.00    +0.000 C 
ATOM      4  N   UNL     1       7.125   4.770  16.737  0.00  0.00    +0.000 NA
ATOM      5  C   UNL     1       8.022   5.745  17.376  0.00  0.00    +0.000 C 
ATOM      6  C   UNL     1       7.227   6.353  18.501  0.00  0.00    +0.000 C 
ATOM      7  C   UNL     1       6.292   5.239  18.917  0.00  0.00    +0.000 C 
ATOM      8  N   UNL     1       6.205   4.279  17.794  0.00  0.00    +0.000 NA
ENDROOT
BRANCH   1  12
ATOM      9  C   UNL     1       1.561   3.272  19.818  0.00  0.00    +0.000 A 
ATOM     10  C   UNL     1       2.718   3.872  20.304  0.00  0.00    +0.000 A 
ATOM     11  C   UNL     1       3.724   4.280  19.426  0.00  0.00    +0.000 A 
ATOM     12  C   UNL     1       3.629   4.018  18.043  0.00  0.00    +0.000 A 
ATOM     13  C   UNL     1       2.390   3.575  17.560  0.00  0.00    +0.000 A 
ATOM     14  C   UNL     1       1.382   3.157  18.443  0.00  0.00    +0.000 A 
BRANCH   9  16
ATOM     15  C   UNL     1       1.280   2.511  22.034  0.00  0.00    +0.000 C 
ATOM     16  O   UNL     1       0.697   2.806  20.772  0.00  0.00    +0.000 OA
ENDBRANCH   9  16
ENDBRANCH   1  12
BRANCH   2  17
ATOM     17  C   UNL     1       4.366   6.466  16.796  0.00  0.00    +0.000 C 
ATOM     18  N   UNL     1       3.958   7.500  17.390  0.00  0.00    +0.000 NA
ENDBRANCH   2  17
BRANCH   3  19
ATOM     19  C   UNL     1       6.531   4.656  14.372  0.00  0.00    +0.000 C 
ATOM     20  N   UNL     1       6.655   4.090  13.370  0.00  0.00    +0.000 NA
ENDBRANCH   3  19
TORSDOF 4
ENDMDL
