MODEL 1
REMARK VINA RESULT:      -5.7      0.000      0.000
REMARK  Name = 
REMARK  18 active torsions:
REMARK  status: ('A' for Active; 'I' for Inactive)
REMARK    1  A    between atoms: N_1  and  C_2
REMARK    2  A    between atoms: C_2  and  C_3
REMARK    3  A    between atoms: C_3  and  C_4
REMARK    4  A    between atoms: C_4  and  C_5
REMARK    5  A    between atoms: C_5  and  C_6
REMARK    6  A    between atoms: C_6  and  C_7
REMARK    7  A    between atoms: C_7  and  C_8
REMARK    8  A    between atoms: C_8  and  C_9
REMARK    9  A    between atoms: C_9  and  N_10
REMARK   10  A    between atoms: N_10  and  C_11
REMARK   11  A    between atoms: C_11  and  C_12
REMARK   12  A    between atoms: C_12  and  C_13
REMARK   13  A    between atoms: C_13  and  C_14
REMARK   14  A    between atoms: C_14  and  C_15
REMARK   15  A    between atoms: C_15  and  C_16
REMARK   16  A    between atoms: C_16  and  C_17
REMARK   17  A    between atoms: C_17  and  C_18
REMARK   18  A    between atoms: C_18  and  N_19
REMARK                            x       y       z     vdW  Elec       q    Type
REMARK                         _______ _______ _______ _____ _____    ______ ____
ROOT
ATOM      1  C   UNL     1       4.444   5.546  16.724  0.00  0.00    +0.000 C 
ENDROOT
BRANCH   1   2
ATOM      2  C   UNL     1       5.957   5.389  16.752  0.00  0.00    +0.000 C 
BRANCH   2   3
ATOM      3  N   UNL     1       6.409   5.310  18.134  0.00  0.00    +0.000 NA
ATOM      4  H   UNL     1       5.885   5.970  18.709  0.00  0.00    +0.000 HD
BRANCH   3   5
ATOM      5  C   UNL     1       7.831   5.624  18.197  0.00  0.00    +0.000 C 
BRANCH   5   6
ATOM      6  C   UNL     1       8.010   7.056  18.670  0.00  0.00    +0.000 C 
BRANCH   6   7
ATOM      7  C   UNL     1       7.952   8.001  17.479  0.00  0.00    +0.000 C 
BRANCH   7   8
ATOM      8  C   UNL     1       7.964   9.445  17.953  0.00  0.00    +0.000 C 
BRANCH   8   9
ATOM      9  C   UNL     1       9.121   9.673  18.913  0.00  0.00    +0.000 C 
BRANCH   9  10
ATOM     10  C   UNL     1       9.382  11.162  19.077  0.00  0.00    +0.000 C 
BRANCH  10  11
ATOM     11  C   UNL     1      10.829  11.403  19.486  0.00  0.00    +0.000 C 
BRANCH  11  12
ATOM     12  C   UNL     1      11.488  12.396  18.539  0.00  0.00    +0.000 C 
BRANCH  12  13
ATOM     13  N   UNL     1      11.988  11.696  17.366  0.00  0.00    +0.000 NA
ATOM     14  H   UNL     1      11.905  10.691  17.514  0.00  0.00    +0.000 HD
ATOM     15  H   UNL     1      12.981  11.890  17.251  0.00  0.00    +0.000 HD
ENDBRANCH  12  13
ENDBRANCH  11  12
ENDBRANCH  10  11
ENDBRANCH   9  10
ENDBRANCH   8   9
ENDBRANCH   7   8
ENDBRANCH   6   7
ENDBRANCH   5   6
ENDBRANCH   3   5
ENDBRANCH   2   3
ENDBRANCH   1   2
BRANCH   1  16
ATOM     16  C   UNL     1       4.010   6.552  17.781  0.00  0.00    +0.000 C 
BRANCH  16  17
ATOM     17  C   UNL     1       2.625   6.204  18.306  0.00  0.00    +0.000 C 
BRANCH  17  18
ATOM     18  C   UNL     1       2.165   4.872  17.734  0.00  0.00    +0.000 C 
BRANCH  18  19
ATOM     19  C   UNL     1       1.386   4.086  18.780  0.00  0.00    +0.000 C 
BRANCH  19  20
ATOM     20  C   UNL     1       1.495   2.589  18.508  0.00  0.00    +0.000 C 
BRANCH  20  21
ATOM     21  C   UNL     1       2.860   2.251  17.936  0.00  0.00    +0.000 C 
BRANCH  21  22
ATOM     22  N   UNL     1       3.573   1.378  18.871  0.00  0.00    +0.000 NA
ATOM     23  C   UNL     1       4.501   1.958  19.546  0.00  0.00    +0.000 C 
ATOM     24  N   UNL     1       4.907   3.241  19.515  0.00  0.00    +0.000 N 
ATOM     25  N   UNL     1       5.212   1.248  20.431  0.00  0.00    +0.000 N 
ATOM     26  H   UNL     1       4.486   3.920  18.901  0.00  0.00    +0.000 HD
ATOM     27  H   UNL     1       5.657   3.565  20.097  0.00  0.00    +0.000 HD
ATOM     28  H   UNL     1       4.969   0.276  20.515  0.00  0.00    +0.000 HD
ATOM     29  H   UNL     1       5.953   1.624  20.992  0.00  0.00    +0.000 HD
ENDBRANCH  21  22
ENDBRANCH  20  21
ENDBRANCH  19  20
ENDBRANCH  18  19
ENDBRANCH  17  18
ENDBRANCH  16  17
ENDBRANCH   1  16
TORSDOF 18
ENDMDL
MODEL 2
REMARK VINA RESULT:      -5.6      1.814      9.872
REMARK  Name = 
REMARK  18 active torsions:
REMARK  status: ('A' for Active; 'I' for Inactive)
REMARK    1  A    between atoms: N_1  and  C_2
REMARK    2  A    between atoms: C_2  and  C_3
REMARK    3  A    between atoms: C_3  and  C_4
REMARK    4  A    between atoms: C_4  and  C_5
REMARK    5  A    between atoms: C_5  and  C_6
REMARK    6  A    between atoms: C_6  and  C_7
REMARK    7  A    between atoms: C_7  and  C_8
REMARK    8  A    between atoms: C_8  and  C_9
REMARK    9  A    between atoms: C_9  and  N_10
REMARK   10  A    between atoms: N_10  and  C_11
REMARK   11  A    between atoms: C_11  and  C_12
REMARK   12  A    between atoms: C_12  and  C_13
REMARK   13  A    between atoms: C_13  and  C_14
REMARK   14  A    between atoms: C_14  and  C_15
REMARK   15  A    between atoms: C_15  and  C_16
REMARK   16  A    between atoms: C_16  and  C_17
REMARK   17  A    between atoms: C_17  and  C_18
REMARK   18  A    between atoms: C_18  and  N_19
REMARK                            x       y       z     vdW  Elec       q    Type
REMARK                         _______ _______ _______ _____ _____    ______ ____
ROOT
ATOM      1  C   UNL     1       7.550   6.280  18.607  0.00  0.00    +0.000 C 
ENDROOT
BRANCH   1   2
ATOM      2  C   UNL     1       7.707   4.927  17.930  0.00  0.00    +0.000 C 
BRANCH   2   3
ATOM      3  N   UNL     1       6.454   4.192  18.023  0.00  0.00    +0.000 NA
ATOM      4  H   UNL     1       5.959   4.235  17.131  0.00  0.00    +0.000 HD
BRANCH   3   5
ATOM      5  C   UNL     1       5.627   4.774  19.073  0.00  0.00    +0.000 C 
BRANCH   5   6
ATOM      6  C   UNL     1       4.201   4.916  18.571  0.00  0.00    +0.000 C 
BRANCH   6   7
ATOM      7  C   UNL     1       4.064   4.235  17.216  0.00  0.00    +0.000 C 
BRANCH   7   8
ATOM      8  C   UNL     1       2.840   3.335  17.203  0.00  0.00    +0.000 C 
BRANCH   8   9
ATOM      9  C   UNL     1       1.741   3.929  18.069  0.00  0.00    +0.000 C 
BRANCH   9  10
ATOM     10  C   UNL     1       0.965   2.823  18.766  0.00  0.00    +0.000 C 
BRANCH  10  11
ATOM     11  C   UNL     1       0.822   3.132  20.251  0.00  0.00    +0.000 C 
BRANCH  11  12
ATOM     12  C   UNL     1       1.924   2.442  21.043  0.00  0.00    +0.000 C 
BRANCH  12  13
ATOM     13  N   UNL     1       2.297   3.267  22.182  0.00  0.00    +0.000 NA
ATOM     14  H   UNL     1       1.456   3.664  22.599  0.00  0.00    +0.000 HD
ATOM     15  H   UNL     1       2.861   4.053  21.863  0.00  0.00    +0.000 HD
ENDBRANCH  12  13
ENDBRANCH  11  12
ENDBRANCH  10  11
ENDBRANCH   9  10
ENDBRANCH   8   9
ENDBRANCH   7   8
ENDBRANCH   6   7
ENDBRANCH   5   6
ENDBRANCH   3   5
ENDBRANCH   2   3
ENDBRANCH   1   2
BRANCH   1  16
ATOM     16  C   UNL     1       7.092   7.317  17.590  0.00  0.00    +0.000 C 
BRANCH  16  17
ATOM     17  C   UNL     1       8.204   8.317  17.316  0.00  0.00    +0.000 C 
BRANCH  17  18
ATOM     18  C   UNL     1       8.531   9.100  18.579  0.00  0.00    +0.000 C 
BRANCH  18  19
ATOM     19  C   UNL     1       8.672  10.582  18.264  0.00  0.00    +0.000 C 
BRANCH  19  20
ATOM     20  C   UNL     1       9.576  11.259  19.288  0.00  0.00    +0.000 C 
BRANCH  20  21
ATOM     21  C   UNL     1      10.976  11.437  18.727  0.00  0.00    +0.000 C 
BRANCH  21  22
ATOM     22  N   UNL     1      10.888  12.022  17.387  0.00  0.00    +0.000 NA
ATOM     23  C   UNL     1      11.382  13.205  17.284  0.00  0.00    +0.000 C 
ATOM     24  N   UNL     1      11.964  13.974  18.224  0.00  0.00    +0.000 N 
ATOM     25  N   UNL     1      11.354  13.828  16.099  0.00  0.00    +0.000 N 
ATOM     26  H   UNL     1      12.067  13.666  19.177  0.00  0.00    +0.000 HD
ATOM     27  H   UNL     1      12.306  14.892  18.007  0.00  0.00    +0.000 HD
ATOM     28  H   UNL     1      10.935  13.318  15.341  0.00  0.00    +0.000 HD
ATOM     29  H   UNL     1      11.715  14.749  15.937  0.00  0.00    +0.000 HD
ENDBRANCH  21  22
ENDBRANCH  20  21
ENDBRANCH  19  20
ENDBRANCH  18  19
ENDBRANCH  17  18
ENDBRANCH  16  17
ENDBRANCH   1  16
TORSDOF 18
ENDMDL
MODEL 3
REMARK VINA RESULT:      -5.4      3.829      6.837
REMARK  Name = 
REMARK  18 active torsions:
REMARK  status: ('A' for Active; 'I' for Inactive)
REMARK    1  A    between atoms: N_1  and  C_2
REMARK    2  A    between atoms: C_2  and  C_3
REMARK    3  A    between atoms: C_3  and  C_4
REMARK    4  A    between atoms: C_4  and  C_5
REMARK    5  A    between atoms: C_5  and  C_6
REMARK    6  A    between atoms: C_6  and  C_7
REMARK    7  A    between atoms: C_7  and  C_8
REMARK    8  A    between atoms: C_8  and  C_9
REMARK    9  A    between atoms: C_9  and  N_10
REMARK   10  A    between atoms: N_10  and  C_11
REMARK   11  A    between atoms: C_11  and  C_12
REMARK   12  A    between atoms: C_12  and  C_13
REMARK   13  A    between atoms: C_13  and  C_14
REMARK   14  A    between atoms: C_14  and  C_15
REMARK   15  A    between atoms: C_15  and  C_16
REMARK   16  A    between atoms: C_16  and  C_17
REMARK   17  A    between atoms: C_17  and  C_18
REMARK   18  A    between atoms: C_18  and  N_19
REMARK                            x       y       z     vdW  Elec       q    Type
REMARK                         _______ _______ _______ _____ _____    ______ ____
ROOT
ATOM      1  C   UNL     1       3.666   3.724  17.536  0.00  0.00    +0.000 C 
ENDROOT
BRANCH   1   2
ATOM      2  C   UNL     1       2.388   3.002  17.138  0.00  0.00    +0.000 C 
BRANCH   2   3
ATOM      3  N   UNL     1       1.366   3.235  18.148  0.00  0.00    +0.000 NA
ATOM      4  H   UNL     1       1.405   4.204  18.464  0.00  0.00    +0.000 HD
BRANCH   3   5
ATOM      5  C   UNL     1       1.590   2.341  19.278  0.00  0.00    +0.000 C 
BRANCH   5   6
ATOM      6  C   UNL     1       1.760   3.162  20.544  0.00  0.00    +0.000 C 
BRANCH   6   7
ATOM      7  C   UNL     1       1.059   4.503  20.384  0.00  0.00    +0.000 C 
BRANCH   7   8
ATOM      8  C   UNL     1       1.997   5.636  20.765  0.00  0.00    +0.000 C 
BRANCH   8   9
ATOM      9  C   UNL     1       1.244   6.956  20.790  0.00  0.00    +0.000 C 
BRANCH   9  10
ATOM     10  C   UNL     1       1.883   7.944  19.827  0.00  0.00    +0.000 C 
BRANCH  10  11
ATOM     11  C   UNL     1       1.052   9.218  19.748  0.00  0.00    +0.000 C 
BRANCH  11  12
ATOM     12  C   UNL     1       1.617  10.153  18.687  0.00  0.00    +0.000 C 
BRANCH  12  13
ATOM     13  N   UNL     1       1.770   9.433  17.432  0.00  0.00    +0.000 NA
ATOM     14  H   UNL     1       1.851   8.436  17.625  0.00  0.00    +0.000 HD
ATOM     15  H   UNL     1       2.640   9.713  16.983  0.00  0.00    +0.000 HD
ENDBRANCH  12  13
ENDBRANCH  11  12
ENDBRANCH  10  11
ENDBRANCH   9  10
ENDBRANCH   8   9
ENDBRANCH   7   8
ENDBRANCH   6   7
ENDBRANCH   5   6
ENDBRANCH   3   5
ENDBRANCH   2   3
ENDBRANCH   1   2
BRANCH   1  16
ATOM     16  C   UNL     1       3.427   5.228  17.547  0.00  0.00    +0.000 C 
BRANCH  16  17
ATOM     17  C   UNL     1       4.552   5.937  18.286  0.00  0.00    +0.000 C 
BRANCH  17  18
ATOM     18  C   UNL     1       5.436   4.924  18.997  0.00  0.00    +0.000 C 
BRANCH  18  19
ATOM     19  C   UNL     1       6.730   5.580  19.459  0.00  0.00    +0.000 C 
BRANCH  19  20
ATOM     20  C   UNL     1       7.773   5.538  18.347  0.00  0.00    +0.000 C 
BRANCH  20  21
ATOM     21  C   UNL     1       7.306   4.641  17.215  0.00  0.00    +0.000 C 
BRANCH  21  22
ATOM     22  N   UNL     1       7.565   5.305  15.935  0.00  0.00    +0.000 NA
ATOM     23  C   UNL     1       7.019   4.741  14.917  0.00  0.00    +0.000 C 
ATOM     24  N   UNL     1       6.250   3.637  14.860  0.00  0.00    +0.000 N 
ATOM     25  N   UNL     1       7.193   5.272  13.700  0.00  0.00    +0.000 N 
ATOM     26  H   UNL     1       6.020   3.105  15.683  0.00  0.00    +0.000 HD
ATOM     27  H   UNL     1       5.889   3.298  13.988  0.00  0.00    +0.000 HD
ATOM     28  H   UNL     1       7.757   6.103  13.656  0.00  0.00    +0.000 HD
ATOM     29  H   UNL     1       6.804   4.892  12.857  0.00  0.00    +0.000 HD
ENDBRANCH  21  22
ENDBRANCH  20  21
ENDBRANCH  19  20
ENDBRANCH  18  19
ENDBRANCH  17  18
ENDBRANCH  16  17
ENDBRANCH   1  16
TORSDOF 18
ENDMDL
MODEL 4
REMARK VINA RESULT:      -5.4      4.258      6.230
REMARK  Name = 
REMARK  18 active torsions:
REMARK  status: ('A' for Active; 'I' for Inactive)
REMARK    1  A    between atoms: N_1  and  C_2
REMARK    2  A    between atoms: C_2  and  C_3
REMARK    3  A    between atoms: C_3  and  C_4
REMARK    4  A    between atoms: C_4  and  C_5
REMARK    5  A    between atoms: C_5  and  C_6
REMARK    6  A    between atoms: C_6  and  C_7
REMARK    7  A    between atoms: C_7  and  C_8
REMARK    8  A    between atoms: C_8  and  C_9
REMARK    9  A    between atoms: C_9  and  N_10
REMARK   10  A    between atoms: N_10  and  C_11
REMARK   11  A    between atoms: C_11  and  C_12
REMARK   12  A    between atoms: C_12  and  C_13
REMARK   13  A    between atoms: C_13  and  C_14
REMARK   14  A    between atoms: C_14  and  C_15
REMARK   15  A    between atoms: C_15  and  C_16
REMARK   16  A    between atoms: C_16  and  C_17
REMARK   17  A    between atoms: C_17  and  C_18
REMARK   18  A    between atoms: C_18  and  N_19
REMARK                            x       y       z     vdW  Elec       q    Type
REMARK                         _______ _______ _______ _____ _____    ______ ____
ROOT
ATOM      1  C   UNL     1       2.157   7.355  19.400  0.00  0.00    +0.000 C 
ENDROOT
BRANCH   1   2
ATOM      2  C   UNL     1       2.743   7.279  17.998  0.00  0.00    +0.000 C 
BRANCH   2   3
ATOM      3  N   UNL     1       3.494   6.040  17.855  0.00  0.00    +0.000 NA
ATOM      4  H   UNL     1       3.285   5.416  18.634  0.00  0.00    +0.000 HD
BRANCH   3   5
ATOM      5  C   UNL     1       4.921   6.339  17.832  0.00  0.00    +0.000 C 
BRANCH   5   6
ATOM      6  C   UNL     1       5.326   6.754  16.429  0.00  0.00    +0.000 C 
BRANCH   6   7
ATOM      7  C   UNL     1       5.304   5.542  15.508  0.00  0.00    +0.000 C 
BRANCH   7   8
ATOM      8  C   UNL     1       6.660   5.359  14.850  0.00  0.00    +0.000 C 
BRANCH   8   9
ATOM      9  C   UNL     1       6.763   3.972  14.237  0.00  0.00    +0.000 C 
BRANCH   9  10
ATOM     10  C   UNL     1       5.592   3.722  13.299  0.00  0.00    +0.000 C 
BRANCH  10  11
ATOM     11  C   UNL     1       6.095   3.369  11.906  0.00  0.00    +0.000 C 
BRANCH  11  12
ATOM     12  C   UNL     1       5.577   2.000  11.488  0.00  0.00    +0.000 C 
BRANCH  12  13
ATOM     13  N   UNL     1       6.695   1.083  11.322  0.00  0.00    +0.000 NA
ATOM     14  H   UNL     1       6.338   0.157  11.090  0.00  0.00    +0.000 HD
ATOM     15  H   UNL     1       7.192   0.989  12.206  0.00  0.00    +0.000 HD
ENDBRANCH  12  13
ENDBRANCH  11  12
ENDBRANCH  10  11
ENDBRANCH   9  10
ENDBRANCH   8   9
ENDBRANCH   7   8
ENDBRANCH   6   7
ENDBRANCH   5   6
ENDBRANCH   3   5
ENDBRANCH   2   3
ENDBRANCH   1   2
BRANCH   1  16
ATOM     16  C   UNL     1       2.710   6.222  20.253  0.00  0.00    +0.000 C 
BRANCH  16  17
ATOM     17  C   UNL     1       1.607   5.236  20.604  0.00  0.00    +0.000 C 
BRANCH  17  18
ATOM     18  C   UNL     1       2.164   4.104  21.454  0.00  0.00    +0.000 C 
BRANCH  18  19
ATOM     19  C   UNL     1       1.600   2.767  20.993  0.00  0.00    +0.000 C 
BRANCH  19  20
ATOM     20  C   UNL     1       0.731   2.956  19.755  0.00  0.00    +0.000 C 
BRANCH  20  21
ATOM     21  C   UNL     1       1.294   2.170  18.585  0.00  0.00    +0.000 C 
BRANCH  21  22
ATOM     22  N   UNL     1       2.428   2.901  18.014  0.00  0.00    +0.000 NA
ATOM     23  C   UNL     1       3.510   2.215  17.907  0.00  0.00    +0.000 C 
ATOM     24  N   UNL     1       3.748   0.933  18.243  0.00  0.00    +0.000 N 
ATOM     25  N   UNL     1       4.605   2.791  17.394  0.00  0.00    +0.000 N 
ATOM     26  H   UNL     1       3.036   0.347  18.649  0.00  0.00    +0.000 HD
ATOM     27  H   UNL     1       4.652   0.518  18.110  0.00  0.00    +0.000 HD
ATOM     28  H   UNL     1       4.510   3.752  17.116  0.00  0.00    +0.000 HD
ATOM     29  H   UNL     1       5.487   2.327  17.280  0.00  0.00    +0.000 HD
ENDBRANCH  21  22
ENDBRANCH  20  21
ENDBRANCH  19  20
ENDBRANCH  18  19
ENDBRANCH  17  18
ENDBRANCH  16  17
ENDBRANCH   1  16
TORSDOF 18
ENDMDL
MODEL 5
REMARK VINA RESULT:      -5.3      1.855      9.555
REMARK  Name = 
REMARK  18 active torsions:
REMARK  status: ('A' for Active; 'I' for Inactive)
REMARK    1  A    between atoms: N_1  and  C_2
REMARK    2  A    between atoms: C_2  and  C_3
REMARK    3  A    between atoms: C_3  and  C_4
REMARK    4  A    between atoms: C_4  and  C_5
REMARK    5  A    between atoms: C_5  and  C_6
REMARK    6  A    between atoms: C_6  and  C_7
REMARK    7  A    between atoms: C_7  and  C_8
REMARK    8  A    between atoms: C_8  and  C_9
REMARK    9  A    between atoms: C_9  and  N_10
REMARK   10  A    between atoms: N_10  and  C_11
REMARK   11  A    between atoms: C_11  and  C_12
REMARK   12  A    between atoms: C_12  and  C_13
REMARK   13  A    between atoms: C_13  and  C_14
REMARK   14  A    between atoms: C_14  and  C_15
REMARK   15  A    between atoms: C_15  and  C_16
REMARK   16  A    between atoms: C_16  and  C_17
REMARK   17  A    between atoms: C_17  and  C_18
REMARK   18  A    between atoms: C_18  and  N_19
REMARK                            x       y       z     vdW  Elec       q    Type
REMARK                         _______ _______ _______ _____ _____    ______ ____
ROOT
ATOM      1  C   UNL     1       7.021   5.979  16.510  0.00  0.00    +0.000 C 
ENDROOT
BRANCH   1   2
ATOM      2  C   UNL     1       7.315   4.491  16.620  0.00  0.00    +0.000 C 
BRANCH   2   3
ATOM      3  N   UNL     1       6.061   3.751  16.645  0.00  0.00    +0.000 NA
ATOM      4  H   UNL     1       6.099   2.981  15.976  0.00  0.00    +0.000 HD
BRANCH   3   5
ATOM      5  C   UNL     1       4.963   4.647  16.301  0.00  0.00    +0.000 C 
BRANCH   5   6
ATOM      6  C   UNL     1       3.823   4.446  17.284  0.00  0.00    +0.000 C 
BRANCH   6   7
ATOM      7  C   UNL     1       3.832   5.564  18.317  0.00  0.00    +0.000 C 
BRANCH   7   8
ATOM      8  C   UNL     1       2.410   5.988  18.643  0.00  0.00    +0.000 C 
BRANCH   8   9
ATOM      9  C   UNL     1       2.180   5.943  20.145  0.00  0.00    +0.000 C 
BRANCH   9  10
ATOM     10  C   UNL     1       1.332   4.735  20.511  0.00  0.00    +0.000 C 
BRANCH  10  11
ATOM     11  C   UNL     1       2.103   3.810  21.443  0.00  0.00    +0.000 C 
BRANCH  11  12
ATOM     12  C   UNL     1       2.781   2.702  20.648  0.00  0.00    +0.000 C 
BRANCH  12  13
ATOM     13  N   UNL     1       1.855   2.175  19.657  0.00  0.00    +0.000 NA
ATOM     14  H   UNL     1       2.366   1.960  18.802  0.00  0.00    +0.000 HD
ATOM     15  H   UNL     1       1.172   2.890  19.415  0.00  0.00    +0.000 HD
ENDBRANCH  12  13
ENDBRANCH  11  12
ENDBRANCH  10  11
ENDBRANCH   9  10
ENDBRANCH   8   9
ENDBRANCH   7   8
ENDBRANCH   6   7
ENDBRANCH   5   6
ENDBRANCH   3   5
ENDBRANCH   2   3
ENDBRANCH   1   2
BRANCH   1  16
ATOM     16  C   UNL     1       7.418   6.681  17.801  0.00  0.00    +0.000 C 
BRANCH  16  17
ATOM     17  C   UNL     1       7.547   8.179  17.572  0.00  0.00    +0.000 C 
BRANCH  17  18
ATOM     18  C   UNL     1       8.613   8.761  18.487  0.00  0.00    +0.000 C 
BRANCH  18  19
ATOM     19  C   UNL     1       8.763  10.256  18.244  0.00  0.00    +0.000 C 
BRANCH  19  20
ATOM     20  C   UNL     1       9.435  10.924  19.439  0.00  0.00    +0.000 C 
BRANCH  20  21
ATOM     21  C   UNL     1      10.580  11.809  18.979  0.00  0.00    +0.000 C 
BRANCH  21  22
ATOM     22  N   UNL     1      10.171  13.212  19.071  0.00  0.00    +0.000 NA
ATOM     23  C   UNL     1      10.292  13.879  17.978  0.00  0.00    +0.000 C 
ATOM     24  N   UNL     1      10.735  13.474  16.773  0.00  0.00    +0.000 N 
ATOM     25  N   UNL     1       9.943  15.171  17.954  0.00  0.00    +0.000 N 
ATOM     26  H   UNL     1      11.045  12.530  16.608  0.00  0.00    +0.000 HD
ATOM     27  H   UNL     1      10.784  14.107  15.995  0.00  0.00    +0.000 HD
ATOM     28  H   UNL     1       9.599  15.552  18.819  0.00  0.00    +0.000 HD
ATOM     29  H   UNL     1      10.009  15.760  17.145  0.00  0.00    +0.000 HD
ENDBRANCH  21  22
ENDBRANCH  20  21
ENDBRANCH  19  20
ENDBRANCH  18  19
ENDBRANCH  17  18
ENDBRANCH  16  17
ENDBRANCH   1  16
TORSDOF 18
ENDMDL
MODEL 6
REMARK VINA RESULT:      -5.3      1.986      9.134
REMARK  Name = 
REMARK  18 active torsions:
REMARK  status: ('A' for Active; 'I' for Inactive)
REMARK    1  A    between atoms: N_1  and  C_2
REMARK    2  A    between atoms: C_2  and  C_3
REMARK    3  A    between atoms: C_3  and  C_4
REMARK    4  A    between atoms: C_4  and  C_5
REMARK    5  A    between atoms: C_5  and  C_6
REMARK    6  A    between atoms: C_6  and  C_7
REMARK    7  A    between atoms: C_7  and  C_8
REMARK    8  A    between atoms: C_8  and  C_9
REMARK    9  A    between atoms: C_9  and  N_10
REMARK   10  A    between atoms: N_10  and  C_11
REMARK   11  A    between atoms: C_11  and  C_12
REMARK   12  A    between atoms: C_12  and  C_13
REMARK   13  A    between atoms: C_13  and  C_14
REMARK   14  A    between atoms: C_14  and  C_15
REMARK   15  A    between atoms: C_15  and  C_16
REMARK   16  A    between atoms: C_16  and  C_17
REMARK   17  A    between atoms: C_17  and  C_18
REMARK   18  A    between atoms: C_18  and  N_19
REMARK                            x       y       z     vdW  Elec       q    Type
REMARK                         _______ _______ _______ _____ _____    ______ ____
ROOT
ATOM      1  C   UNL     1       5.370   5.190  17.454  0.00  0.00    +0.000 C 
ENDROOT
BRANCH   1   2
ATOM      2  C   UNL     1       4.719   5.496  18.793  0.00  0.00    +0.000 C 
BRANCH   2   3
ATOM      3  N   UNL     1       3.278   5.603  18.617  0.00  0.00    +0.000 NA
ATOM      4  H   UNL     1       3.060   5.767  17.634  0.00  0.00    +0.000 HD
BRANCH   3   5
ATOM      5  C   UNL     1       2.772   6.708  19.423  0.00  0.00    +0.000 C 
BRANCH   5   6
ATOM      6  C   UNL     1       1.810   6.170  20.468  0.00  0.00    +0.000 C 
BRANCH   6   7
ATOM      7  C   UNL     1       2.213   4.754  20.855  0.00  0.00    +0.000 C 
BRANCH   7   8
ATOM      8  C   UNL     1       1.030   3.813  20.707  0.00  0.00    +0.000 C 
BRANCH   8   9
ATOM      9  C   UNL     1       1.489   2.476  20.147  0.00  0.00    +0.000 C 
BRANCH   9  10
ATOM     10  C   UNL     1       1.111   2.364  18.678  0.00  0.00    +0.000 C 
BRANCH  10  11
ATOM     11  C   UNL     1       2.360   2.206  17.821  0.00  0.00    +0.000 C 
BRANCH  11  12
ATOM     12  C   UNL     1       3.574   1.937  18.700  0.00  0.00    +0.000 C 
BRANCH  12  13
ATOM     13  N   UNL     1       4.164   0.656  18.340  0.00  0.00    +0.000 NA
ATOM     14  H   UNL     1       4.399   0.663  17.348  0.00  0.00    +0.000 HD
ATOM     15  H   UNL     1       3.476  -0.084  18.469  0.00  0.00    +0.000 HD
ENDBRANCH  12  13
ENDBRANCH  11  12
ENDBRANCH  10  11
ENDBRANCH   9  10
ENDBRANCH   8   9
ENDBRANCH   7   8
ENDBRANCH   6   7
ENDBRANCH   5   6
ENDBRANCH   3   5
ENDBRANCH   2   3
ENDBRANCH   1   2
BRANCH   1  16
ATOM     16  C   UNL     1       6.464   6.209  17.166  0.00  0.00    +0.000 C 
BRANCH  16  17
ATOM     17  C   UNL     1       7.632   6.017  18.122  0.00  0.00    +0.000 C 
BRANCH  17  18
ATOM     18  C   UNL     1       8.123   7.364  18.630  0.00  0.00    +0.000 C 
BRANCH  18  19
ATOM     19  C   UNL     1       8.034   8.411  17.529  0.00  0.00    +0.000 C 
BRANCH  19  20
ATOM     20  C   UNL     1       8.128   9.813  18.121  0.00  0.00    +0.000 C 
BRANCH  20  21
ATOM     21  C   UNL     1       9.416   9.973  18.909  0.00  0.00    +0.000 C 
BRANCH  21  22
ATOM     22  N   UNL     1       9.125  10.636  20.182  0.00  0.00    +0.000 NA
ATOM     23  C   UNL     1      10.038  11.445  20.587  0.00  0.00    +0.000 C 
ATOM     24  N   UNL     1      11.213  11.766  20.013  0.00  0.00    +0.000 N 
ATOM     25  N   UNL     1       9.867  12.105  21.740  0.00  0.00    +0.000 N 
ATOM     26  H   UNL     1      11.509  11.360  19.141  0.00  0.00    +0.000 HD
ATOM     27  H   UNL     1      11.843  12.417  20.445  0.00  0.00    +0.000 HD
ATOM     28  H   UNL     1       9.011  11.920  22.232  0.00  0.00    +0.000 HD
ATOM     29  H   UNL     1      10.532  12.749  22.125  0.00  0.00    +0.000 HD
ENDBRANCH  21  22
ENDBRANCH  20  21
ENDBRANCH  19  20
ENDBRANCH  18  19
ENDBRANCH  17  18
ENDBRANCH  16  17
ENDBRANCH   1  16
TORSDOF 18
ENDMDL
MODEL 7
REMARK VINA RESULT:      -5.3      4.882      8.001
REMARK  Name = 
REMARK  18 active torsions:
REMARK  status: ('A' for Active; 'I' for Inactive)
REMARK    1  A    between atoms: N_1  and  C_2
REMARK    2  A    between atoms: C_2  and  C_3
REMARK    3  A    between atoms: C_3  and  C_4
REMARK    4  A    between atoms: C_4  and  C_5
REMARK    5  A    between atoms: C_5  and  C_6
REMARK    6  A    between atoms: C_6  and  C_7
REMARK    7  A    between atoms: C_7  and  C_8
REMARK    8  A    between atoms: C_8  and  C_9
REMARK    9  A    between atoms: C_9  and  N_10
REMARK   10  A    between atoms: N_10  and  C_11
REMARK   11  A    between atoms: C_11  and  C_12
REMARK   12  A    between atoms: C_12  and  C_13
REMARK   13  A    between atoms: C_13  and  C_14
REMARK   14  A    between atoms: C_14  and  C_15
REMARK   15  A    between atoms: C_15  and  C_16
REMARK   16  A    between atoms: C_16  and  C_17
REMARK   17  A    between atoms: C_17  and  C_18
REMARK   18  A    between atoms: C_18  and  N_19
REMARK                            x       y       z     vdW  Elec       q    Type
REMARK                         _______ _______ _______ _____ _____    ______ ____
ROOT
ATOM      1  C   UNL     1       2.222   6.475  20.220  0.00  0.00    +0.000 C 
ENDROOT
BRANCH   1   2
ATOM      2  C   UNL     1       2.251   5.015  20.646  0.00  0.00    +0.000 C 
BRANCH   2   3
ATOM      3  N   UNL     1       1.011   4.369  20.240  0.00  0.00    +0.000 NA
ATOM      4  H   UNL     1       0.380   4.298  21.038  0.00  0.00    +0.000 HD
BRANCH   3   5
ATOM      5  C   UNL     1       1.305   3.037  19.725  0.00  0.00    +0.000 C 
BRANCH   5   6
ATOM      6  C   UNL     1       1.434   3.099  18.213  0.00  0.00    +0.000 C 
BRANCH   6   7
ATOM      7  C   UNL     1       2.693   2.365  17.775  0.00  0.00    +0.000 C 
BRANCH   7   8
ATOM      8  C   UNL     1       3.916   3.237  18.004  0.00  0.00    +0.000 C 
BRANCH   8   9
ATOM      9  C   UNL     1       4.489   3.698  16.674  0.00  0.00    +0.000 C 
BRANCH   9  10
ATOM     10  C   UNL     1       4.697   5.204  16.684  0.00  0.00    +0.000 C 
BRANCH  10  11
ATOM     11  C   UNL     1       6.111   5.540  17.141  0.00  0.00    +0.000 C 
BRANCH  11  12
ATOM     12  C   UNL     1       7.122   4.656  16.424  0.00  0.00    +0.000 C 
BRANCH  12  13
ATOM     13  N   UNL     1       7.541   5.297  15.187  0.00  0.00    +0.000 NA
ATOM     14  H   UNL     1       8.522   5.083  15.014  0.00  0.00    +0.000 HD
ATOM     15  H   UNL     1       7.479   6.308  15.290  0.00  0.00    +0.000 HD
ENDBRANCH  12  13
ENDBRANCH  11  12
ENDBRANCH  10  11
ENDBRANCH   9  10
ENDBRANCH   8   9
ENDBRANCH   7   8
ENDBRANCH   6   7
ENDBRANCH   5   6
ENDBRANCH   3   5
ENDBRANCH   2   3
ENDBRANCH   1   2
BRANCH   1  16
ATOM     16  C   UNL     1       2.097   6.570  18.706  0.00  0.00    +0.000 C 
BRANCH  16  17
ATOM     17  C   UNL     1       2.740   7.852  18.200  0.00  0.00    +0.000 C 
BRANCH  17  18
ATOM     18  C   UNL     1       1.669   8.844  17.773  0.00  0.00    +0.000 C 
BRANCH  18  19
ATOM     19  C   UNL     1       1.058   9.523  18.991  0.00  0.00    +0.000 C 
BRANCH  19  20
ATOM     20  C   UNL     1       0.159  10.677  18.560  0.00  0.00    +0.000 C 
BRANCH  20  21
ATOM     21  C   UNL     1      -1.289  10.227  18.498  0.00  0.00    +0.000 C 
BRANCH  21  22
ATOM     22  N   UNL     1      -1.655   9.966  17.104  0.00  0.00    +0.000 NA
ATOM     23  C   UNL     1      -2.506  10.792  16.609  0.00  0.00    +0.000 C 
ATOM     24  N   UNL     1      -3.105  11.852  17.184  0.00  0.00    +0.000 N 
ATOM     25  N   UNL     1      -2.905  10.642  15.339  0.00  0.00    +0.000 N 
ATOM     26  H   UNL     1      -2.926  12.112  18.140  0.00  0.00    +0.000 HD
ATOM     27  H   UNL     1      -3.763  12.417  16.679  0.00  0.00    +0.000 HD
ATOM     28  H   UNL     1      -2.503   9.870  14.838  0.00  0.00    +0.000 HD
ATOM     29  H   UNL     1      -3.567  11.240  14.881  0.00  0.00    +0.000 HD
ENDBRANCH  21  22
ENDBRANCH  20  21
ENDBRANCH  19  20
ENDBRANCH  18  19
ENDBRANCH  17  18
ENDBRANCH  16  17
ENDBRANCH   1  16
TORSDOF 18
ENDMDL
MODEL 8
REMARK VINA RESULT:      -5.3      2.253      8.627
REMARK  Name = 
REMARK  18 active torsions:
REMARK  status: ('A' for Active; 'I' for Inactive)
REMARK    1  A    between atoms: N_1  and  C_2
REMARK    2  A    between atoms: C_2  and  C_3
REMARK    3  A    between atoms: C_3  and  C_4
REMARK    4  A    between atoms: C_4  and  C_5
REMARK    5  A    between atoms: C_5  and  C_6
REMARK    6  A    between atoms: C_6  and  C_7
REMARK    7  A    between atoms: C_7  and  C_8
REMARK    8  A    between atoms: C_8  and  C_9
REMARK    9  A    between atoms: C_9  and  N_10
REMARK   10  A    between atoms: N_10  and  C_11
REMARK   11  A    between atoms: C_11  and  C_12
REMARK   12  A    between atoms: C_12  and  C_13
REMARK   13  A    between atoms: C_13  and  C_14
REMARK   14  A    between atoms: C_14  and  C_15
REMARK   15  A    between atoms: C_15  and  C_16
REMARK   16  A    between atoms: C_16  and  C_17
REMARK   17  A    between atoms: C_17  and  C_18
REMARK   18  A    between atoms: C_18  and  N_19
REMARK                            x       y       z     vdW  Elec       q    Type
REMARK                         _______ _______ _______ _____ _____    ______ ____
ROOT
ATOM      1  C   UNL     1       5.459   4.398  18.865  0.00  0.00    +0.000 C 
ENDROOT
BRANCH   1   2
ATOM      2  C   UNL     1       5.397   4.052  17.385  0.00  0.00    +0.000 C 
BRANCH   2   3
ATOM      3  N   UNL     1       4.477   2.941  17.186  0.00  0.00    +0.000 NA
ATOM      4  H   UNL     1       4.558   2.590  16.232  0.00  0.00    +0.000 HD
BRANCH   3   5
ATOM      5  C   UNL     1       3.112   3.394  17.429  0.00  0.00    +0.000 C 
BRANCH   5   6
ATOM      6  C   UNL     1       2.233   2.197  17.744  0.00  0.00    +0.000 C 
BRANCH   6   7
ATOM      7  C   UNL     1       2.110   2.034  19.253  0.00  0.00    +0.000 C 
BRANCH   7   8
ATOM      8  C   UNL     1       0.984   2.905  19.784  0.00  0.00    +0.000 C 
BRANCH   8   9
ATOM      9  C   UNL     1       1.385   3.528  21.112  0.00  0.00    +0.000 C 
BRANCH   9  10
ATOM     10  C   UNL     1       2.332   4.695  20.882  0.00  0.00    +0.000 C 
BRANCH  10  11
ATOM     11  C   UNL     1       1.551   5.939  20.481  0.00  0.00    +0.000 C 
BRANCH  11  12
ATOM     12  C   UNL     1       2.465   6.934  19.778  0.00  0.00    +0.000 C 
BRANCH  12  13
ATOM     13  N   UNL     1       2.472   6.666  18.348  0.00  0.00    +0.000 NA
ATOM     14  H   UNL     1       3.045   5.844  18.164  0.00  0.00    +0.000 HD
ATOM     15  H   UNL     1       2.914   7.443  17.859  0.00  0.00    +0.000 HD
ENDBRANCH  12  13
ENDBRANCH  11  12
ENDBRANCH  10  11
ENDBRANCH   9  10
ENDBRANCH   8   9
ENDBRANCH   7   8
ENDBRANCH   6   7
ENDBRANCH   5   6
ENDBRANCH   3   5
ENDBRANCH   2   3
ENDBRANCH   1   2
BRANCH   1  16
ATOM     16  C   UNL     1       6.160   5.736  19.054  0.00  0.00    +0.000 C 
BRANCH  16  17
ATOM     17  C   UNL     1       7.391   5.820  18.163  0.00  0.00    +0.000 C 
BRANCH  17  18
ATOM     18  C   UNL     1       7.485   7.197  17.524  0.00  0.00    +0.000 C 
BRANCH  18  19
ATOM     19  C   UNL     1       8.332   8.124  18.384  0.00  0.00    +0.000 C 
BRANCH  19  20
ATOM     20  C   UNL     1       8.178   9.568  17.918  0.00  0.00    +0.000 C 
BRANCH  20  21
ATOM     21  C   UNL     1       9.326  10.418  18.432  0.00  0.00    +0.000 C 
BRANCH  21  22
ATOM     22  N   UNL     1       9.206  10.564  19.884  0.00  0.00    +0.000 NA
ATOM     23  C   UNL     1       9.891  11.531  20.385  0.00  0.00    +0.000 C 
ATOM     24  N   UNL     1      10.696  12.418  19.770  0.00  0.00    +0.000 N 
ATOM     25  N   UNL     1       9.849  11.751  21.705  0.00  0.00    +0.000 N 
ATOM     26  H   UNL     1      10.850  12.398  18.775  0.00  0.00    +0.000 HD
ATOM     27  H   UNL     1      11.182  13.127  20.287  0.00  0.00    +0.000 HD
ATOM     28  H   UNL     1       9.268  11.129  22.239  0.00  0.00    +0.000 HD
ATOM     29  H   UNL     1      10.355  12.480  22.172  0.00  0.00    +0.000 HD
ENDBRANCH  21  22
ENDBRANCH  20  21
ENDBRANCH  19  20
ENDBRANCH  18  19
ENDBRANCH  17  18
ENDBRANCH  16  17
ENDBRANCH   1  16
TORSDOF 18
ENDMDL
MODEL 9
REMARK VINA RESULT:      -5.2      2.181     10.408
REMARK  Name = 
REMARK  18 active torsions:
REMARK  status: ('A' for Active; 'I' for Inactive)
REMARK    1  A    between atoms: N_1  and  C_2
REMARK    2  A    between atoms: C_2  and  C_3
REMARK    3  A    between atoms: C_3  and  C_4
REMARK    4  A    between atoms: C_4  and  C_5
REMARK    5  A    between atoms: C_5  and  C_6
REMARK    6  A    between atoms: C_6  and  C_7
REMARK    7  A    between atoms: C_7  and  C_8
REMARK    8  A    between atoms: C_8  and  C_9
REMARK    9  A    between atoms: C_9  and  N_10
REMARK   10  A    between atoms: N_10  and  C_11
REMARK   11  A    between atoms: C_11  and  C_12
REMARK   12  A    between atoms: C_12  and  C_13
REMARK   13  A    between atoms: C_13  and  C_14
REMARK   14  A    between atoms: C_14  and  C_15
REMARK   15  A    between atoms: C_15  and  C_16
REMARK   16  A    between atoms: C_16  and  C_17
REMARK   17  A    between atoms: C_17  and  C_18
REMARK   18  A    between atoms: C_18  and  N_19
REMARK                            x       y       z     vdW  Elec       q    Type
REMARK                         _______ _______ _______ _____ _____    ______ ____
ROOT
ATOM      1  C   UNL     1       6.606   7.442  17.312  0.00  0.00    +0.000 C 
ENDROOT
BRANCH   1   2
ATOM      2  C   UNL     1       6.117   6.206  18.052  0.00  0.00    +0.000 C 
BRANCH   2   3
ATOM      3  N   UNL     1       4.852   5.768  17.480  0.00  0.00    +0.000 NA
ATOM      4  H   UNL     1       4.324   5.235  18.172  0.00  0.00    +0.000 HD
BRANCH   3   5
ATOM      5  C   UNL     1       5.112   4.936  16.311  0.00  0.00    +0.000 C 
BRANCH   5   6
ATOM      6  C   UNL     1       4.611   3.527  16.575  0.00  0.00    +0.000 C 
BRANCH   6   7
ATOM      7  C   UNL     1       3.631   3.541  17.740  0.00  0.00    +0.000 C 
BRANCH   7   8
ATOM      8  C   UNL     1       2.934   2.196  17.856  0.00  0.00    +0.000 C 
BRANCH   8   9
ATOM      9  C   UNL     1       1.522   2.380  18.386  0.00  0.00    +0.000 C 
BRANCH   9  10
ATOM     10  C   UNL     1       1.306   3.821  18.820  0.00  0.00    +0.000 C 
BRANCH  10  11
ATOM     11  C   UNL     1       0.913   3.879  20.290  0.00  0.00    +0.000 C 
BRANCH  11  12
ATOM     12  C   UNL     1       2.136   3.672  21.173  0.00  0.00    +0.000 C 
BRANCH  12  13
ATOM     13  N   UNL     1       1.842   2.674  22.190  0.00  0.00    +0.000 NA
ATOM     14  H   UNL     1       1.766   3.132  23.098  0.00  0.00    +0.000 HD
ATOM     15  H   UNL     1       2.621   2.020  22.260  0.00  0.00    +0.000 HD
ENDBRANCH  12  13
ENDBRANCH  11  12
ENDBRANCH  10  11
ENDBRANCH   9  10
ENDBRANCH   8   9
ENDBRANCH   7   8
ENDBRANCH   6   7
ENDBRANCH   5   6
ENDBRANCH   3   5
ENDBRANCH   2   3
ENDBRANCH   1   2
BRANCH   1  16
ATOM     16  C   UNL     1       8.003   7.811  17.790  0.00  0.00    +0.000 C 
BRANCH  16  17
ATOM     17  C   UNL     1       8.127   9.318  17.953  0.00  0.00    +0.000 C 
BRANCH  17  18
ATOM     18  C   UNL     1       9.186   9.650  18.992  0.00  0.00    +0.000 C 
BRANCH  18  19
ATOM     19  C   UNL     1       9.217  11.148  19.260  0.00  0.00    +0.000 C 
BRANCH  19  20
ATOM     20  C   UNL     1       9.931  11.876  18.125  0.00  0.00    +0.000 C 
BRANCH  20  21
ATOM     21  C   UNL     1      10.204  13.319  18.509  0.00  0.00    +0.000 C 
BRANCH  21  22
ATOM     22  N   UNL     1      10.908  13.985  17.411  0.00  0.00    +0.000 NA
ATOM     23  C   UNL     1      10.387  15.100  17.037  0.00  0.00    +0.000 C 
ATOM     24  N   UNL     1       9.297  15.735  17.506  0.00  0.00    +0.000 N 
ATOM     25  N   UNL     1      10.957  15.790  16.040  0.00  0.00    +0.000 N 
ATOM     26  H   UNL     1       8.740  15.357  18.254  0.00  0.00    +0.000 HD
ATOM     27  H   UNL     1       8.993  16.608  17.114  0.00  0.00    +0.000 HD
ATOM     28  H   UNL     1      11.781  15.382  15.634  0.00  0.00    +0.000 HD
ATOM     29  H   UNL     1      10.612  16.663  15.688  0.00  0.00    +0.000 HD
ENDBRANCH  21  22
ENDBRANCH  20  21
ENDBRANCH  19  20
ENDBRANCH  18  19
ENDBRANCH  17  18
ENDBRANCH  16  17
ENDBRANCH   1  16
TORSDOF 18
ENDMDL
