MODEL 1
REMARK VINA RESULT:      -8.0      0.000      0.000
REMARK  Name = 
REMARK  7 active torsions:
REMARK  status: ('A' for Active; 'I' for Inactive)
REMARK    1  A    between atoms: C_1  and  C_2
REMARK    2  A    between atoms: C_5  and  C_6
REMARK    3  A    between atoms: N_7  and  O_8
REMARK    4  A    between atoms: N_9  and  C_10
REMARK    5  A    between atoms: C_10  and  C_11
REMARK    6  A    between atoms: C_17  and  O_18
REMARK    7  A    between atoms: O_18  and  C_19
REMARK                            x       y       z     vdW  Elec       q    Type
REMARK                         _______ _______ _______ _____ _____    ______ ____
ROOT
ATOM      1  C   UNL     1       4.941   3.858  13.481  0.00  0.00    +0.000 C 
ATOM      2  C   UNL     1       5.678   4.477  14.625  0.00  0.00    +0.000 A 
ATOM      3  C   UNL     1       7.033   4.252  14.836  0.00  0.00    +0.000 A 
ATOM      4  C   UNL     1       7.637   4.810  15.964  0.00  0.00    +0.000 A 
ATOM      5  C   UNL     1       6.889   5.599  16.849  0.00  0.00    +0.000 A 
ATOM      6  C   UNL     1       5.547   5.802  16.535  0.00  0.00    +0.000 A 
ATOM      7  N   UNL     1       4.939   5.240  15.457  0.00  0.00    +0.000 NA
ENDROOT
BRANCH   5   8
ATOM      8  C   UNL     1       7.541   6.039  18.119  0.00  0.00    +0.000 C 
ATOM      9  N   UNL     1       7.826   5.086  18.974  0.00  0.00    +0.000 NA
ATOM     10  N   UNL     1       7.810   7.342  18.453  0.00  0.00    +0.000 N 
ATOM     11  H   UNL     1       8.212   7.417  19.382  0.00  0.00    +0.000 HD
BRANCH   9  12
ATOM     12  O   UNL     1       8.396   5.616  20.148  0.00  0.00    +0.000 OA
ATOM     13  H   UNL     1       7.788   6.352  20.347  0.00  0.00    +0.000 HD
ENDBRANCH   9  12
BRANCH  10  14
ATOM     14  C   UNL     1       7.916   8.510  17.621  0.00  0.00    +0.000 C 
BRANCH  14  15
ATOM     15  C   UNL     1       8.570   9.726  18.230  0.00  0.00    +0.000 A 
ATOM     16  C   UNL     1       9.240   9.714  19.450  0.00  0.00    +0.000 A 
ATOM     17  C   UNL     1       9.676  10.928  19.984  0.00  0.00    +0.000 A 
ATOM     18  C   UNL     1       9.436  12.111  19.296  0.00  0.00    +0.000 A 
ATOM     19  C   UNL     1       8.778  12.037  18.084  0.00  0.00    +0.000 A 
ATOM     20  N   UNL     1       8.343  10.881  17.547  0.00  0.00    +0.000 NA
ENDBRANCH  14  15
ENDBRANCH  10  14
ENDBRANCH   5   8
BRANCH   6  21
ATOM     21  O   UNL     1       4.747   6.584  17.348  0.00  0.00    +0.000 OA
BRANCH  21  22
ATOM     22  C   UNL     1       3.994   5.947  18.328  0.00  0.00    +0.000 A 
ATOM     23  C   UNL     1       4.260   4.639  18.768  0.00  0.00    +0.000 A 
ATOM     24  C   UNL     1       3.463   4.054  19.751  0.00  0.00    +0.000 A 
ATOM     25 CL   UNL     1       3.830   2.473  20.325  0.00  0.00    +0.000 Cl
ATOM     26  C   UNL     1       2.365   4.739  20.273  0.00  0.00    +0.000 A 
ATOM     27  C   UNL     1       2.071   6.021  19.806  0.00  0.00    +0.000 A 
ATOM     28  C   UNL     1       2.874   6.621  18.829  0.00  0.00    +0.000 A 
ATOM     29 CL   UNL     1       2.442   8.193  18.264  0.00  0.00    +0.000 Cl
ENDBRANCH  21  22
ENDBRANCH   6  21
TORSDOF 6
ENDMDL
MODEL 2
REMARK VINA RESULT:      -7.8      3.934      5.927
REMARK  Name = 
REMARK  7 active torsions:
REMARK  status: ('A' for Active; 'I' for Inactive)
REMARK    1  A    between atoms: C_1  and  C_2
REMARK    2  A    between atoms: C_5  and  C_6
REMARK    3  A    between atoms: N_7  and  O_8
REMARK    4  A    between atoms: N_9  and  C_10
REMARK    5  A    between atoms: C_10  and  C_11
REMARK    6  A    between atoms: C_17  and  O_18
REMARK    7  A    between atoms: O_18  and  C_19
REMARK                            x       y       z     vdW  Elec       q    Type
REMARK                         _______ _______ _______ _____ _____    ______ ____
ROOT
ATOM      1  C   UNL     1       0.878   2.983  20.893  0.00  0.00    +0.000 C 
ATOM      2  C   UNL     1       2.100   3.303  20.095  0.00  0.00    +0.000 A 
ATOM      3  C   UNL     1       2.793   2.329  19.387  0.00  0.00    +0.000 A 
ATOM      4  C   UNL     1       3.965   2.692  18.720  0.00  0.00    +0.000 A 
ATOM      5  C   UNL     1       4.414   4.019  18.751  0.00  0.00    +0.000 A 
ATOM      6  C   UNL     1       3.632   4.935  19.453  0.00  0.00    +0.000 A 
ATOM      7  N   UNL     1       2.507   4.589  20.132  0.00  0.00    +0.000 NA
ENDROOT
BRANCH   5   8
ATOM      8  C   UNL     1       5.751   4.321  18.157  0.00  0.00    +0.000 C 
ATOM      9  N   UNL     1       6.746   4.408  19.006  0.00  0.00    +0.000 NA
ATOM     10  N   UNL     1       5.984   4.550  16.825  0.00  0.00    +0.000 N 
ATOM     11  H   UNL     1       6.956   4.784  16.648  0.00  0.00    +0.000 HD
BRANCH   9  12
ATOM     12  O   UNL     1       7.946   4.738  18.346  0.00  0.00    +0.000 OA
ATOM     13  H   UNL     1       8.614   4.430  18.987  0.00  0.00    +0.000 HD
ENDBRANCH   9  12
BRANCH  10  14
ATOM     14  C   UNL     1       5.196   4.208  15.672  0.00  0.00    +0.000 C 
BRANCH  14  15
ATOM     15  C   UNL     1       5.877   4.292  14.329  0.00  0.00    +0.000 A 
ATOM     16  C   UNL     1       5.562   3.471  13.250  0.00  0.00    +0.000 A 
ATOM     17  C   UNL     1       6.359   3.538  12.105  0.00  0.00    +0.000 A 
ATOM     18  C   UNL     1       7.437   4.413  12.064  0.00  0.00    +0.000 A 
ATOM     19  C   UNL     1       7.675   5.205  13.170  0.00  0.00    +0.000 A 
ATOM     20  N   UNL     1       6.927   5.159  14.289  0.00  0.00    +0.000 NA
ENDBRANCH  14  15
ENDBRANCH  10  14
ENDBRANCH   5   8
BRANCH   6  21
ATOM     21  O   UNL     1       3.998   6.267  19.514  0.00  0.00    +0.000 OA
BRANCH  21  22
ATOM     22  C   UNL     1       3.014   7.223  19.287  0.00  0.00    +0.000 A 
ATOM     23  C   UNL     1       2.053   7.577  20.249  0.00  0.00    +0.000 A 
ATOM     24  C   UNL     1       1.089   8.541  19.956  0.00  0.00    +0.000 A 
ATOM     25 CL   UNL     1      -0.048   9.010  21.159  0.00  0.00    +0.000 Cl
ATOM     26  C   UNL     1       1.036   9.127  18.691  0.00  0.00    +0.000 A 
ATOM     27  C   UNL     1       1.961   8.746  17.718  0.00  0.00    +0.000 A 
ATOM     28  C   UNL     1       2.941   7.789  18.008  0.00  0.00    +0.000 A 
ATOM     29 CL   UNL     1       4.035   7.329  16.756  0.00  0.00    +0.000 Cl
ENDBRANCH  21  22
ENDBRANCH   6  21
TORSDOF 6
ENDMDL
MODEL 3
REMARK VINA RESULT:      -7.8      1.149      1.474
REMARK  Name = 
REMARK  7 active torsions:
REMARK  status: ('A' for Active; 'I' for Inactive)
REMARK    1  A    between atoms: C_1  and  C_2
REMARK    2  A    between atoms: C_5  and  C_6
REMARK    3  A    between atoms: N_7  and  O_8
REMARK    4  A    between atoms: N_9  and  C_10
REMARK    5  A    between atoms: C_10  and  C_11
REMARK    6  A    between atoms: C_17  and  O_18
REMARK    7  A    between atoms: O_18  and  C_19
REMARK                            x       y       z     vdW  Elec       q    Type
REMARK                         _______ _______ _______ _____ _____    ______ ____
ROOT
ATOM      1  C   UNL     1       4.982   3.703  13.526  0.00  0.00    +0.000 C 
ATOM      2  C   UNL     1       5.682   4.366  14.668  0.00  0.00    +0.000 A 
ATOM      3  C   UNL     1       7.052   4.593  14.661  0.00  0.00    +0.000 A 
ATOM      4  C   UNL     1       7.644   5.157  15.793  0.00  0.00    +0.000 A 
ATOM      5  C   UNL     1       6.860   5.505  16.901  0.00  0.00    +0.000 A 
ATOM      6  C   UNL     1       5.489   5.278  16.802  0.00  0.00    +0.000 A 
ATOM      7  N   UNL     1       4.904   4.701  15.719  0.00  0.00    +0.000 NA
ENDROOT
BRANCH   5   8
ATOM      8  C   UNL     1       7.560   5.955  18.142  0.00  0.00    +0.000 C 
ATOM      9  N   UNL     1       7.842   5.015  19.011  0.00  0.00    +0.000 NA
ATOM     10  N   UNL     1       7.875   7.257  18.436  0.00  0.00    +0.000 N 
ATOM     11  H   UNL     1       8.305   7.342  19.352  0.00  0.00    +0.000 HD
BRANCH   9  12
ATOM     12  O   UNL     1       8.459   5.555  20.156  0.00  0.00    +0.000 OA
ATOM     13  H   UNL     1       9.399   5.543  19.898  0.00  0.00    +0.000 HD
ENDBRANCH   9  12
BRANCH  10  14
ATOM     14  C   UNL     1       7.992   8.402  17.573  0.00  0.00    +0.000 C 
BRANCH  14  15
ATOM     15  C   UNL     1       8.458   9.690  18.206  0.00  0.00    +0.000 A 
ATOM     16  C   UNL     1       8.343  10.936  17.596  0.00  0.00    +0.000 A 
ATOM     17  C   UNL     1       8.944  12.037  18.210  0.00  0.00    +0.000 A 
ATOM     18  C   UNL     1       9.635  11.871  19.403  0.00  0.00    +0.000 A 
ATOM     19  C   UNL     1       9.691  10.605  19.952  0.00  0.00    +0.000 A 
ATOM     20  N   UNL     1       9.126   9.524  19.381  0.00  0.00    +0.000 NA
ENDBRANCH  14  15
ENDBRANCH  10  14
ENDBRANCH   5   8
BRANCH   6  21
ATOM     21  O   UNL     1       4.646   5.612  17.846  0.00  0.00    +0.000 OA
BRANCH  21  22
ATOM     22  C   UNL     1       4.061   4.577  18.568  0.00  0.00    +0.000 A 
ATOM     23  C   UNL     1       4.807   3.579  19.217  0.00  0.00    +0.000 A 
ATOM     24  C   UNL     1       4.159   2.565  19.920  0.00  0.00    +0.000 A 
ATOM     25 CL   UNL     1       5.082   1.379  20.760  0.00  0.00    +0.000 Cl
ATOM     26  C   UNL     1       2.766   2.500  19.947  0.00  0.00    +0.000 A 
ATOM     27  C   UNL     1       2.021   3.464  19.266  0.00  0.00    +0.000 A 
ATOM     28  C   UNL     1       2.664   4.494  18.569  0.00  0.00    +0.000 A 
ATOM     29 CL   UNL     1       1.693   5.637  17.716  0.00  0.00    +0.000 Cl
ENDBRANCH  21  22
ENDBRANCH   6  21
TORSDOF 6
ENDMDL
MODEL 4
REMARK VINA RESULT:      -7.7      3.956      5.750
REMARK  Name = 
REMARK  7 active torsions:
REMARK  status: ('A' for Active; 'I' for Inactive)
REMARK    1  A    between atoms: C_1  and  C_2
REMARK    2  A    between atoms: C_5  and  C_6
REMARK    3  A    between atoms: N_7  and  O_8
REMARK    4  A    between atoms: N_9  and  C_10
REMARK    5  A    between atoms: C_10  and  C_11
REMARK    6  A    between atoms: C_17  and  O_18
REMARK    7  A    between atoms: O_18  and  C_19
REMARK                            x       y       z     vdW  Elec       q    Type
REMARK                         _______ _______ _______ _____ _____    ______ ____
ROOT
ATOM      1  C   UNL     1       0.326   2.629  19.248  0.00  0.00    +0.000 C 
ATOM      2  C   UNL     1       1.696   3.033  18.806  0.00  0.00    +0.000 A 
ATOM      3  C   UNL     1       2.471   2.228  17.980  0.00  0.00    +0.000 A 
ATOM      4  C   UNL     1       3.766   2.642  17.665  0.00  0.00    +0.000 A 
ATOM      5  C   UNL     1       4.259   3.857  18.159  0.00  0.00    +0.000 A 
ATOM      6  C   UNL     1       3.397   4.616  18.947  0.00  0.00    +0.000 A 
ATOM      7  N   UNL     1       2.145   4.211  19.286  0.00  0.00    +0.000 NA
ENDROOT
BRANCH   5   8
ATOM      8  C   UNL     1       5.701   4.176  17.924  0.00  0.00    +0.000 C 
ATOM      9  N   UNL     1       6.392   4.505  18.988  0.00  0.00    +0.000 NA
ATOM     10  N   UNL     1       6.311   4.188  16.696  0.00  0.00    +0.000 N 
ATOM     11  H   UNL     1       7.282   4.478  16.762  0.00  0.00    +0.000 HD
BRANCH   9  12
ATOM     12  O   UNL     1       7.721   4.826  18.647  0.00  0.00    +0.000 OA
ATOM     13  H   UNL     1       7.595   5.613  18.085  0.00  0.00    +0.000 HD
ENDBRANCH   9  12
BRANCH  10  14
ATOM     14  C   UNL     1       5.917   3.574  15.457  0.00  0.00    +0.000 C 
BRANCH  14  15
ATOM     15  C   UNL     1       6.613   4.050  14.206  0.00  0.00    +0.000 A 
ATOM     16  C   UNL     1       7.509   5.115  14.178  0.00  0.00    +0.000 A 
ATOM     17  C   UNL     1       7.977   5.560  12.940  0.00  0.00    +0.000 A 
ATOM     18  C   UNL     1       7.545   4.941  11.774  0.00  0.00    +0.000 A 
ATOM     19  C   UNL     1       6.666   3.882  11.887  0.00  0.00    +0.000 A 
ATOM     20  N   UNL     1       6.195   3.433  13.067  0.00  0.00    +0.000 NA
ENDBRANCH  14  15
ENDBRANCH  10  14
ENDBRANCH   5   8
BRANCH   6  21
ATOM     21  O   UNL     1       3.803   5.837  19.455  0.00  0.00    +0.000 OA
BRANCH  21  22
ATOM     22  C   UNL     1       2.993   6.942  19.220  0.00  0.00    +0.000 A 
ATOM     23  C   UNL     1       2.024   7.390  20.133  0.00  0.00    +0.000 A 
ATOM     24  C   UNL     1       1.240   8.503  19.834  0.00  0.00    +0.000 A 
ATOM     25 CL   UNL     1       0.094   9.079  20.983  0.00  0.00    +0.000 Cl
ATOM     26  C   UNL     1       1.372   9.154  18.607  0.00  0.00    +0.000 A 
ATOM     27  C   UNL     1       2.303   8.685  17.678  0.00  0.00    +0.000 A 
ATOM     28  C   UNL     1       3.104   7.576  17.976  0.00  0.00    +0.000 A 
ATOM     29 CL   UNL     1       4.211   7.019  16.777  0.00  0.00    +0.000 Cl
ENDBRANCH  21  22
ENDBRANCH   6  21
TORSDOF 6
ENDMDL
MODEL 5
REMARK VINA RESULT:      -7.7      4.083      6.960
REMARK  Name = 
REMARK  7 active torsions:
REMARK  status: ('A' for Active; 'I' for Inactive)
REMARK    1  A    between atoms: C_1  and  C_2
REMARK    2  A    between atoms: C_5  and  C_6
REMARK    3  A    between atoms: N_7  and  O_8
REMARK    4  A    between atoms: N_9  and  C_10
REMARK    5  A    between atoms: C_10  and  C_11
REMARK    6  A    between atoms: C_17  and  O_18
REMARK    7  A    between atoms: O_18  and  C_19
REMARK                            x       y       z     vdW  Elec       q    Type
REMARK                         _______ _______ _______ _____ _____    ______ ____
ROOT
ATOM      1  C   UNL     1       3.446   2.287  20.169  0.00  0.00    +0.000 C 
ATOM      2  C   UNL     1       3.103   3.728  19.970  0.00  0.00    +0.000 A 
ATOM      3  C   UNL     1       1.929   4.281  20.467  0.00  0.00    +0.000 A 
ATOM      4  C   UNL     1       1.646   5.619  20.183  0.00  0.00    +0.000 A 
ATOM      5  C   UNL     1       2.545   6.387  19.430  0.00  0.00    +0.000 A 
ATOM      6  C   UNL     1       3.715   5.758  19.009  0.00  0.00    +0.000 A 
ATOM      7  N   UNL     1       3.988   4.450  19.251  0.00  0.00    +0.000 NA
ENDROOT
BRANCH   5   8
ATOM      8  C   UNL     1       2.122   7.761  19.021  0.00  0.00    +0.000 C 
ATOM      9  N   UNL     1       2.244   8.039  17.746  0.00  0.00    +0.000 NA
ATOM     10  N   UNL     1       1.672   8.730  19.880  0.00  0.00    +0.000 N 
ATOM     11  H   UNL     1       1.486   9.604  19.397  0.00  0.00    +0.000 HD
BRANCH   9  12
ATOM     12  O   UNL     1       1.859   9.368  17.481  0.00  0.00    +0.000 OA
ATOM     13  H   UNL     1       2.653   9.718  17.036  0.00  0.00    +0.000 HD
ENDBRANCH   9  12
BRANCH  10  14
ATOM     14  C   UNL     1       1.139   8.618  21.211  0.00  0.00    +0.000 C 
BRANCH  14  15
ATOM     15  C   UNL     1       0.386   9.810  21.749  0.00  0.00    +0.000 A 
ATOM     16  C   UNL     1      -0.426   9.765  22.879  0.00  0.00    +0.000 A 
ATOM     17  C   UNL     1      -1.189  10.890  23.196  0.00  0.00    +0.000 A 
ATOM     18  C   UNL     1      -1.125  12.019  22.390  0.00  0.00    +0.000 A 
ATOM     19  C   UNL     1      -0.284  11.990  21.295  0.00  0.00    +0.000 A 
ATOM     20  N   UNL     1       0.461  10.918  20.962  0.00  0.00    +0.000 NA
ENDBRANCH  14  15
ENDBRANCH  10  14
ENDBRANCH   5   8
BRANCH   6  21
ATOM     21  O   UNL     1       4.661   6.455  18.278  0.00  0.00    +0.000 OA
BRANCH  21  22
ATOM     22  C   UNL     1       5.468   5.735  17.405  0.00  0.00    +0.000 A 
ATOM     23  C   UNL     1       5.055   5.353  16.117  0.00  0.00    +0.000 A 
ATOM     24  C   UNL     1       5.912   4.627  15.292  0.00  0.00    +0.000 A 
ATOM     25 CL   UNL     1       5.420   4.213  13.696  0.00  0.00    +0.000 Cl
ATOM     26  C   UNL     1       7.168   4.227  15.752  0.00  0.00    +0.000 A 
ATOM     27  C   UNL     1       7.564   4.565  17.047  0.00  0.00    +0.000 A 
ATOM     28  C   UNL     1       6.715   5.306  17.877  0.00  0.00    +0.000 A 
ATOM     29 CL   UNL     1       7.243   5.664  19.480  0.00  0.00    +0.000 Cl
ENDBRANCH  21  22
ENDBRANCH   6  21
TORSDOF 6
ENDMDL
MODEL 6
REMARK VINA RESULT:      -7.6      0.946      2.278
REMARK  Name = 
REMARK  7 active torsions:
REMARK  status: ('A' for Active; 'I' for Inactive)
REMARK    1  A    between atoms: C_1  and  C_2
REMARK    2  A    between atoms: C_5  and  C_6
REMARK    3  A    between atoms: N_7  and  O_8
REMARK    4  A    between atoms: N_9  and  C_10
REMARK    5  A    between atoms: C_10  and  C_11
REMARK    6  A    between atoms: C_17  and  O_18
REMARK    7  A    between atoms: O_18  and  C_19
REMARK                            x       y       z     vdW  Elec       q    Type
REMARK                         _______ _______ _______ _____ _____    ______ ____
ROOT
ATOM      1  C   UNL     1       5.577   3.505  13.288  0.00  0.00    +0.000 C 
ATOM      2  C   UNL     1       6.053   4.198  14.524  0.00  0.00    +0.000 A 
ATOM      3  C   UNL     1       7.086   5.125  14.497  0.00  0.00    +0.000 A 
ATOM      4  C   UNL     1       7.519   5.681  15.702  0.00  0.00    +0.000 A 
ATOM      5  C   UNL     1       6.903   5.321  16.908  0.00  0.00    +0.000 A 
ATOM      6  C   UNL     1       5.848   4.414  16.833  0.00  0.00    +0.000 A 
ATOM      7  N   UNL     1       5.437   3.843  15.672  0.00  0.00    +0.000 NA
ENDROOT
BRANCH   5   8
ATOM      8  C   UNL     1       7.506   5.822  18.181  0.00  0.00    +0.000 C 
ATOM      9  N   UNL     1       7.709   4.919  19.109  0.00  0.00    +0.000 NA
ATOM     10  N   UNL     1       7.808   7.134  18.443  0.00  0.00    +0.000 N 
ATOM     11  H   UNL     1       8.165   7.256  19.386  0.00  0.00    +0.000 HD
BRANCH   9  12
ATOM     12  O   UNL     1       8.238   5.505  20.276  0.00  0.00    +0.000 OA
ATOM     13  H   UNL     1       7.843   4.949  20.973  0.00  0.00    +0.000 HD
ENDBRANCH   9  12
BRANCH  10  14
ATOM     14  C   UNL     1       8.003   8.239  17.544  0.00  0.00    +0.000 C 
BRANCH  14  15
ATOM     15  C   UNL     1       8.423   9.552  18.156  0.00  0.00    +0.000 A 
ATOM     16  C   UNL     1       8.199  10.790  17.560  0.00  0.00    +0.000 A 
ATOM     17  C   UNL     1       8.763  11.925  18.146  0.00  0.00    +0.000 A 
ATOM     18  C   UNL     1       9.528  11.800  19.298  0.00  0.00    +0.000 A 
ATOM     19  C   UNL     1       9.692  10.539  19.837  0.00  0.00    +0.000 A 
ATOM     20  N   UNL     1       9.164   9.426  19.292  0.00  0.00    +0.000 NA
ENDBRANCH  14  15
ENDBRANCH  10  14
ENDBRANCH   5   8
BRANCH   6  21
ATOM     21  O   UNL     1       5.176   4.025  17.978  0.00  0.00    +0.000 OA
BRANCH  21  22
ATOM     22  C   UNL     1       4.158   4.848  18.447  0.00  0.00    +0.000 A 
ATOM     23  C   UNL     1       3.880   6.111  17.898  0.00  0.00    +0.000 A 
ATOM     24  C   UNL     1       2.848   6.890  18.418  0.00  0.00    +0.000 A 
ATOM     25 CL   UNL     1       2.477   8.411  17.703  0.00  0.00    +0.000 Cl
ATOM     26  C   UNL     1       2.114   6.449  19.520  0.00  0.00    +0.000 A 
ATOM     27  C   UNL     1       2.416   5.214  20.096  0.00  0.00    +0.000 A 
ATOM     28  C   UNL     1       3.442   4.420  19.571  0.00  0.00    +0.000 A 
ATOM     29 CL   UNL     1       3.796   2.920  20.347  0.00  0.00    +0.000 Cl
ENDBRANCH  21  22
ENDBRANCH   6  21
TORSDOF 6
ENDMDL
MODEL 7
REMARK VINA RESULT:      -7.6      3.804      5.614
REMARK  Name = 
REMARK  7 active torsions:
REMARK  status: ('A' for Active; 'I' for Inactive)
REMARK    1  A    between atoms: C_1  and  C_2
REMARK    2  A    between atoms: C_5  and  C_6
REMARK    3  A    between atoms: N_7  and  O_8
REMARK    4  A    between atoms: N_9  and  C_10
REMARK    5  A    between atoms: C_10  and  C_11
REMARK    6  A    between atoms: C_17  and  O_18
REMARK    7  A    between atoms: O_18  and  C_19
REMARK                            x       y       z     vdW  Elec       q    Type
REMARK                         _______ _______ _______ _____ _____    ______ ____
ROOT
ATOM      1  C   UNL     1       0.296   2.804  18.799  0.00  0.00    +0.000 C 
ATOM      2  C   UNL     1       1.662   3.308  18.461  0.00  0.00    +0.000 A 
ATOM      3  C   UNL     1       2.497   2.636  17.577  0.00  0.00    +0.000 A 
ATOM      4  C   UNL     1       3.784   3.132  17.363  0.00  0.00    +0.000 A 
ATOM      5  C   UNL     1       4.209   4.298  18.015  0.00  0.00    +0.000 A 
ATOM      6  C   UNL     1       3.290   4.926  18.852  0.00  0.00    +0.000 A 
ATOM      7  N   UNL     1       2.045   4.437  19.093  0.00  0.00    +0.000 NA
ENDROOT
BRANCH   5   8
ATOM      8  C   UNL     1       5.643   4.696  17.875  0.00  0.00    +0.000 C 
ATOM      9  N   UNL     1       6.463   4.195  18.766  0.00  0.00    +0.000 NA
ATOM     10  N   UNL     1       6.128   5.561  16.928  0.00  0.00    +0.000 N 
ATOM     11  H   UNL     1       7.123   5.728  17.045  0.00  0.00    +0.000 HD
BRANCH   9  12
ATOM     12  O   UNL     1       7.775   4.669  18.567  0.00  0.00    +0.000 OA
ATOM     13  H   UNL     1       8.279   4.126  19.201  0.00  0.00    +0.000 HD
ENDBRANCH   9  12
BRANCH  10  14
ATOM     14  C   UNL     1       5.560   5.981  15.676  0.00  0.00    +0.000 C 
BRANCH  14  15
ATOM     15  C   UNL     1       5.942   5.189  14.450  0.00  0.00    +0.000 A 
ATOM     16  C   UNL     1       5.189   4.133  13.946  0.00  0.00    +0.000 A 
ATOM     17  C   UNL     1       5.717   3.378  12.897  0.00  0.00    +0.000 A 
ATOM     18  C   UNL     1       6.968   3.691  12.381  0.00  0.00    +0.000 A 
ATOM     19  C   UNL     1       7.647   4.763  12.926  0.00  0.00    +0.000 A 
ATOM     20  N   UNL     1       7.165   5.507  13.941  0.00  0.00    +0.000 NA
ENDBRANCH  14  15
ENDBRANCH  10  14
ENDBRANCH   5   8
BRANCH   6  21
ATOM     21  O   UNL     1       3.628   6.092  19.515  0.00  0.00    +0.000 OA
BRANCH  21  22
ATOM     22  C   UNL     1       2.673   7.101  19.585  0.00  0.00    +0.000 A 
ATOM     23  C   UNL     1       1.824   7.277  20.690  0.00  0.00    +0.000 A 
ATOM     24  C   UNL     1       0.884   8.306  20.696  0.00  0.00    +0.000 A 
ATOM     25 CL   UNL     1      -0.113   8.550  22.077  0.00  0.00    +0.000 Cl
ATOM     26  C   UNL     1       0.741   9.140  19.586  0.00  0.00    +0.000 A 
ATOM     27  C   UNL     1       1.552   8.940  18.468  0.00  0.00    +0.000 A 
ATOM     28  C   UNL     1       2.508   7.918  18.460  0.00  0.00    +0.000 A 
ATOM     29 CL   UNL     1       3.457   7.695  17.037  0.00  0.00    +0.000 Cl
ENDBRANCH  21  22
ENDBRANCH   6  21
TORSDOF 6
ENDMDL
MODEL 8
REMARK VINA RESULT:      -7.4      3.423      5.457
REMARK  Name = 
REMARK  7 active torsions:
REMARK  status: ('A' for Active; 'I' for Inactive)
REMARK    1  A    between atoms: C_1  and  C_2
REMARK    2  A    between atoms: C_5  and  C_6
REMARK    3  A    between atoms: N_7  and  O_8
REMARK    4  A    between atoms: N_9  and  C_10
REMARK    5  A    between atoms: C_10  and  C_11
REMARK    6  A    between atoms: C_17  and  O_18
REMARK    7  A    between atoms: O_18  and  C_19
REMARK                            x       y       z     vdW  Elec       q    Type
REMARK                         _______ _______ _______ _____ _____    ______ ____
ROOT
ATOM      1  C   UNL     1       1.933   7.992  18.026  0.00  0.00    +0.000 C 
ATOM      2  C   UNL     1       3.227   7.247  17.964  0.00  0.00    +0.000 A 
ATOM      3  C   UNL     1       4.295   7.689  17.192  0.00  0.00    +0.000 A 
ATOM      4  C   UNL     1       5.448   6.904  17.132  0.00  0.00    +0.000 A 
ATOM      5  C   UNL     1       5.526   5.706  17.855  0.00  0.00    +0.000 A 
ATOM      6  C   UNL     1       4.422   5.364  18.632  0.00  0.00    +0.000 A 
ATOM      7  N   UNL     1       3.282   6.102  18.677  0.00  0.00    +0.000 NA
ENDROOT
BRANCH   5   8
ATOM      8  C   UNL     1       6.714   4.828  17.631  0.00  0.00    +0.000 C 
ATOM      9  N   UNL     1       7.574   4.769  18.618  0.00  0.00    +0.000 NA
ATOM     10  N   UNL     1       6.973   4.140  16.473  0.00  0.00    +0.000 N 
ATOM     11  H   UNL     1       7.859   3.645  16.520  0.00  0.00    +0.000 HD
BRANCH   9  12
ATOM     12  O   UNL     1       8.671   3.951  18.284  0.00  0.00    +0.000 OA
ATOM     13  H   UNL     1       8.682   3.321  19.028  0.00  0.00    +0.000 HD
ENDBRANCH   9  12
BRANCH  10  14
ATOM     14  C   UNL     1       6.093   3.760  15.402  0.00  0.00    +0.000 C 
BRANCH  14  15
ATOM     15  C   UNL     1       6.512   4.142  14.003  0.00  0.00    +0.000 A 
ATOM     16  C   UNL     1       6.163   3.418  12.867  0.00  0.00    +0.000 A 
ATOM     17  C   UNL     1       6.732   3.780  11.645  0.00  0.00    +0.000 A 
ATOM     18  C   UNL     1       7.624   4.843  11.585  0.00  0.00    +0.000 A 
ATOM     19  C   UNL     1       7.908   5.520  12.755  0.00  0.00    +0.000 A 
ATOM     20  N   UNL     1       7.378   5.191  13.949  0.00  0.00    +0.000 NA
ENDBRANCH  14  15
ENDBRANCH  10  14
ENDBRANCH   5   8
BRANCH   6  21
ATOM     21  O   UNL     1       4.430   4.207  19.390  0.00  0.00    +0.000 OA
BRANCH  21  22
ATOM     22  C   UNL     1       3.218   3.558  19.601  0.00  0.00    +0.000 A 
ATOM     23  C   UNL     1       2.708   3.284  20.881  0.00  0.00    +0.000 A 
ATOM     24  C   UNL     1       1.488   2.625  21.024  0.00  0.00    +0.000 A 
ATOM     25 CL   UNL     1       0.844   2.344  22.595  0.00  0.00    +0.000 Cl
ATOM     26  C   UNL     1       0.784   2.187  19.902  0.00  0.00    +0.000 A 
ATOM     27  C   UNL     1       1.309   2.418  18.629  0.00  0.00    +0.000 A 
ATOM     28  C   UNL     1       2.527   3.091  18.477  0.00  0.00    +0.000 A 
ATOM     29 CL   UNL     1       3.145   3.316  16.882  0.00  0.00    +0.000 Cl
ENDBRANCH  21  22
ENDBRANCH   6  21
TORSDOF 6
ENDMDL
MODEL 9
REMARK VINA RESULT:      -7.2      1.145      2.105
REMARK  Name = 
REMARK  7 active torsions:
REMARK  status: ('A' for Active; 'I' for Inactive)
REMARK    1  A    between atoms: C_1  and  C_2
REMARK    2  A    between atoms: C_5  and  C_6
REMARK    3  A    between atoms: N_7  and  O_8
REMARK    4  A    between atoms: N_9  and  C_10
REMARK    5  A    between atoms: C_10  and  C_11
REMARK    6  A    between atoms: C_17  and  O_18
REMARK    7  A    between atoms: O_18  and  C_19
REMARK                            x       y       z     vdW  Elec       q    Type
REMARK                         _______ _______ _______ _____ _____    ______ ____
ROOT
ATOM      1  C   UNL     1       4.991   3.773  13.869  0.00  0.00    +0.000 C 
ATOM      2  C   UNL     1       5.589   4.432  15.070  0.00  0.00    +0.000 A 
ATOM      3  C   UNL     1       6.523   5.455  14.961  0.00  0.00    +0.000 A 
ATOM      4  C   UNL     1       7.087   5.975  16.127  0.00  0.00    +0.000 A 
ATOM      5  C   UNL     1       6.697   5.484  17.380  0.00  0.00    +0.000 A 
ATOM      6  C   UNL     1       5.725   4.486  17.394  0.00  0.00    +0.000 A 
ATOM      7  N   UNL     1       5.190   3.949  16.266  0.00  0.00    +0.000 NA
ENDROOT
BRANCH   5   8
ATOM      8  C   UNL     1       7.444   5.961  18.584  0.00  0.00    +0.000 C 
ATOM      9  N   UNL     1       7.609   5.078  19.539  0.00  0.00    +0.000 NA
ATOM     10  N   UNL     1       7.911   7.238  18.761  0.00  0.00    +0.000 N 
ATOM     11  H   UNL     1       8.346   7.356  19.671  0.00  0.00    +0.000 HD
BRANCH   9  12
ATOM     12  O   UNL     1       8.285   5.645  20.638  0.00  0.00    +0.000 OA
ATOM     13  H   UNL     1       7.880   5.167  21.385  0.00  0.00    +0.000 HD
ENDBRANCH   9  12
BRANCH  10  14
ATOM     14  C   UNL     1       8.165   8.276  17.799  0.00  0.00    +0.000 C 
BRANCH  14  15
ATOM     15  C   UNL     1       8.683   9.589  18.331  0.00  0.00    +0.000 A 
ATOM     16  C   UNL     1       9.301   9.732  19.570  0.00  0.00    +0.000 A 
ATOM     17  C   UNL     1       9.605  11.018  20.019  0.00  0.00    +0.000 A 
ATOM     18  C   UNL     1       9.290  12.118  19.232  0.00  0.00    +0.000 A 
ATOM     19  C   UNL     1       8.691  11.893  18.009  0.00  0.00    +0.000 A 
ATOM     20  N   UNL     1       8.382  10.664  17.551  0.00  0.00    +0.000 NA
ENDBRANCH  14  15
ENDBRANCH  10  14
ENDBRANCH   5   8
BRANCH   6  21
ATOM     21  O   UNL     1       5.273   3.963  18.592  0.00  0.00    +0.000 OA
BRANCH  21  22
ATOM     22  C   UNL     1       3.976   4.271  18.988  0.00  0.00    +0.000 A 
ATOM     23  C   UNL     1       3.603   5.536  19.473  0.00  0.00    +0.000 A 
ATOM     24  C   UNL     1       2.286   5.779  19.859  0.00  0.00    +0.000 A 
ATOM     25 CL   UNL     1       1.824   7.347  20.397  0.00  0.00    +0.000 Cl
ATOM     26  C   UNL     1       1.336   4.757  19.817  0.00  0.00    +0.000 A 
ATOM     27  C   UNL     1       1.713   3.487  19.378  0.00  0.00    +0.000 A 
ATOM     28  C   UNL     1       3.030   3.239  18.976  0.00  0.00    +0.000 A 
ATOM     29 CL   UNL     1       3.448   1.641  18.478  0.00  0.00    +0.000 Cl
ENDBRANCH  21  22
ENDBRANCH   6  21
TORSDOF 6
ENDMDL
