MODEL 1
REMARK VINA RESULT:      -7.9      0.000      0.000
REMARK  Name = 
REMARK  7 active torsions:
REMARK  status: ('A' for Active; 'I' for Inactive)
REMARK    1  A    between atoms: C_2  and  C_3
REMARK    2  A    between atoms: C_4  and  C_5
REMARK    3  A    between atoms: C_12  and  S_13
REMARK    4  A    between atoms: S_13  and  C_14
REMARK    5  A    between atoms: C_14  and  C_15
REMARK    6  A    between atoms: C_19  and  C_20
REMARK    7  A    between atoms: C_20  and  O_22
REMARK                            x       y       z     vdW  Elec       q    Type
REMARK                         _______ _______ _______ _____ _____    ______ ____
ROOT
ATOM      1  C   UNL     1       3.450   4.184  19.833  0.00  0.00    +0.000 A 
ATOM      2  C   UNL     1       3.723   5.132  18.901  0.00  0.00    +0.000 A 
ATOM      3  N   UNL     1       3.117   6.385  18.873  0.00  0.00    +0.000 NA
ATOM      4  C   UNL     1       2.334   6.679  19.860  0.00  0.00    +0.000 A 
ATOM      5  N   UNL     1       2.037   5.821  20.871  0.00  0.00    +0.000 N 
ATOM      6  C   UNL     1       2.546   4.563  20.935  0.00  0.00    +0.000 A 
ATOM      7  O   UNL     1       2.305   3.824  21.883  0.00  0.00    +0.000 OA
ATOM      8  H   UNL     1       1.465   6.137  21.640  0.00  0.00    +0.000 HD
ENDROOT
BRANCH   2   9
ATOM      9  C   UNL     1       4.921   4.914  17.963  0.00  0.00    +0.000 C 
ATOM     10  C   UNL     1       6.288   5.353  18.516  0.00  0.00    +0.000 C 
ATOM     11  C   UNL     1       7.388   4.655  17.710  0.00  0.00    +0.000 C 
ATOM     12  C   UNL     1       7.275   4.923  16.207  0.00  0.00    +0.000 C 
ATOM     13  C   UNL     1       5.857   4.755  15.652  0.00  0.00    +0.000 C 
ATOM     14  C   UNL     1       4.789   5.437  16.523  0.00  0.00    +0.000 C 
ENDBRANCH   2   9
BRANCH   1  16
ATOM     15  N   UNL     1       4.613   1.879  19.949  0.00  0.00    +0.000 NA
ATOM     16  C   UNL     1       4.065   2.899  19.884  0.00  0.00    +0.000 C 
ENDBRANCH   1  16
BRANCH   4  17
ATOM     17  S   UNL     1       1.588   8.221  20.146  0.00  0.00    +0.000 S 
BRANCH  17  18
ATOM     18  C   UNL     1       1.632   9.004  18.518  0.00  0.00    +0.000 C 
BRANCH  18  19
ATOM     19  C   UNL     1       0.651  10.164  18.448  0.00  0.00    +0.000 A 
ATOM     20  C   UNL     1       1.031  11.452  18.858  0.00  0.00    +0.000 A 
ATOM     21  C   UNL     1       0.120  12.515  18.823  0.00  0.00    +0.000 A 
ATOM     22  C   UNL     1      -1.180  12.308  18.360  0.00  0.00    +0.000 A 
ATOM     23  C   UNL     1      -1.567  11.040  17.916  0.00  0.00    +0.000 A 
ATOM     24  C   UNL     1      -0.657   9.971  17.965  0.00  0.00    +0.000 A 
BRANCH  23  25
ATOM     25  C   UNL     1      -2.976  10.871  17.467  0.00  0.00    +0.000 C 
ATOM     26  O   UNL     1      -3.474   9.782  17.250  0.00  0.00    +0.000 OA
BRANCH  25  27
ATOM     27  O   UNL     1      -3.663  12.027  17.360  0.00  0.00    +0.000 OA
ATOM     28  H   UNL     1      -4.567  11.940  17.007  0.00  0.00    +0.000 HD
ENDBRANCH  25  27
ENDBRANCH  23  25
ENDBRANCH  18  19
ENDBRANCH  17  18
ENDBRANCH   4  17
TORSDOF 7
ENDMDL
MODEL 2
REMARK VINA RESULT:      -7.8      2.113      2.334
REMARK  Name = 
REMARK  7 active torsions:
REMARK  status: ('A' for Active; 'I' for Inactive)
REMARK    1  A    between atoms: C_2  and  C_3
REMARK    2  A    between atoms: C_4  and  C_5
REMARK    3  A    between atoms: C_12  and  S_13
REMARK    4  A    between atoms: S_13  and  C_14
REMARK    5  A    between atoms: C_14  and  C_15
REMARK    6  A    between atoms: C_19  and  C_20
REMARK    7  A    between atoms: C_20  and  O_22
REMARK                            x       y       z     vdW  Elec       q    Type
REMARK                         _______ _______ _______ _____ _____    ______ ____
ROOT
ATOM      1  C   UNL     1       3.467   4.482  19.565  0.00  0.00    +0.000 A 
ATOM      2  C   UNL     1       3.733   5.373  18.576  0.00  0.00    +0.000 A 
ATOM      3  N   UNL     1       3.131   6.625  18.480  0.00  0.00    +0.000 NA
ATOM      4  C   UNL     1       2.359   6.979  19.455  0.00  0.00    +0.000 A 
ATOM      5  N   UNL     1       2.070   6.183  20.518  0.00  0.00    +0.000 N 
ATOM      6  C   UNL     1       2.575   4.929  20.651  0.00  0.00    +0.000 A 
ATOM      7  O   UNL     1       2.342   4.248  21.643  0.00  0.00    +0.000 OA
ATOM      8  H   UNL     1       1.506   6.546  21.272  0.00  0.00    +0.000 HD
ENDROOT
BRANCH   2   9
ATOM      9  C   UNL     1       4.921   5.095  17.641  0.00  0.00    +0.000 C 
ATOM     10  C   UNL     1       5.836   6.298  17.352  0.00  0.00    +0.000 C 
ATOM     11  C   UNL     1       7.180   5.776  16.833  0.00  0.00    +0.000 C 
ATOM     12  C   UNL     1       7.026   4.877  15.604  0.00  0.00    +0.000 C 
ATOM     13  C   UNL     1       5.928   3.818  15.744  0.00  0.00    +0.000 C 
ATOM     14  C   UNL     1       4.616   4.387  16.310  0.00  0.00    +0.000 C 
ENDBRANCH   2   9
BRANCH   1  16
ATOM     15  N   UNL     1       4.556   2.154  19.838  0.00  0.00    +0.000 NA
ATOM     16  C   UNL     1       4.079   3.201  19.686  0.00  0.00    +0.000 C 
ENDBRANCH   1  16
BRANCH   4  17
ATOM     17  S   UNL     1       1.621   8.538  19.657  0.00  0.00    +0.000 S 
BRANCH  17  18
ATOM     18  C   UNL     1       0.807   8.400  21.264  0.00  0.00    +0.000 C 
BRANCH  18  19
ATOM     19  C   UNL     1      -0.028   9.636  21.557  0.00  0.00    +0.000 A 
ATOM     20  C   UNL     1      -0.492   9.898  22.857  0.00  0.00    +0.000 A 
ATOM     21  C   UNL     1      -1.288  11.019  23.123  0.00  0.00    +0.000 A 
ATOM     22  C   UNL     1      -1.616  11.905  22.096  0.00  0.00    +0.000 A 
ATOM     23  C   UNL     1      -1.136  11.679  20.802  0.00  0.00    +0.000 A 
ATOM     24  C   UNL     1      -0.350  10.547  20.533  0.00  0.00    +0.000 A 
BRANCH  23  25
ATOM     25  C   UNL     1      -1.547  12.638  19.741  0.00  0.00    +0.000 C 
ATOM     26  O   UNL     1      -0.772  13.416  19.217  0.00  0.00    +0.000 OA
BRANCH  25  27
ATOM     27  O   UNL     1      -2.845  12.542  19.384  0.00  0.00    +0.000 OA
ATOM     28  H   UNL     1      -3.414  12.066  20.016  0.00  0.00    +0.000 HD
ENDBRANCH  25  27
ENDBRANCH  23  25
ENDBRANCH  18  19
ENDBRANCH  17  18
ENDBRANCH   4  17
TORSDOF 7
ENDMDL
MODEL 3
REMARK VINA RESULT:      -7.7      1.094      1.125
REMARK  Name = 
REMARK  7 active torsions:
REMARK  status: ('A' for Active; 'I' for Inactive)
REMARK    1  A    between atoms: C_2  and  C_3
REMARK    2  A    between atoms: C_4  and  C_5
REMARK    3  A    between atoms: C_12  and  S_13
REMARK    4  A    between atoms: S_13  and  C_14
REMARK    5  A    between atoms: C_14  and  C_15
REMARK    6  A    between atoms: C_19  and  C_20
REMARK    7  A    between atoms: C_20  and  O_22
REMARK                            x       y       z     vdW  Elec       q    Type
REMARK                         _______ _______ _______ _____ _____    ______ ____
ROOT
ATOM      1  C   UNL     1       2.831   4.039  19.343  0.00  0.00    +0.000 A 
ATOM      2  C   UNL     1       3.330   5.189  18.822  0.00  0.00    +0.000 A 
ATOM      3  N   UNL     1       2.867   6.457  19.162  0.00  0.00    +0.000 NA
ATOM      4  C   UNL     1       1.985   6.524  20.106  0.00  0.00    +0.000 A 
ATOM      5  N   UNL     1       1.459   5.437  20.729  0.00  0.00    +0.000 N 
ATOM      6  C   UNL     1       1.822   4.166  20.411  0.00  0.00    +0.000 A 
ATOM      7  O   UNL     1       1.373   3.202  21.021  0.00  0.00    +0.000 OA
ATOM      8  H   UNL     1       0.819   5.565  21.497  0.00  0.00    +0.000 HD
ENDROOT
BRANCH   2   9
ATOM      9  C   UNL     1       4.622   5.116  17.991  0.00  0.00    +0.000 C 
ATOM     10  C   UNL     1       5.930   5.316  18.776  0.00  0.00    +0.000 C 
ATOM     11  C   UNL     1       7.088   4.753  17.946  0.00  0.00    +0.000 C 
ATOM     12  C   UNL     1       7.166   5.377  16.550  0.00  0.00    +0.000 C 
ATOM     13  C   UNL     1       5.819   5.443  15.824  0.00  0.00    +0.000 C 
ATOM     14  C   UNL     1       4.684   5.973  16.715  0.00  0.00    +0.000 C 
ENDBRANCH   2   9
BRANCH   1  16
ATOM     15  N   UNL     1       3.687   1.661  18.804  0.00  0.00    +0.000 NA
ATOM     16  C   UNL     1       3.297   2.733  19.015  0.00  0.00    +0.000 C 
ENDBRANCH   1  16
BRANCH   4  17
ATOM     17  S   UNL     1       1.368   7.980  20.824  0.00  0.00    +0.000 S 
BRANCH  17  18
ATOM     18  C   UNL     1       1.416   9.161  19.458  0.00  0.00    +0.000 C 
BRANCH  18  19
ATOM     19  C   UNL     1       0.263  10.148  19.553  0.00  0.00    +0.000 A 
ATOM     20  C   UNL     1       0.068  10.915  20.713  0.00  0.00    +0.000 A 
ATOM     21  C   UNL     1      -1.011  11.802  20.815  0.00  0.00    +0.000 A 
ATOM     22  C   UNL     1      -1.901  11.947  19.751  0.00  0.00    +0.000 A 
ATOM     23  C   UNL     1      -1.705  11.217  18.574  0.00  0.00    +0.000 A 
ATOM     24  C   UNL     1      -0.630  10.317  18.478  0.00  0.00    +0.000 A 
BRANCH  23  25
ATOM     25  C   UNL     1      -2.706  11.387  17.486  0.00  0.00    +0.000 C 
ATOM     26  O   UNL     1      -3.902  11.249  17.663  0.00  0.00    +0.000 OA
BRANCH  25  27
ATOM     27  O   UNL     1      -2.175  11.745  16.299  0.00  0.00    +0.000 OA
ATOM     28  H   UNL     1      -2.391  11.155  15.554  0.00  0.00    +0.000 HD
ENDBRANCH  25  27
ENDBRANCH  23  25
ENDBRANCH  18  19
ENDBRANCH  17  18
ENDBRANCH   4  17
TORSDOF 7
ENDMDL
MODEL 4
REMARK VINA RESULT:      -7.7      2.247      3.859
REMARK  Name = 
REMARK  7 active torsions:
REMARK  status: ('A' for Active; 'I' for Inactive)
REMARK    1  A    between atoms: C_2  and  C_3
REMARK    2  A    between atoms: C_4  and  C_5
REMARK    3  A    between atoms: C_12  and  S_13
REMARK    4  A    between atoms: S_13  and  C_14
REMARK    5  A    between atoms: C_14  and  C_15
REMARK    6  A    between atoms: C_19  and  C_20
REMARK    7  A    between atoms: C_20  and  O_22
REMARK                            x       y       z     vdW  Elec       q    Type
REMARK                         _______ _______ _______ _____ _____    ______ ____
ROOT
ATOM      1  C   UNL     1       4.142   5.799  17.891  0.00  0.00    +0.000 A 
ATOM      2  C   UNL     1       3.134   5.955  18.786  0.00  0.00    +0.000 A 
ATOM      3  N   UNL     1       2.417   7.138  18.944  0.00  0.00    +0.000 NA
ATOM      4  C   UNL     1       2.672   8.093  18.109  0.00  0.00    +0.000 A 
ATOM      5  N   UNL     1       3.623   8.018  17.142  0.00  0.00    +0.000 N 
ATOM      6  C   UNL     1       4.400   6.917  16.964  0.00  0.00    +0.000 A 
ATOM      7  O   UNL     1       5.218   6.853  16.054  0.00  0.00    +0.000 OA
ATOM      8  H   UNL     1       3.728   8.779  16.487  0.00  0.00    +0.000 HD
ENDROOT
BRANCH   2   9
ATOM      9  C   UNL     1       2.594   4.709  19.505  0.00  0.00    +0.000 C 
ATOM     10  C   UNL     1       1.454   3.967  18.786  0.00  0.00    +0.000 C 
ATOM     11  C   UNL     1       1.364   2.545  19.349  0.00  0.00    +0.000 C 
ATOM     12  C   UNL     1       1.178   2.527  20.869  0.00  0.00    +0.000 C 
ATOM     13  C   UNL     1       2.127   3.466  21.621  0.00  0.00    +0.000 C 
ATOM     14  C   UNL     1       2.213   4.864  20.987  0.00  0.00    +0.000 C 
ENDBRANCH   2   9
BRANCH   1  16
ATOM     15  N   UNL     1       5.483   3.624  17.501  0.00  0.00    +0.000 NA
ATOM     16  C   UNL     1       4.882   4.595  17.707  0.00  0.00    +0.000 C 
ENDBRANCH   1  16
BRANCH   4  17
ATOM     17  S   UNL     1       1.813   9.597  17.988  0.00  0.00    +0.000 S 
BRANCH  17  18
ATOM     18  C   UNL     1       0.768   9.592  19.461  0.00  0.00    +0.000 C 
BRANCH  18  19
ATOM     19  C   UNL     1      -0.478  10.437  19.247  0.00  0.00    +0.000 A 
ATOM     20  C   UNL     1      -0.943  11.299  20.253  0.00  0.00    +0.000 A 
ATOM     21  C   UNL     1      -2.107  12.055  20.070  0.00  0.00    +0.000 A 
ATOM     22  C   UNL     1      -2.814  11.973  18.869  0.00  0.00    +0.000 A 
ATOM     23  C   UNL     1      -2.348  11.145  17.842  0.00  0.00    +0.000 A 
ATOM     24  C   UNL     1      -1.188  10.376  18.033  0.00  0.00    +0.000 A 
BRANCH  23  25
ATOM     25  C   UNL     1      -3.162  11.071  16.599  0.00  0.00    +0.000 C 
ATOM     26  O   UNL     1      -4.361  11.276  16.582  0.00  0.00    +0.000 OA
BRANCH  25  27
ATOM     27  O   UNL     1      -2.448  10.795  15.488  0.00  0.00    +0.000 OA
ATOM     28  H   UNL     1      -1.740  10.137  15.604  0.00  0.00    +0.000 HD
ENDBRANCH  25  27
ENDBRANCH  23  25
ENDBRANCH  18  19
ENDBRANCH  17  18
ENDBRANCH   4  17
TORSDOF 7
ENDMDL
MODEL 5
REMARK VINA RESULT:      -7.7      4.057      8.145
REMARK  Name = 
REMARK  7 active torsions:
REMARK  status: ('A' for Active; 'I' for Inactive)
REMARK    1  A    between atoms: C_2  and  C_3
REMARK    2  A    between atoms: C_4  and  C_5
REMARK    3  A    between atoms: C_12  and  S_13
REMARK    4  A    between atoms: S_13  and  C_14
REMARK    5  A    between atoms: C_14  and  C_15
REMARK    6  A    between atoms: C_19  and  C_20
REMARK    7  A    between atoms: C_20  and  O_22
REMARK                            x       y       z     vdW  Elec       q    Type
REMARK                         _______ _______ _______ _____ _____    ______ ____
ROOT
ATOM      1  C   UNL     1       2.910   4.302  19.311  0.00  0.00    +0.000 A 
ATOM      2  C   UNL     1       3.433   5.487  18.907  0.00  0.00    +0.000 A 
ATOM      3  N   UNL     1       4.656   5.610  18.252  0.00  0.00    +0.000 NA
ATOM      4  C   UNL     1       5.258   4.512  17.927  0.00  0.00    +0.000 A 
ATOM      5  N   UNL     1       4.793   3.274  18.236  0.00  0.00    +0.000 N 
ATOM      6  C   UNL     1       3.636   3.078  18.922  0.00  0.00    +0.000 A 
ATOM      7  O   UNL     1       3.209   1.951  19.146  0.00  0.00    +0.000 OA
ATOM      8  H   UNL     1       5.284   2.459  17.899  0.00  0.00    +0.000 HD
ENDROOT
BRANCH   2   9
ATOM      9  C   UNL     1       2.541   6.738  18.963  0.00  0.00    +0.000 C 
ATOM     10  C   UNL     1       2.873   7.838  17.939  0.00  0.00    +0.000 C 
ATOM     11  C   UNL     1       1.654   8.755  17.795  0.00  0.00    +0.000 C 
ATOM     12  C   UNL     1       1.204   9.347  19.134  0.00  0.00    +0.000 C 
ATOM     13  C   UNL     1       1.115   8.320  20.267  0.00  0.00    +0.000 C 
ATOM     14  C   UNL     1       2.343   7.398  20.338  0.00  0.00    +0.000 C 
ENDBRANCH   2   9
BRANCH   1  16
ATOM     15  N   UNL     1       0.652   3.978  20.524  0.00  0.00    +0.000 NA
ATOM     16  C   UNL     1       1.657   4.154  19.974  0.00  0.00    +0.000 C 
ENDBRANCH   1  16
BRANCH   4  17
ATOM     17  S   UNL     1       6.703   4.387  16.971  0.00  0.00    +0.000 S 
BRANCH  17  18
ATOM     18  C   UNL     1       6.469   5.657  15.708  0.00  0.00    +0.000 C 
BRANCH  18  19
ATOM     19  C   UNL     1       6.751   5.103  14.321  0.00  0.00    +0.000 A 
ATOM     20  C   UNL     1       7.845   5.565  13.571  0.00  0.00    +0.000 A 
ATOM     21  C   UNL     1       8.089   5.077  12.281  0.00  0.00    +0.000 A 
ATOM     22  C   UNL     1       7.252   4.108  11.729  0.00  0.00    +0.000 A 
ATOM     23  C   UNL     1       6.176   3.611  12.473  0.00  0.00    +0.000 A 
ATOM     24  C   UNL     1       5.924   4.110  13.761  0.00  0.00    +0.000 A 
BRANCH  23  25
ATOM     25  C   UNL     1       5.297   2.604  11.819  0.00  0.00    +0.000 C 
ATOM     26  O   UNL     1       4.188   2.871  11.397  0.00  0.00    +0.000 OA
BRANCH  25  27
ATOM     27  O   UNL     1       5.854   1.380  11.699  0.00  0.00    +0.000 OA
ATOM     28  H   UNL     1       6.810   1.378  11.511  0.00  0.00    +0.000 HD
ENDBRANCH  25  27
ENDBRANCH  23  25
ENDBRANCH  18  19
ENDBRANCH  17  18
ENDBRANCH   4  17
TORSDOF 7
ENDMDL
MODEL 6
REMARK VINA RESULT:      -7.6      1.338      1.488
REMARK  Name = 
REMARK  7 active torsions:
REMARK  status: ('A' for Active; 'I' for Inactive)
REMARK    1  A    between atoms: C_2  and  C_3
REMARK    2  A    between atoms: C_4  and  C_5
REMARK    3  A    between atoms: C_12  and  S_13
REMARK    4  A    between atoms: S_13  and  C_14
REMARK    5  A    between atoms: C_14  and  C_15
REMARK    6  A    between atoms: C_19  and  C_20
REMARK    7  A    between atoms: C_20  and  O_22
REMARK                            x       y       z     vdW  Elec       q    Type
REMARK                         _______ _______ _______ _____ _____    ______ ____
ROOT
ATOM      1  C   UNL     1       3.276   5.219  18.944  0.00  0.00    +0.000 A 
ATOM      2  C   UNL     1       3.716   5.940  17.882  0.00  0.00    +0.000 A 
ATOM      3  N   UNL     1       3.260   7.219  17.574  0.00  0.00    +0.000 NA
ATOM      4  C   UNL     1       2.453   7.772  18.419  0.00  0.00    +0.000 A 
ATOM      5  N   UNL     1       1.994   7.157  19.540  0.00  0.00    +0.000 N 
ATOM      6  C   UNL     1       2.351   5.889  19.877  0.00  0.00    +0.000 A 
ATOM      7  O   UNL     1       1.965   5.372  20.919  0.00  0.00    +0.000 OA
ATOM      8  H   UNL     1       1.412   7.669  20.186  0.00  0.00    +0.000 HD
ENDROOT
BRANCH   2   9
ATOM      9  C   UNL     1       4.941   5.429  17.106  0.00  0.00    +0.000 C 
ATOM     10  C   UNL     1       6.299   5.625  17.802  0.00  0.00    +0.000 C 
ATOM     11  C   UNL     1       7.316   4.671  17.166  0.00  0.00    +0.000 C 
ATOM     12  C   UNL     1       7.426   4.858  15.651  0.00  0.00    +0.000 C 
ATOM     13  C   UNL     1       6.074   4.937  14.935  0.00  0.00    +0.000 C 
ATOM     14  C   UNL     1       5.078   5.872  15.640  0.00  0.00    +0.000 C 
ENDBRANCH   2   9
BRANCH   1  16
ATOM     15  N   UNL     1       4.056   2.831  19.550  0.00  0.00    +0.000 NA
ATOM     16  C   UNL     1       3.736   3.913  19.282  0.00  0.00    +0.000 C 
ENDBRANCH   1  16
BRANCH   4  17
ATOM     17  S   UNL     1       1.870   9.407  18.354  0.00  0.00    +0.000 S 
BRANCH  17  18
ATOM     18  C   UNL     1       0.852   9.538  19.840  0.00  0.00    +0.000 C 
BRANCH  18  19
ATOM     19  C   UNL     1      -0.338  10.453  19.604  0.00  0.00    +0.000 A 
ATOM     20  C   UNL     1      -0.715  11.406  20.565  0.00  0.00    +0.000 A 
ATOM     21  C   UNL     1      -1.830  12.229  20.363  0.00  0.00    +0.000 A 
ATOM     22  C   UNL     1      -2.574  12.123  19.187  0.00  0.00    +0.000 A 
ATOM     23  C   UNL     1      -2.196  11.203  18.204  0.00  0.00    +0.000 A 
ATOM     24  C   UNL     1      -1.086  10.368  18.413  0.00  0.00    +0.000 A 
BRANCH  23  25
ATOM     25  C   UNL     1      -3.049  11.110  16.988  0.00  0.00    +0.000 C 
ATOM     26  O   UNL     1      -4.216  10.769  17.025  0.00  0.00    +0.000 OA
BRANCH  25  27
ATOM     27  O   UNL     1      -2.426  11.475  15.848  0.00  0.00    +0.000 OA
ATOM     28  H   UNL     1      -2.685  12.345  15.495  0.00  0.00    +0.000 HD
ENDBRANCH  25  27
ENDBRANCH  23  25
ENDBRANCH  18  19
ENDBRANCH  17  18
ENDBRANCH   4  17
TORSDOF 7
ENDMDL
MODEL 7
REMARK VINA RESULT:      -7.6      2.254      2.496
REMARK  Name = 
REMARK  7 active torsions:
REMARK  status: ('A' for Active; 'I' for Inactive)
REMARK    1  A    between atoms: C_2  and  C_3
REMARK    2  A    between atoms: C_4  and  C_5
REMARK    3  A    between atoms: C_12  and  S_13
REMARK    4  A    between atoms: S_13  and  C_14
REMARK    5  A    between atoms: C_14  and  C_15
REMARK    6  A    between atoms: C_19  and  C_20
REMARK    7  A    between atoms: C_20  and  O_22
REMARK                            x       y       z     vdW  Elec       q    Type
REMARK                         _______ _______ _______ _____ _____    ______ ____
ROOT
ATOM      1  C   UNL     1       2.871   3.637  19.119  0.00  0.00    +0.000 A 
ATOM      2  C   UNL     1       3.510   4.738  18.647  0.00  0.00    +0.000 A 
ATOM      3  N   UNL     1       3.161   6.041  18.992  0.00  0.00    +0.000 NA
ATOM      4  C   UNL     1       2.245   6.182  19.894  0.00  0.00    +0.000 A 
ATOM      5  N   UNL     1       1.582   5.145  20.468  0.00  0.00    +0.000 N 
ATOM      6  C   UNL     1       1.829   3.849  20.141  0.00  0.00    +0.000 A 
ATOM      7  O   UNL     1       1.255   2.927  20.708  0.00  0.00    +0.000 OA
ATOM      8  H   UNL     1       0.920   5.326  21.208  0.00  0.00    +0.000 HD
ENDROOT
BRANCH   2   9
ATOM      9  C   UNL     1       4.826   4.547  17.877  0.00  0.00    +0.000 C 
ATOM     10  C   UNL     1       6.004   5.419  18.346  0.00  0.00    +0.000 C 
ATOM     11  C   UNL     1       7.307   4.793  17.838  0.00  0.00    +0.000 C 
ATOM     12  C   UNL     1       7.314   4.604  16.319  0.00  0.00    +0.000 C 
ATOM     13  C   UNL     1       6.032   3.974  15.766  0.00  0.00    +0.000 C 
ATOM     14  C   UNL     1       4.756   4.609  16.342  0.00  0.00    +0.000 C 
ENDBRANCH   2   9
BRANCH   1  16
ATOM     15  N   UNL     1       3.547   1.224  18.488  0.00  0.00    +0.000 NA
ATOM     16  C   UNL     1       3.218   2.295  18.786  0.00  0.00    +0.000 C 
ENDBRANCH   1  16
BRANCH   4  17
ATOM     17  S   UNL     1       1.745   7.682  20.612  0.00  0.00    +0.000 S 
BRANCH  17  18
ATOM     18  C   UNL     1       1.477   8.752  19.181  0.00  0.00    +0.000 C 
BRANCH  18  19
ATOM     19  C   UNL     1       0.432   9.813  19.485  0.00  0.00    +0.000 A 
ATOM     20  C   UNL     1      -0.238  10.480  18.446  0.00  0.00    +0.000 A 
ATOM     21  C   UNL     1      -1.179  11.480  18.723  0.00  0.00    +0.000 A 
ATOM     22  C   UNL     1      -1.476  11.815  20.044  0.00  0.00    +0.000 A 
ATOM     23  C   UNL     1      -0.843  11.140  21.093  0.00  0.00    +0.000 A 
ATOM     24  C   UNL     1       0.110  10.147  20.815  0.00  0.00    +0.000 A 
BRANCH  23  25
ATOM     25  C   UNL     1      -1.174  11.565  22.481  0.00  0.00    +0.000 C 
ATOM     26  O   UNL     1      -1.995  12.428  22.729  0.00  0.00    +0.000 OA
BRANCH  25  27
ATOM     27  O   UNL     1      -0.514  10.881  23.439  0.00  0.00    +0.000 OA
ATOM     28  H   UNL     1       0.329  10.483  23.156  0.00  0.00    +0.000 HD
ENDBRANCH  25  27
ENDBRANCH  23  25
ENDBRANCH  18  19
ENDBRANCH  17  18
ENDBRANCH   4  17
TORSDOF 7
ENDMDL
MODEL 8
REMARK VINA RESULT:      -7.5      3.955      8.380
REMARK  Name = 
REMARK  7 active torsions:
REMARK  status: ('A' for Active; 'I' for Inactive)
REMARK    1  A    between atoms: C_2  and  C_3
REMARK    2  A    between atoms: C_4  and  C_5
REMARK    3  A    between atoms: C_12  and  S_13
REMARK    4  A    between atoms: S_13  and  C_14
REMARK    5  A    between atoms: C_14  and  C_15
REMARK    6  A    between atoms: C_19  and  C_20
REMARK    7  A    between atoms: C_20  and  O_22
REMARK                            x       y       z     vdW  Elec       q    Type
REMARK                         _______ _______ _______ _____ _____    ______ ____
ROOT
ATOM      1  C   UNL     1       2.648   5.268  19.171  0.00  0.00    +0.000 A 
ATOM      2  C   UNL     1       2.842   6.588  18.922  0.00  0.00    +0.000 A 
ATOM      3  N   UNL     1       3.848   7.079  18.093  0.00  0.00    +0.000 NA
ATOM      4  C   UNL     1       4.556   6.207  17.454  0.00  0.00    +0.000 A 
ATOM      5  N   UNL     1       4.407   4.863  17.591  0.00  0.00    +0.000 N 
ATOM      6  C   UNL     1       3.485   4.311  18.423  0.00  0.00    +0.000 A 
ATOM      7  O   UNL     1       3.334   3.097  18.494  0.00  0.00    +0.000 OA
ATOM      8  H   UNL     1       4.955   4.240  17.017  0.00  0.00    +0.000 HD
ENDROOT
BRANCH   2   9
ATOM      9  C   UNL     1       1.768   7.586  19.384  0.00  0.00    +0.000 C 
ATOM     10  C   UNL     1       1.709   8.910  18.603  0.00  0.00    +0.000 C 
ATOM     11  C   UNL     1       0.341   9.558  18.843  0.00  0.00    +0.000 C 
ATOM     12  C   UNL     1       0.044   9.767  20.330  0.00  0.00    +0.000 C 
ATOM     13  C   UNL     1       0.344   8.543  21.200  0.00  0.00    +0.000 C 
ATOM     14  C   UNL     1       1.708   7.906  20.887  0.00  0.00    +0.000 C 
ENDBRANCH   2   9
BRANCH   1  16
ATOM     15  N   UNL     1       0.806   4.266  20.682  0.00  0.00    +0.000 NA
ATOM     16  C   UNL     1       1.620   4.745  20.008  0.00  0.00    +0.000 C 
ENDBRANCH   1  16
BRANCH   4  17
ATOM     17  S   UNL     1       5.755   6.555  16.246  0.00  0.00    +0.000 S 
BRANCH  17  18
ATOM     18  C   UNL     1       6.556   4.955  15.992  0.00  0.00    +0.000 C 
BRANCH  18  19
ATOM     19  C   UNL     1       6.766   4.682  14.512  0.00  0.00    +0.000 A 
ATOM     20  C   UNL     1       7.748   5.374  13.785  0.00  0.00    +0.000 A 
ATOM     21  C   UNL     1       7.922   5.146  12.414  0.00  0.00    +0.000 A 
ATOM     22  C   UNL     1       7.127   4.209  11.754  0.00  0.00    +0.000 A 
ATOM     23  C   UNL     1       6.165   3.486  12.467  0.00  0.00    +0.000 A 
ATOM     24  C   UNL     1       5.982   3.725  13.839  0.00  0.00    +0.000 A 
BRANCH  23  25
ATOM     25  C   UNL     1       5.323   2.526  11.703  0.00  0.00    +0.000 C 
ATOM     26  O   UNL     1       4.218   2.810  11.278  0.00  0.00    +0.000 OA
BRANCH  25  27
ATOM     27  O   UNL     1       5.907   1.329  11.488  0.00  0.00    +0.000 OA
ATOM     28  H   UNL     1       5.393   0.558  11.792  0.00  0.00    +0.000 HD
ENDBRANCH  25  27
ENDBRANCH  23  25
ENDBRANCH  18  19
ENDBRANCH  17  18
ENDBRANCH   4  17
TORSDOF 7
ENDMDL
MODEL 9
REMARK VINA RESULT:      -7.5      3.465      8.731
REMARK  Name = 
REMARK  7 active torsions:
REMARK  status: ('A' for Active; 'I' for Inactive)
REMARK    1  A    between atoms: C_2  and  C_3
REMARK    2  A    between atoms: C_4  and  C_5
REMARK    3  A    between atoms: C_12  and  S_13
REMARK    4  A    between atoms: S_13  and  C_14
REMARK    5  A    between atoms: C_14  and  C_15
REMARK    6  A    between atoms: C_19  and  C_20
REMARK    7  A    between atoms: C_20  and  O_22
REMARK                            x       y       z     vdW  Elec       q    Type
REMARK                         _______ _______ _______ _____ _____    ______ ____
ROOT
ATOM      1  C   UNL     1      -0.071  10.182  21.533  0.00  0.00    +0.000 A 
ATOM      2  C   UNL     1      -0.077   9.847  20.218  0.00  0.00    +0.000 A 
ATOM      3  N   UNL     1       0.753   8.874  19.665  0.00  0.00    +0.000 NA
ATOM      4  C   UNL     1       1.484   8.193  20.486  0.00  0.00    +0.000 A 
ATOM      5  N   UNL     1       1.523   8.413  21.826  0.00  0.00    +0.000 N 
ATOM      6  C   UNL     1       0.784   9.382  22.429  0.00  0.00    +0.000 A 
ATOM      7  O   UNL     1       0.797   9.530  23.646  0.00  0.00    +0.000 OA
ATOM      8  H   UNL     1       2.072   7.805  22.415  0.00  0.00    +0.000 HD
ENDROOT
BRANCH   2   9
ATOM      9  C   UNL     1      -1.205  10.392  19.328  0.00  0.00    +0.000 C 
ATOM     10  C   UNL     1      -1.354   9.716  17.954  0.00  0.00    +0.000 C 
ATOM     11  C   UNL     1      -2.756  10.015  17.413  0.00  0.00    +0.000 C 
ATOM     12  C   UNL     1      -3.049  11.516  17.338  0.00  0.00    +0.000 C 
ATOM     13  C   UNL     1      -2.663  12.287  18.604  0.00  0.00    +0.000 C 
ATOM     14  C   UNL     1      -1.267  11.916  19.129  0.00  0.00    +0.000 C 
ENDBRANCH   2   9
BRANCH   1  16
ATOM     15  N   UNL     1      -1.587  11.952  22.651  0.00  0.00    +0.000 NA
ATOM     16  C   UNL     1      -0.917  11.167  22.121  0.00  0.00    +0.000 C 
ENDBRANCH   1  16
BRANCH   4  17
ATOM     17  S   UNL     1       2.476   6.828  20.076  0.00  0.00    +0.000 S 
BRANCH  17  18
ATOM     18  C   UNL     1       2.950   7.166  18.366  0.00  0.00    +0.000 C 
BRANCH  18  19
ATOM     19  C   UNL     1       3.652   5.966  17.750  0.00  0.00    +0.000 A 
ATOM     20  C   UNL     1       2.987   4.736  17.615  0.00  0.00    +0.000 A 
ATOM     21  C   UNL     1       3.641   3.621  17.077  0.00  0.00    +0.000 A 
ATOM     22  C   UNL     1       4.965   3.725  16.648  0.00  0.00    +0.000 A 
ATOM     23  C   UNL     1       5.634   4.950  16.744  0.00  0.00    +0.000 A 
ATOM     24  C   UNL     1       4.981   6.064  17.297  0.00  0.00    +0.000 A 
BRANCH  23  25
ATOM     25  C   UNL     1       7.055   4.992  16.304  0.00  0.00    +0.000 C 
ATOM     26  O   UNL     1       7.457   5.750  15.441  0.00  0.00    +0.000 OA
BRANCH  25  27
ATOM     27  O   UNL     1       7.864   4.146  16.974  0.00  0.00    +0.000 OA
ATOM     28  H   UNL     1       7.407   3.495  17.537  0.00  0.00    +0.000 HD
ENDBRANCH  25  27
ENDBRANCH  23  25
ENDBRANCH  18  19
ENDBRANCH  17  18
ENDBRANCH   4  17
TORSDOF 7
ENDMDL
