MODEL 1
REMARK VINA RESULT:      -8.5      0.000      0.000
REMARK  Name = 
REMARK  18 active torsions:
REMARK  status: ('A' for Active; 'I' for Inactive)
REMARK    1  A    between atoms: CD1_1  and  CG1_2
REMARK    2  A    between atoms: CG1_2  and  CB_3
REMARK    3  A    between atoms: CB_3  and  CG2_4
REMARK    4  A    between atoms: CB_3  and  CA_5
REMARK    5  A    between atoms: CA_5  and  N_6
REMARK    6  A    between atoms: CA_5  and  C_29
REMARK    7  A    between atoms: C_7  and  CA_9
REMARK    8  A    between atoms: CA_9  and  CB_10
REMARK    9  A    between atoms: CA_9  and  N_17
REMARK   10  A    between atoms: CB_10  and  CG_11
REMARK   11  A    between atoms: C_18  and  CA_20
REMARK   12  A    between atoms: CA_20  and  N_21
REMARK   13  A    between atoms: CA_20  and  CB_22
REMARK   14  A    between atoms: CB_22  and  CG_23
REMARK   15  A    between atoms: N_31  and  CA_32
REMARK   16  A    between atoms: CA_32  and  CB_33
REMARK   17  A    between atoms: CA_32  and  C_34
REMARK   18  A    between atoms: C_34  and  OXT_36
REMARK                            x       y       z     vdW  Elec       q    Type
REMARK                         _______ _______ _______ _____ _____    ______ ____
ROOT
ATOM      1  CA  PHE A   2       2.831   6.917  18.621  0.00  0.00    +0.000 C 
ENDROOT
BRANCH   1   3
ATOM      2  N   ILE A   3       5.117   6.481  17.790  0.00  0.00    +0.000 N 
ATOM      3  C   PHE A   2       3.932   7.156  17.564  0.00  0.00    +0.000 C 
ATOM      4  O   PHE A   2       3.753   7.825  16.548  0.00  0.00    +0.000 OA
ATOM      5  H   ILE A   3       5.246   6.038  18.699  0.00  0.00    +0.000 HD
BRANCH   2   6
ATOM      6  CA  ILE A   3       6.245   6.606  16.850  0.00  0.00    +0.000 C 
BRANCH   6   7
ATOM      7  C   ILE A   3       6.428   5.288  16.043  0.00  0.00    +0.000 C 
ATOM      8  O   ILE A   3       6.554   4.190  16.583  0.00  0.00    +0.000 OA
ATOM      9  N   ALA A   4       6.339   5.416  14.676  0.00  0.00    +0.000 N 
ATOM     10  H   ALA A   4       6.332   6.356  14.287  0.00  0.00    +0.000 HD
BRANCH   9  11
ATOM     11  CA  ALA A   4       6.666   4.315  13.782  0.00  0.00    +0.000 C 
ATOM     12  CB  ALA A   4       5.402   3.657  13.259  0.00  0.00    +0.000 C 
BRANCH  11  13
ATOM     13  C   ALA A   4       7.515   4.847  12.635  0.00  0.00    +0.000 C 
ATOM     14  O   ALA A   4       7.512   4.375  11.500  0.00  0.00    +0.000 OA
BRANCH  13  15
ATOM     15  OXT ALA A   4       8.305   5.899  12.961  0.00  0.00    +0.000 OA
ATOM     16  HXT ALA A   4       8.185   6.680  12.379  0.00  0.00    +0.000 HD
ENDBRANCH  13  15
ENDBRANCH  11  13
ENDBRANCH   9  11
ENDBRANCH   6   7
BRANCH   6  17
ATOM     17  CB  ILE A   3       7.549   7.080  17.550  0.00  0.00    +0.000 C 
ATOM     18  CG2 ILE A   3       7.711   6.407  18.924  0.00  0.00    +0.000 C 
BRANCH  17  20
ATOM     19  CD1 ILE A   3       8.718   9.068  18.681  0.00  0.00    +0.000 C 
ATOM     20  CG1 ILE A   3       7.669   8.617  17.667  0.00  0.00    +0.000 C 
ENDBRANCH  17  20
ENDBRANCH   6  17
ENDBRANCH   2   6
ENDBRANCH   1   3
BRANCH   1  21
ATOM     21  N   PHE A   2       1.969   8.098  18.738  0.00  0.00    +0.000 N 
ATOM     22  C   PHE A   1       1.471   8.548  19.942  0.00  0.00    +0.000 C 
ATOM     23  O   PHE A   1       1.762   8.005  21.006  0.00  0.00    +0.000 OA
ATOM     24  H   PHE A   2       1.776   8.632  17.899  0.00  0.00    +0.000 HD
BRANCH  22  25
ATOM     25  CA  PHE A   1       0.506   9.748  19.814  0.00  0.00    +0.000 C 
BRANCH  25  26
ATOM     26  N   PHE A   1       1.120  10.916  20.481  0.00  0.00    +0.000 NA
ATOM     27  H1  PHE A   1       1.697  11.421  19.807  0.00  0.00    +0.000 HD
ATOM     28  H2  PHE A   1       1.755  10.606  21.216  0.00  0.00    +0.000 HD
ENDBRANCH  25  26
BRANCH  25  29
ATOM     29  CB  PHE A   1       0.193   9.991  18.325  0.00  0.00    +0.000 C 
BRANCH  29  30
ATOM     30  CG  PHE A   1      -1.246  10.355  18.026  0.00  0.00    +0.000 A 
ATOM     31  CD1 PHE A   1      -1.919  11.271  18.846  0.00  0.00    +0.000 A 
ATOM     32  CE1 PHE A   1      -3.243  11.619  18.586  0.00  0.00    +0.000 A 
ATOM     33  CZ  PHE A   1      -3.909  11.060  17.498  0.00  0.00    +0.000 A 
ATOM     34  CE2 PHE A   1      -3.250  10.150  16.672  0.00  0.00    +0.000 A 
ATOM     35  CD2 PHE A   1      -1.925   9.797  16.936  0.00  0.00    +0.000 A 
ENDBRANCH  29  30
ENDBRANCH  25  29
ENDBRANCH  22  25
ENDBRANCH   1  21
BRANCH   1  36
ATOM     36  CB  PHE A   2       2.024   5.670  18.216  0.00  0.00    +0.000 C 
BRANCH  36  37
ATOM     37  CG  PHE A   2       1.887   4.628  19.301  0.00  0.00    +0.000 A 
ATOM     38  CD1 PHE A   2       1.400   3.350  18.994  0.00  0.00    +0.000 A 
ATOM     39  CE1 PHE A   2       1.319   2.367  19.982  0.00  0.00    +0.000 A 
ATOM     40  CZ  PHE A   2       1.724   2.652  21.284  0.00  0.00    +0.000 A 
ATOM     41  CE2 PHE A   2       2.213   3.919  21.599  0.00  0.00    +0.000 A 
ATOM     42  CD2 PHE A   2       2.296   4.902  20.613  0.00  0.00    +0.000 A 
ENDBRANCH  36  37
ENDBRANCH   1  36
TORSDOF 15
ENDMDL
MODEL 2
REMARK VINA RESULT:      -7.9      0.828      1.566
REMARK  Name = 
REMARK  18 active torsions:
REMARK  status: ('A' for Active; 'I' for Inactive)
REMARK    1  A    between atoms: CD1_1  and  CG1_2
REMARK    2  A    between atoms: CG1_2  and  CB_3
REMARK    3  A    between atoms: CB_3  and  CG2_4
REMARK    4  A    between atoms: CB_3  and  CA_5
REMARK    5  A    between atoms: CA_5  and  N_6
REMARK    6  A    between atoms: CA_5  and  C_29
REMARK    7  A    between atoms: C_7  and  CA_9
REMARK    8  A    between atoms: CA_9  and  CB_10
REMARK    9  A    between atoms: CA_9  and  N_17
REMARK   10  A    between atoms: CB_10  and  CG_11
REMARK   11  A    between atoms: C_18  and  CA_20
REMARK   12  A    between atoms: CA_20  and  N_21
REMARK   13  A    between atoms: CA_20  and  CB_22
REMARK   14  A    between atoms: CB_22  and  CG_23
REMARK   15  A    between atoms: N_31  and  CA_32
REMARK   16  A    between atoms: CA_32  and  CB_33
REMARK   17  A    between atoms: CA_32  and  C_34
REMARK   18  A    between atoms: C_34  and  OXT_36
REMARK                            x       y       z     vdW  Elec       q    Type
REMARK                         _______ _______ _______ _____ _____    ______ ____
ROOT
ATOM      1  CA  PHE A   2       2.306   6.927  18.828  0.00  0.00    +0.000 C 
ENDROOT
BRANCH   1   3
ATOM      2  N   ILE A   3       4.501   6.264  17.909  0.00  0.00    +0.000 N 
ATOM      3  C   PHE A   2       3.562   7.275  18.000  0.00  0.00    +0.000 C 
ATOM      4  O   PHE A   2       3.693   8.334  17.391  0.00  0.00    +0.000 OA
ATOM      5  H   ILE A   3       4.393   5.458  18.524  0.00  0.00    +0.000 HD
BRANCH   2   6
ATOM      6  CA  ILE A   3       5.740   6.456  17.134  0.00  0.00    +0.000 C 
BRANCH   6   7
ATOM      7  C   ILE A   3       6.013   5.219  16.231  0.00  0.00    +0.000 C 
ATOM      8  O   ILE A   3       5.844   4.063  16.616  0.00  0.00    +0.000 OA
ATOM      9  N   ALA A   4       6.361   5.504  14.930  0.00  0.00    +0.000 N 
ATOM     10  H   ALA A   4       6.579   6.471  14.698  0.00  0.00    +0.000 HD
BRANCH   9  11
ATOM     11  CA  ALA A   4       6.820   4.468  14.017  0.00  0.00    +0.000 C 
ATOM     12  CB  ALA A   4       5.643   3.786  13.344  0.00  0.00    +0.000 C 
BRANCH  11  13
ATOM     13  C   ALA A   4       7.746   5.097  12.984  0.00  0.00    +0.000 C 
ATOM     14  O   ALA A   4       8.618   5.921  13.252  0.00  0.00    +0.000 OA
BRANCH  13  15
ATOM     15  OXT ALA A   4       7.530   4.685  11.710  0.00  0.00    +0.000 OA
ATOM     16  HXT ALA A   4       7.154   3.781  11.646  0.00  0.00    +0.000 HD
ENDBRANCH  13  15
ENDBRANCH  11  13
ENDBRANCH   9  11
ENDBRANCH   6   7
BRANCH   6  17
ATOM     17  CB  ILE A   3       6.949   6.832  18.036  0.00  0.00    +0.000 C 
ATOM     18  CG2 ILE A   3       7.771   7.970  17.406  0.00  0.00    +0.000 C 
BRANCH  17  20
ATOM     19  CD1 ILE A   3       8.075   5.476  19.904  0.00  0.00    +0.000 C 
ATOM     20  CG1 ILE A   3       7.851   5.632  18.402  0.00  0.00    +0.000 C 
ENDBRANCH  17  20
ENDBRANCH   6  17
ENDBRANCH   2   6
ENDBRANCH   1   3
BRANCH   1  21
ATOM     21  N   PHE A   2       1.534   8.140  19.120  0.00  0.00    +0.000 N 
ATOM     22  C   PHE A   1       1.234   8.548  20.402  0.00  0.00    +0.000 C 
ATOM     23  O   PHE A   1       1.639   7.936  21.388  0.00  0.00    +0.000 OA
ATOM     24  H   PHE A   2       1.255   8.726  18.343  0.00  0.00    +0.000 HD
BRANCH  22  25
ATOM     25  CA  PHE A   1       0.328   9.798  20.468  0.00  0.00    +0.000 C 
BRANCH  25  26
ATOM     26  N   PHE A   1       0.834  10.689  21.533  0.00  0.00    +0.000 NA
ATOM     27  H1  PHE A   1       0.045  11.162  21.976  0.00  0.00    +0.000 HD
ATOM     28  H2  PHE A   1       1.411  11.426  21.128  0.00  0.00    +0.000 HD
ENDBRANCH  25  26
BRANCH  25  29
ATOM     29  CB  PHE A   1       0.286  10.468  19.081  0.00  0.00    +0.000 C 
BRANCH  29  30
ATOM     30  CG  PHE A   1      -1.092  10.574  18.463  0.00  0.00    +0.000 A 
ATOM     31  CD1 PHE A   1      -1.424   9.780  17.356  0.00  0.00    +0.000 A 
ATOM     32  CE1 PHE A   1      -2.689   9.863  16.775  0.00  0.00    +0.000 A 
ATOM     33  CZ  PHE A   1      -3.638  10.737  17.297  0.00  0.00    +0.000 A 
ATOM     34  CE2 PHE A   1      -3.322  11.530  18.401  0.00  0.00    +0.000 A 
ATOM     35  CD2 PHE A   1      -2.055  11.451  18.980  0.00  0.00    +0.000 A 
ENDBRANCH  29  30
ENDBRANCH  25  29
ENDBRANCH  22  25
ENDBRANCH   1  21
BRANCH   1  36
ATOM     36  CB  PHE A   2       1.467   5.904  18.040  0.00  0.00    +0.000 C 
BRANCH  36  37
ATOM     37  CG  PHE A   2       1.581   4.481  18.534  0.00  0.00    +0.000 A 
ATOM     38  CD1 PHE A   2       2.171   3.499  17.727  0.00  0.00    +0.000 A 
ATOM     39  CE1 PHE A   2       2.327   2.194  18.198  0.00  0.00    +0.000 A 
ATOM     40  CZ  PHE A   2       1.894   1.860  19.479  0.00  0.00    +0.000 A 
ATOM     41  CE2 PHE A   2       1.309   2.829  20.292  0.00  0.00    +0.000 A 
ATOM     42  CD2 PHE A   2       1.155   4.134  19.824  0.00  0.00    +0.000 A 
ENDBRANCH  36  37
ENDBRANCH   1  36
TORSDOF 15
ENDMDL
MODEL 3
REMARK VINA RESULT:      -7.9      0.817      1.490
REMARK  Name = 
REMARK  18 active torsions:
REMARK  status: ('A' for Active; 'I' for Inactive)
REMARK    1  A    between atoms: CD1_1  and  CG1_2
REMARK    2  A    between atoms: CG1_2  and  CB_3
REMARK    3  A    between atoms: CB_3  and  CG2_4
REMARK    4  A    between atoms: CB_3  and  CA_5
REMARK    5  A    between atoms: CA_5  and  N_6
REMARK    6  A    between atoms: CA_5  and  C_29
REMARK    7  A    between atoms: C_7  and  CA_9
REMARK    8  A    between atoms: CA_9  and  CB_10
REMARK    9  A    between atoms: CA_9  and  N_17
REMARK   10  A    between atoms: CB_10  and  CG_11
REMARK   11  A    between atoms: C_18  and  CA_20
REMARK   12  A    between atoms: CA_20  and  N_21
REMARK   13  A    between atoms: CA_20  and  CB_22
REMARK   14  A    between atoms: CB_22  and  CG_23
REMARK   15  A    between atoms: N_31  and  CA_32
REMARK   16  A    between atoms: CA_32  and  CB_33
REMARK   17  A    between atoms: CA_32  and  C_34
REMARK   18  A    between atoms: C_34  and  OXT_36
REMARK                            x       y       z     vdW  Elec       q    Type
REMARK                         _______ _______ _______ _____ _____    ______ ____
ROOT
ATOM      1  CA  PHE A   2       2.345   6.978  18.844  0.00  0.00    +0.000 C 
ENDROOT
BRANCH   1   3
ATOM      2  N   ILE A   3       4.523   6.301  17.895  0.00  0.00    +0.000 N 
ATOM      3  C   PHE A   2       3.606   7.327  18.023  0.00  0.00    +0.000 C 
ATOM      4  O   PHE A   2       3.756   8.403  17.449  0.00  0.00    +0.000 OA
ATOM      5  H   ILE A   3       4.400   5.477  18.483  0.00  0.00    +0.000 HD
BRANCH   2   6
ATOM      6  CA  ILE A   3       5.763   6.492  17.122  0.00  0.00    +0.000 C 
BRANCH   6   7
ATOM      7  C   ILE A   3       6.038   5.255  16.220  0.00  0.00    +0.000 C 
ATOM      8  O   ILE A   3       5.820   4.101  16.588  0.00  0.00    +0.000 OA
ATOM      9  N   ALA A   4       6.448   5.540  14.937  0.00  0.00    +0.000 N 
ATOM     10  H   ALA A   4       6.703   6.501  14.723  0.00  0.00    +0.000 HD
BRANCH   9  11
ATOM     11  CA  ALA A   4       6.915   4.498  14.035  0.00  0.00    +0.000 C 
ATOM     12  CB  ALA A   4       5.742   3.771  13.402  0.00  0.00    +0.000 C 
BRANCH  11  13
ATOM     13  C   ALA A   4       7.802   5.129  12.970  0.00  0.00    +0.000 C 
ATOM     14  O   ALA A   4       8.682   5.954  13.207  0.00  0.00    +0.000 OA
BRANCH  13  15
ATOM     15  OXT ALA A   4       7.542   4.717  11.705  0.00  0.00    +0.000 OA
ATOM     16  HXT ALA A   4       8.029   5.219  11.017  0.00  0.00    +0.000 HD
ENDBRANCH  13  15
ENDBRANCH  11  13
ENDBRANCH   9  11
ENDBRANCH   6   7
BRANCH   6  17
ATOM     17  CB  ILE A   3       6.971   6.870  18.025  0.00  0.00    +0.000 C 
ATOM     18  CG2 ILE A   3       7.828   7.964  17.366  0.00  0.00    +0.000 C 
BRANCH  17  20
ATOM     19  CD1 ILE A   3       7.960   5.497  19.957  0.00  0.00    +0.000 C 
ATOM     20  CG1 ILE A   3       7.838   5.661  18.443  0.00  0.00    +0.000 C 
ENDBRANCH  17  20
ENDBRANCH   6  17
ENDBRANCH   2   6
ENDBRANCH   1   3
BRANCH   1  21
ATOM     21  N   PHE A   2       1.564   8.189  19.122  0.00  0.00    +0.000 N 
ATOM     22  C   PHE A   1       1.280   8.621  20.400  0.00  0.00    +0.000 C 
ATOM     23  O   PHE A   1       1.707   8.035  21.392  0.00  0.00    +0.000 OA
ATOM     24  H   PHE A   2       1.267   8.755  18.337  0.00  0.00    +0.000 HD
BRANCH  22  25
ATOM     25  CA  PHE A   1       0.361   9.862  20.452  0.00  0.00    +0.000 C 
BRANCH  25  26
ATOM     26  N   PHE A   1       0.884  10.790  21.478  0.00  0.00    +0.000 NA
ATOM     27  H1  PHE A   1       0.351  11.660  21.444  0.00  0.00    +0.000 HD
ATOM     28  H2  PHE A   1       1.848  11.044  21.261  0.00  0.00    +0.000 HD
ENDBRANCH  25  26
BRANCH  25  29
ATOM     29  CB  PHE A   1       0.276  10.491  19.048  0.00  0.00    +0.000 C 
BRANCH  29  30
ATOM     30  CG  PHE A   1      -1.124  10.610  18.485  0.00  0.00    +0.000 A 
ATOM     31  CD1 PHE A   1      -2.019  11.541  19.030  0.00  0.00    +0.000 A 
ATOM     32  CE1 PHE A   1      -3.312  11.665  18.523  0.00  0.00    +0.000 A 
ATOM     33  CZ  PHE A   1      -3.724  10.864  17.462  0.00  0.00    +0.000 A 
ATOM     34  CE2 PHE A   1      -2.842   9.935  16.908  0.00  0.00    +0.000 A 
ATOM     35  CD2 PHE A   1      -1.549   9.807  17.418  0.00  0.00    +0.000 A 
ENDBRANCH  29  30
ENDBRANCH  25  29
ENDBRANCH  22  25
ENDBRANCH   1  21
BRANCH   1  36
ATOM     36  CB  PHE A   2       1.518   5.944  18.058  0.00  0.00    +0.000 C 
BRANCH  36  37
ATOM     37  CG  PHE A   2       1.641   4.525  18.559  0.00  0.00    +0.000 A 
ATOM     38  CD1 PHE A   2       1.211   4.193  19.851  0.00  0.00    +0.000 A 
ATOM     39  CE1 PHE A   2       1.273   2.874  20.302  0.00  0.00    +0.000 A 
ATOM     40  CZ  PHE A   2       1.767   1.875  19.466  0.00  0.00    +0.000 A 
ATOM     41  CE2 PHE A   2       2.194   2.192  18.178  0.00  0.00    +0.000 A 
ATOM     42  CD2 PHE A   2       2.130   3.510  17.725  0.00  0.00    +0.000 A 
ENDBRANCH  36  37
ENDBRANCH   1  36
TORSDOF 15
ENDMDL
MODEL 4
REMARK VINA RESULT:      -7.8      1.592      2.126
REMARK  Name = 
REMARK  18 active torsions:
REMARK  status: ('A' for Active; 'I' for Inactive)
REMARK    1  A    between atoms: CD1_1  and  CG1_2
REMARK    2  A    between atoms: CG1_2  and  CB_3
REMARK    3  A    between atoms: CB_3  and  CG2_4
REMARK    4  A    between atoms: CB_3  and  CA_5
REMARK    5  A    between atoms: CA_5  and  N_6
REMARK    6  A    between atoms: CA_5  and  C_29
REMARK    7  A    between atoms: C_7  and  CA_9
REMARK    8  A    between atoms: CA_9  and  CB_10
REMARK    9  A    between atoms: CA_9  and  N_17
REMARK   10  A    between atoms: CB_10  and  CG_11
REMARK   11  A    between atoms: C_18  and  CA_20
REMARK   12  A    between atoms: CA_20  and  N_21
REMARK   13  A    between atoms: CA_20  and  CB_22
REMARK   14  A    between atoms: CB_22  and  CG_23
REMARK   15  A    between atoms: N_31  and  CA_32
REMARK   16  A    between atoms: CA_32  and  CB_33
REMARK   17  A    between atoms: CA_32  and  C_34
REMARK   18  A    between atoms: C_34  and  OXT_36
REMARK                            x       y       z     vdW  Elec       q    Type
REMARK                         _______ _______ _______ _____ _____    ______ ____
ROOT
ATOM      1  CA  PHE A   2       3.139   6.789  18.387  0.00  0.00    +0.000 C 
ENDROOT
BRANCH   1   3
ATOM      2  N   ILE A   3       5.545   6.751  17.831  0.00  0.00    +0.000 N 
ATOM      3  C   PHE A   2       4.271   6.997  17.357  0.00  0.00    +0.000 C 
ATOM      4  O   PHE A   2       4.062   7.276  16.178  0.00  0.00    +0.000 OA
ATOM      5  H   ILE A   3       5.665   6.636  18.837  0.00  0.00    +0.000 HD
BRANCH   2   6
ATOM      6  CA  ILE A   3       6.717   6.894  16.949  0.00  0.00    +0.000 C 
BRANCH   6   7
ATOM      7  C   ILE A   3       6.995   5.562  16.194  0.00  0.00    +0.000 C 
ATOM      8  O   ILE A   3       7.529   4.592  16.731  0.00  0.00    +0.000 OA
ATOM      9  N   ALA A   4       6.511   5.500  14.907  0.00  0.00    +0.000 N 
ATOM     10  H   ALA A   4       6.168   6.361  14.488  0.00  0.00    +0.000 HD
BRANCH   9  11
ATOM     11  CA  ALA A   4       6.846   4.399  14.017  0.00  0.00    +0.000 C 
ATOM     12  CB  ALA A   4       5.589   3.691  13.545  0.00  0.00    +0.000 C 
BRANCH  11  13
ATOM     13  C   ALA A   4       7.637   4.944  12.836  0.00  0.00    +0.000 C 
ATOM     14  O   ALA A   4       7.465   4.591  11.670  0.00  0.00    +0.000 OA
BRANCH  13  15
ATOM     15  OXT ALA A   4       8.579   5.862  13.165  0.00  0.00    +0.000 OA
ATOM     16  HXT ALA A   4       8.824   5.855  14.115  0.00  0.00    +0.000 HD
ENDBRANCH  13  15
ENDBRANCH  11  13
ENDBRANCH   9  11
ENDBRANCH   6   7
BRANCH   6  17
ATOM     17  CB  ILE A   3       7.962   7.441  17.702  0.00  0.00    +0.000 C 
ATOM     18  CG2 ILE A   3       8.132   6.743  19.062  0.00  0.00    +0.000 C 
BRANCH  17  20
ATOM     19  CD1 ILE A   3       8.968   9.477  18.902  0.00  0.00    +0.000 C 
ATOM     20  CG1 ILE A   3       7.967   8.978  17.862  0.00  0.00    +0.000 C 
ENDBRANCH  17  20
ENDBRANCH   6  17
ENDBRANCH   2   6
ENDBRANCH   1   3
BRANCH   1  21
ATOM     21  N   PHE A   2       2.245   7.953  18.407  0.00  0.00    +0.000 N 
ATOM     22  C   PHE A   1       1.641   8.414  19.557  0.00  0.00    +0.000 C 
ATOM     23  O   PHE A   1       1.853   7.899  20.652  0.00  0.00    +0.000 OA
ATOM     24  H   PHE A   2       2.112   8.466  17.545  0.00  0.00    +0.000 HD
BRANCH  22  25
ATOM     25  CA  PHE A   1       0.666   9.590  19.324  0.00  0.00    +0.000 C 
BRANCH  25  26
ATOM     26  N   PHE A   1       0.073   9.973  20.624  0.00  0.00    +0.000 NA
ATOM     27  H1  PHE A   1       0.154   9.187  21.272  0.00  0.00    +0.000 HD
ATOM     28  H2  PHE A   1      -0.926  10.145  20.516  0.00  0.00    +0.000 HD
ENDBRANCH  25  26
BRANCH  25  29
ATOM     29  CB  PHE A   1       1.417  10.745  18.634  0.00  0.00    +0.000 C 
BRANCH  29  30
ATOM     30  CG  PHE A   1       1.023  12.131  19.096  0.00  0.00    +0.000 A 
ATOM     31  CD1 PHE A   1       1.811  12.801  20.043  0.00  0.00    +0.000 A 
ATOM     32  CE1 PHE A   1       1.464  14.079  20.480  0.00  0.00    +0.000 A 
ATOM     33  CZ  PHE A   1       0.329  14.704  19.972  0.00  0.00    +0.000 A 
ATOM     34  CE2 PHE A   1      -0.462  14.050  19.027  0.00  0.00    +0.000 A 
ATOM     35  CD2 PHE A   1      -0.118  12.769  18.593  0.00  0.00    +0.000 A 
ENDBRANCH  29  30
ENDBRANCH  25  29
ENDBRANCH  22  25
ENDBRANCH   1  21
BRANCH   1  36
ATOM     36  CB  PHE A   2       2.375   5.501  18.025  0.00  0.00    +0.000 C 
BRANCH  36  37
ATOM     37  CG  PHE A   2       2.342   4.460  19.118  0.00  0.00    +0.000 A 
ATOM     38  CD1 PHE A   2       3.440   3.614  19.321  0.00  0.00    +0.000 A 
ATOM     39  CE1 PHE A   2       3.436   2.685  20.362  0.00  0.00    +0.000 A 
ATOM     40  CZ  PHE A   2       2.334   2.593  21.209  0.00  0.00    +0.000 A 
ATOM     41  CE2 PHE A   2       1.237   3.431  21.019  0.00  0.00    +0.000 A 
ATOM     42  CD2 PHE A   2       1.241   4.362  19.980  0.00  0.00    +0.000 A 
ENDBRANCH  36  37
ENDBRANCH   1  36
TORSDOF 15
ENDMDL
MODEL 5
REMARK VINA RESULT:      -7.7      1.063      1.280
REMARK  Name = 
REMARK  18 active torsions:
REMARK  status: ('A' for Active; 'I' for Inactive)
REMARK    1  A    between atoms: CD1_1  and  CG1_2
REMARK    2  A    between atoms: CG1_2  and  CB_3
REMARK    3  A    between atoms: CB_3  and  CG2_4
REMARK    4  A    between atoms: CB_3  and  CA_5
REMARK    5  A    between atoms: CA_5  and  N_6
REMARK    6  A    between atoms: CA_5  and  C_29
REMARK    7  A    between atoms: C_7  and  CA_9
REMARK    8  A    between atoms: CA_9  and  CB_10
REMARK    9  A    between atoms: CA_9  and  N_17
REMARK   10  A    between atoms: CB_10  and  CG_11
REMARK   11  A    between atoms: C_18  and  CA_20
REMARK   12  A    between atoms: CA_20  and  N_21
REMARK   13  A    between atoms: CA_20  and  CB_22
REMARK   14  A    between atoms: CB_22  and  CG_23
REMARK   15  A    between atoms: N_31  and  CA_32
REMARK   16  A    between atoms: CA_32  and  CB_33
REMARK   17  A    between atoms: CA_32  and  C_34
REMARK   18  A    between atoms: C_34  and  OXT_36
REMARK                            x       y       z     vdW  Elec       q    Type
REMARK                         _______ _______ _______ _____ _____    ______ ____
ROOT
ATOM      1  CA  PHE A   2       2.846   6.703  18.949  0.00  0.00    +0.000 C 
ENDROOT
BRANCH   1   3
ATOM      2  N   ILE A   3       4.695   5.893  17.524  0.00  0.00    +0.000 N 
ATOM      3  C   PHE A   2       3.742   6.878  17.704  0.00  0.00    +0.000 C 
ATOM      4  O   PHE A   2       3.576   7.774  16.878  0.00  0.00    +0.000 OA
ATOM      5  H   ILE A   3       4.860   5.246  18.295  0.00  0.00    +0.000 HD
BRANCH   2   6
ATOM      6  CA  ILE A   3       5.604   5.928  16.366  0.00  0.00    +0.000 C 
BRANCH   6   7
ATOM      7  C   ILE A   3       5.408   4.663  15.482  0.00  0.00    +0.000 C 
ATOM      8  O   ILE A   3       4.906   3.624  15.909  0.00  0.00    +0.000 OA
ATOM      9  N   ALA A   4       5.741   4.813  14.155  0.00  0.00    +0.000 N 
ATOM     10  H   ALA A   4       6.240   5.657  13.884  0.00  0.00    +0.000 HD
BRANCH   9  11
ATOM     11  CA  ALA A   4       5.785   3.678  13.245  0.00  0.00    +0.000 C 
ATOM     12  CB  ALA A   4       4.524   3.619  12.401  0.00  0.00    +0.000 C 
BRANCH  11  13
ATOM     13  C   ALA A   4       7.021   3.800  12.364  0.00  0.00    +0.000 C 
ATOM     14  O   ALA A   4       7.656   4.842  12.209  0.00  0.00    +0.000 OA
BRANCH  13  15
ATOM     15  OXT ALA A   4       7.379   2.654  11.735  0.00  0.00    +0.000 OA
ATOM     16  HXT ALA A   4       6.928   2.516  10.875  0.00  0.00    +0.000 HD
ENDBRANCH  13  15
ENDBRANCH  11  13
ENDBRANCH   9  11
ENDBRANCH   6   7
BRANCH   6  17
ATOM     17  CB  ILE A   3       7.084   6.158  16.783  0.00  0.00    +0.000 C 
ATOM     18  CG2 ILE A   3       7.550   5.081  17.776  0.00  0.00    +0.000 C 
BRANCH  17  20
ATOM     19  CD1 ILE A   3       8.302   7.589  18.534  0.00  0.00    +0.000 C 
ATOM     20  CG1 ILE A   3       7.363   7.577  17.330  0.00  0.00    +0.000 C 
ENDBRANCH  17  20
ENDBRANCH   6  17
ENDBRANCH   2   6
ENDBRANCH   1   3
BRANCH   1  21
ATOM     21  N   PHE A   2       2.075   7.926  19.201  0.00  0.00    +0.000 N 
ATOM     22  C   PHE A   1       1.517   8.222  20.427  0.00  0.00    +0.000 C 
ATOM     23  O   PHE A   1       1.674   7.492  21.403  0.00  0.00    +0.000 OA
ATOM     24  H   PHE A   2       1.996   8.602  18.452  0.00  0.00    +0.000 HD
BRANCH  22  25
ATOM     25  CA  PHE A   1       0.666   9.512  20.433  0.00  0.00    +0.000 C 
BRANCH  25  26
ATOM     26  N   PHE A   1       1.097  10.352  21.571  0.00  0.00    +0.000 NA
ATOM     27  H1  PHE A   1       0.284  10.578  22.146  0.00  0.00    +0.000 HD
ATOM     28  H2  PHE A   1       1.456  11.244  21.232  0.00  0.00    +0.000 HD
ENDBRANCH  25  26
BRANCH  25  29
ATOM     29  CB  PHE A   1       0.801  10.217  19.070  0.00  0.00    +0.000 C 
BRANCH  29  30
ATOM     30  CG  PHE A   1      -0.508  10.509  18.369  0.00  0.00    +0.000 A 
ATOM     31  CD1 PHE A   1      -1.206  11.689  18.659  0.00  0.00    +0.000 A 
ATOM     32  CE1 PHE A   1      -2.413  11.976  18.023  0.00  0.00    +0.000 A 
ATOM     33  CZ  PHE A   1      -2.934  11.088  17.085  0.00  0.00    +0.000 A 
ATOM     34  CE2 PHE A   1      -2.247   9.912  16.785  0.00  0.00    +0.000 A 
ATOM     35  CD2 PHE A   1      -1.042   9.622  17.425  0.00  0.00    +0.000 A 
ENDBRANCH  29  30
ENDBRANCH  25  29
ENDBRANCH  22  25
ENDBRANCH   1  21
BRANCH   1  36
ATOM     36  CB  PHE A   2       1.922   5.492  18.724  0.00  0.00    +0.000 C 
BRANCH  36  37
ATOM     37  CG  PHE A   2       2.122   4.356  19.698  0.00  0.00    +0.000 A 
ATOM     38  CD1 PHE A   2       3.308   3.610  19.678  0.00  0.00    +0.000 A 
ATOM     39  CE1 PHE A   2       3.521   2.592  20.609  0.00  0.00    +0.000 A 
ATOM     40  CZ  PHE A   2       2.550   2.312  21.569  0.00  0.00    +0.000 A 
ATOM     41  CE2 PHE A   2       1.369   3.050  21.601  0.00  0.00    +0.000 A 
ATOM     42  CD2 PHE A   2       1.156   4.069  20.672  0.00  0.00    +0.000 A 
ENDBRANCH  36  37
ENDBRANCH   1  36
TORSDOF 15
ENDMDL
MODEL 6
REMARK VINA RESULT:      -7.6      1.032      1.417
REMARK  Name = 
REMARK  18 active torsions:
REMARK  status: ('A' for Active; 'I' for Inactive)
REMARK    1  A    between atoms: CD1_1  and  CG1_2
REMARK    2  A    between atoms: CG1_2  and  CB_3
REMARK    3  A    between atoms: CB_3  and  CG2_4
REMARK    4  A    between atoms: CB_3  and  CA_5
REMARK    5  A    between atoms: CA_5  and  N_6
REMARK    6  A    between atoms: CA_5  and  C_29
REMARK    7  A    between atoms: C_7  and  CA_9
REMARK    8  A    between atoms: CA_9  and  CB_10
REMARK    9  A    between atoms: CA_9  and  N_17
REMARK   10  A    between atoms: CB_10  and  CG_11
REMARK   11  A    between atoms: C_18  and  CA_20
REMARK   12  A    between atoms: CA_20  and  N_21
REMARK   13  A    between atoms: CA_20  and  CB_22
REMARK   14  A    between atoms: CB_22  and  CG_23
REMARK   15  A    between atoms: N_31  and  CA_32
REMARK   16  A    between atoms: CA_32  and  CB_33
REMARK   17  A    between atoms: CA_32  and  C_34
REMARK   18  A    between atoms: C_34  and  OXT_36
REMARK                            x       y       z     vdW  Elec       q    Type
REMARK                         _______ _______ _______ _____ _____    ______ ____
ROOT
ATOM      1  CA  PHE A   2       2.860   6.639  19.058  0.00  0.00    +0.000 C 
ENDROOT
BRANCH   1   3
ATOM      2  N   ILE A   3       4.708   5.774  17.665  0.00  0.00    +0.000 N 
ATOM      3  C   PHE A   2       3.825   6.818  17.865  0.00  0.00    +0.000 C 
ATOM      4  O   PHE A   2       3.767   7.771  17.092  0.00  0.00    +0.000 OA
ATOM      5  H   ILE A   3       4.788   5.070  18.400  0.00  0.00    +0.000 HD
BRANCH   2   6
ATOM      6  CA  ILE A   3       5.673   5.807  16.552  0.00  0.00    +0.000 C 
BRANCH   6   7
ATOM      7  C   ILE A   3       5.444   4.600  15.597  0.00  0.00    +0.000 C 
ATOM      8  O   ILE A   3       4.878   3.567  15.954  0.00  0.00    +0.000 OA
ATOM      9  N   ALA A   4       5.824   4.801  14.290  0.00  0.00    +0.000 N 
ATOM     10  H   ALA A   4       6.371   5.632  14.078  0.00  0.00    +0.000 HD
BRANCH   9  11
ATOM     11  CA  ALA A   4       5.841   3.714  13.323  0.00  0.00    +0.000 C 
ATOM     12  CB  ALA A   4       4.575   3.722  12.485  0.00  0.00    +0.000 C 
BRANCH  11  13
ATOM     13  C   ALA A   4       7.075   3.857  12.442  0.00  0.00    +0.000 C 
ATOM     14  O   ALA A   4       7.480   2.984  11.676  0.00  0.00    +0.000 OA
BRANCH  13  15
ATOM     15  OXT ALA A   4       7.723   5.041  12.568  0.00  0.00    +0.000 OA
ATOM     16  HXT ALA A   4       7.658   5.615  11.775  0.00  0.00    +0.000 HD
ENDBRANCH  13  15
ENDBRANCH  11  13
ENDBRANCH   9  11
ENDBRANCH   6   7
BRANCH   6  17
ATOM     17  CB  ILE A   3       7.142   5.925  17.045  0.00  0.00    +0.000 C 
ATOM     18  CG2 ILE A   3       7.653   4.574  17.576  0.00  0.00    +0.000 C 
BRANCH  17  20
ATOM     19  CD1 ILE A   3       7.832   8.363  17.463  0.00  0.00    +0.000 C 
ATOM     20  CG1 ILE A   3       7.362   7.049  18.082  0.00  0.00    +0.000 C 
ENDBRANCH  17  20
ENDBRANCH   6  17
ENDBRANCH   2   6
ENDBRANCH   1   3
BRANCH   1  21
ATOM     21  N   PHE A   2       2.058   7.851  19.253  0.00  0.00    +0.000 N 
ATOM     22  C   PHE A   1       1.520   8.206  20.472  0.00  0.00    +0.000 C 
ATOM     23  O   PHE A   1       1.721   7.543  21.487  0.00  0.00    +0.000 OA
ATOM     24  H   PHE A   2       1.940   8.477  18.466  0.00  0.00    +0.000 HD
BRANCH  22  25
ATOM     25  CA  PHE A   1       0.630   9.468  20.421  0.00  0.00    +0.000 C 
BRANCH  25  26
ATOM     26  N   PHE A   1       1.085  10.406  21.470  0.00  0.00    +0.000 NA
ATOM     27  H1  PHE A   1       1.417   9.872  22.274  0.00  0.00    +0.000 HD
ATOM     28  H2  PHE A   1       0.300  10.962  21.807  0.00  0.00    +0.000 HD
ENDBRANCH  25  26
BRANCH  25  29
ATOM     29  CB  PHE A   1       0.680  10.069  19.003  0.00  0.00    +0.000 C 
BRANCH  29  30
ATOM     30  CG  PHE A   1      -0.667  10.422  18.410  0.00  0.00    +0.000 A 
ATOM     31  CD1 PHE A   1      -1.179   9.671  17.343  0.00  0.00    +0.000 A 
ATOM     32  CE1 PHE A   1      -2.419   9.981  16.786  0.00  0.00    +0.000 A 
ATOM     33  CZ  PHE A   1      -3.163  11.043  17.291  0.00  0.00    +0.000 A 
ATOM     34  CE2 PHE A   1      -2.667  11.797  18.355  0.00  0.00    +0.000 A 
ATOM     35  CD2 PHE A   1      -1.424  11.490  18.910  0.00  0.00    +0.000 A 
ENDBRANCH  29  30
ENDBRANCH  25  29
ENDBRANCH  22  25
ENDBRANCH   1  21
BRANCH   1  36
ATOM     36  CB  PHE A   2       1.969   5.412  18.788  0.00  0.00    +0.000 C 
BRANCH  36  37
ATOM     37  CG  PHE A   2       2.148   4.275  19.765  0.00  0.00    +0.000 A 
ATOM     38  CD1 PHE A   2       1.079   3.861  20.571  0.00  0.00    +0.000 A 
ATOM     39  CE1 PHE A   2       1.223   2.777  21.438  0.00  0.00    +0.000 A 
ATOM     40  CZ  PHE A   2       2.437   2.098  21.508  0.00  0.00    +0.000 A 
ATOM     41  CE2 PHE A   2       3.506   2.498  20.709  0.00  0.00    +0.000 A 
ATOM     42  CD2 PHE A   2       3.363   3.579  19.840  0.00  0.00    +0.000 A 
ENDBRANCH  36  37
ENDBRANCH   1  36
TORSDOF 15
ENDMDL
MODEL 7
REMARK VINA RESULT:      -7.6      3.087      6.121
REMARK  Name = 
REMARK  18 active torsions:
REMARK  status: ('A' for Active; 'I' for Inactive)
REMARK    1  A    between atoms: CD1_1  and  CG1_2
REMARK    2  A    between atoms: CG1_2  and  CB_3
REMARK    3  A    between atoms: CB_3  and  CG2_4
REMARK    4  A    between atoms: CB_3  and  CA_5
REMARK    5  A    between atoms: CA_5  and  N_6
REMARK    6  A    between atoms: CA_5  and  C_29
REMARK    7  A    between atoms: C_7  and  CA_9
REMARK    8  A    between atoms: CA_9  and  CB_10
REMARK    9  A    between atoms: CA_9  and  N_17
REMARK   10  A    between atoms: CB_10  and  CG_11
REMARK   11  A    between atoms: C_18  and  CA_20
REMARK   12  A    between atoms: CA_20  and  N_21
REMARK   13  A    between atoms: CA_20  and  CB_22
REMARK   14  A    between atoms: CB_22  and  CG_23
REMARK   15  A    between atoms: N_31  and  CA_32
REMARK   16  A    between atoms: CA_32  and  CB_33
REMARK   17  A    between atoms: CA_32  and  C_34
REMARK   18  A    between atoms: C_34  and  OXT_36
REMARK                            x       y       z     vdW  Elec       q    Type
REMARK                         _______ _______ _______ _____ _____    ______ ____
ROOT
ATOM      1  CA  PHE A   2       0.758   9.839  18.796  0.00  0.00    +0.000 C 
ENDROOT
BRANCH   1   3
ATOM      2  N   ILE A   3       2.165   7.917  18.142  0.00  0.00    +0.000 N 
ATOM      3  C   PHE A   2       1.605   8.612  19.197  0.00  0.00    +0.000 C 
ATOM      4  O   PHE A   2       1.844   8.314  20.365  0.00  0.00    +0.000 OA
ATOM      5  H   ILE A   3       1.841   8.140  17.201  0.00  0.00    +0.000 HD
BRANCH   2   6
ATOM      6  CA  ILE A   3       3.011   6.735  18.383  0.00  0.00    +0.000 C 
BRANCH   6   7
ATOM      7  C   ILE A   3       4.272   6.773  17.471  0.00  0.00    +0.000 C 
ATOM      8  O   ILE A   3       4.244   7.190  16.314  0.00  0.00    +0.000 OA
ATOM      9  N   ALA A   4       5.450   6.404  18.079  0.00  0.00    +0.000 N 
ATOM     10  H   ALA A   4       5.395   5.979  19.001  0.00  0.00    +0.000 HD
BRANCH   9  11
ATOM     11  CA  ALA A   4       6.676   6.216  17.318  0.00  0.00    +0.000 C 
ATOM     12  CB  ALA A   4       7.749   7.185  17.781  0.00  0.00    +0.000 C 
BRANCH  11  13
ATOM     13  C   ALA A   4       7.140   4.775  17.480  0.00  0.00    +0.000 C 
ATOM     14  O   ALA A   4       7.996   4.414  18.285  0.00  0.00    +0.000 OA
BRANCH  13  15
ATOM     15  OXT ALA A   4       6.537   3.892  16.647  0.00  0.00    +0.000 OA
ATOM     16  HXT ALA A   4       5.669   4.197  16.307  0.00  0.00    +0.000 HD
ENDBRANCH  13  15
ENDBRANCH  11  13
ENDBRANCH   9  11
ENDBRANCH   6   7
BRANCH   6  17
ATOM     17  CB  ILE A   3       2.216   5.404  18.270  0.00  0.00    +0.000 C 
ATOM     18  CG2 ILE A   3       1.831   4.874  19.662  0.00  0.00    +0.000 C 
BRANCH  17  20
ATOM     19  CD1 ILE A   3       3.527   3.196  18.292  0.00  0.00    +0.000 C 
ATOM     20  CG1 ILE A   3       2.936   4.317  17.440  0.00  0.00    +0.000 C 
ENDBRANCH  17  20
ENDBRANCH   6  17
ENDBRANCH   2   6
ENDBRANCH   1   3
BRANCH   1  21
ATOM     21  N   PHE A   2       1.626  10.978  18.476  0.00  0.00    +0.000 N 
ATOM     22  C   PHE A   1       1.740  12.086  19.287  0.00  0.00    +0.000 C 
ATOM     23  O   PHE A   1       1.148  12.166  20.361  0.00  0.00    +0.000 OA
ATOM     24  H   PHE A   2       2.203  10.918  17.646  0.00  0.00    +0.000 HD
BRANCH  22  25
ATOM     25  CA  PHE A   1       2.634  13.203  18.703  0.00  0.00    +0.000 C 
BRANCH  25  26
ATOM     26  N   PHE A   1       2.276  13.394  17.281  0.00  0.00    +0.000 NA
ATOM     27  H1  PHE A   1       1.316  13.735  17.221  0.00  0.00    +0.000 HD
ATOM     28  H2  PHE A   1       2.286  12.498  16.794  0.00  0.00    +0.000 HD
ENDBRANCH  25  26
BRANCH  25  29
ATOM     29  CB  PHE A   1       2.471  14.480  19.549  0.00  0.00    +0.000 C 
BRANCH  29  30
ATOM     30  CG  PHE A   1       1.637  15.569  18.909  0.00  0.00    +0.000 A 
ATOM     31  CD1 PHE A   1       2.265  16.601  18.198  0.00  0.00    +0.000 A 
ATOM     32  CE1 PHE A   1       1.513  17.612  17.600  0.00  0.00    +0.000 A 
ATOM     33  CZ  PHE A   1       0.125  17.601  17.703  0.00  0.00    +0.000 A 
ATOM     34  CE2 PHE A   1      -0.512  16.578  18.405  0.00  0.00    +0.000 A 
ATOM     35  CD2 PHE A   1       0.240  15.568  19.007  0.00  0.00    +0.000 A 
ENDBRANCH  29  30
ENDBRANCH  25  29
ENDBRANCH  22  25
ENDBRANCH   1  21
BRANCH   1  36
ATOM     36  CB  PHE A   2      -0.129   9.454  17.597  0.00  0.00    +0.000 C 
BRANCH  36  37
ATOM     37  CG  PHE A   2      -1.483  10.122  17.574  0.00  0.00    +0.000 A 
ATOM     38  CD1 PHE A   2      -1.877  10.955  18.630  0.00  0.00    +0.000 A 
ATOM     39  CE1 PHE A   2      -3.105  11.616  18.590  0.00  0.00    +0.000 A 
ATOM     40  CZ  PHE A   2      -3.950  11.451  17.495  0.00  0.00    +0.000 A 
ATOM     41  CE2 PHE A   2      -3.567  10.628  16.437  0.00  0.00    +0.000 A 
ATOM     42  CD2 PHE A   2      -2.339   9.968  16.475  0.00  0.00    +0.000 A 
ENDBRANCH  36  37
ENDBRANCH   1  36
TORSDOF 15
ENDMDL
MODEL 8
REMARK VINA RESULT:      -7.6      1.069      1.479
REMARK  Name = 
REMARK  18 active torsions:
REMARK  status: ('A' for Active; 'I' for Inactive)
REMARK    1  A    between atoms: CD1_1  and  CG1_2
REMARK    2  A    between atoms: CG1_2  and  CB_3
REMARK    3  A    between atoms: CB_3  and  CG2_4
REMARK    4  A    between atoms: CB_3  and  CA_5
REMARK    5  A    between atoms: CA_5  and  N_6
REMARK    6  A    between atoms: CA_5  and  C_29
REMARK    7  A    between atoms: C_7  and  CA_9
REMARK    8  A    between atoms: CA_9  and  CB_10
REMARK    9  A    between atoms: CA_9  and  N_17
REMARK   10  A    between atoms: CB_10  and  CG_11
REMARK   11  A    between atoms: C_18  and  CA_20
REMARK   12  A    between atoms: CA_20  and  N_21
REMARK   13  A    between atoms: CA_20  and  CB_22
REMARK   14  A    between atoms: CB_22  and  CG_23
REMARK   15  A    between atoms: N_31  and  CA_32
REMARK   16  A    between atoms: CA_32  and  CB_33
REMARK   17  A    between atoms: CA_32  and  C_34
REMARK   18  A    between atoms: C_34  and  OXT_36
REMARK                            x       y       z     vdW  Elec       q    Type
REMARK                         _______ _______ _______ _____ _____    ______ ____
ROOT
ATOM      1  CA  PHE A   2       2.563   7.135  18.852  0.00  0.00    +0.000 C 
ENDROOT
BRANCH   1   3
ATOM      2  N   ILE A   3       4.833   6.672  17.996  0.00  0.00    +0.000 N 
ATOM      3  C   PHE A   2       3.770   7.555  17.985  0.00  0.00    +0.000 C 
ATOM      4  O   PHE A   2       3.767   8.552  17.267  0.00  0.00    +0.000 OA
ATOM      5  H   ILE A   3       4.826   5.927  18.694  0.00  0.00    +0.000 HD
BRANCH   2   6
ATOM      6  CA  ILE A   3       6.043   6.940  17.199  0.00  0.00    +0.000 C 
BRANCH   6   7
ATOM      7  C   ILE A   3       5.830   6.502  15.722  0.00  0.00    +0.000 C 
ATOM      8  O   ILE A   3       4.878   6.887  15.044  0.00  0.00    +0.000 OA
ATOM      9  N   ALA A   4       6.836   5.732  15.184  0.00  0.00    +0.000 N 
ATOM     10  H   ALA A   4       7.544   5.367  15.816  0.00  0.00    +0.000 HD
BRANCH   9  11
ATOM     11  CA  ALA A   4       6.699   5.098  13.881  0.00  0.00    +0.000 C 
ATOM     12  CB  ALA A   4       8.012   5.147  13.121  0.00  0.00    +0.000 C 
BRANCH  11  13
ATOM     13  C   ALA A   4       6.241   3.659  14.079  0.00  0.00    +0.000 C 
ATOM     14  O   ALA A   4       5.938   3.177  15.169  0.00  0.00    +0.000 OA
BRANCH  13  15
ATOM     15  OXT ALA A   4       6.199   2.921  12.943  0.00  0.00    +0.000 OA
ATOM     16  HXT ALA A   4       6.381   1.967  13.084  0.00  0.00    +0.000 HD
ENDBRANCH  13  15
ENDBRANCH  11  13
ENDBRANCH   9  11
ENDBRANCH   6   7
BRANCH   6  17
ATOM     17  CB  ILE A   3       7.321   6.328  17.839  0.00  0.00    +0.000 C 
ATOM     18  CG2 ILE A   3       6.958   5.205  18.825  0.00  0.00    +0.000 C 
BRANCH  17  20
ATOM     19  CD1 ILE A   3       8.099   8.775  17.916  0.00  0.00    +0.000 C 
ATOM     20  CG1 ILE A   3       8.246   7.373  18.503  0.00  0.00    +0.000 C 
ENDBRANCH  17  20
ENDBRANCH   6  17
ENDBRANCH   2   6
ENDBRANCH   1   3
BRANCH   1  21
ATOM     21  N   PHE A   2       1.717   8.297  19.148  0.00  0.00    +0.000 N 
ATOM     22  C   PHE A   1       1.202   8.550  20.402  0.00  0.00    +0.000 C 
ATOM     23  O   PHE A   1       1.461   7.832  21.365  0.00  0.00    +0.000 OA
ATOM     24  H   PHE A   2       1.551   8.967  18.407  0.00  0.00    +0.000 HD
BRANCH  22  25
ATOM     25  CA  PHE A   1       0.260   9.774  20.458  0.00  0.00    +0.000 C 
BRANCH  25  26
ATOM     26  N   PHE A   1       0.727  10.676  21.532  0.00  0.00    +0.000 NA
ATOM     27  H1  PHE A   1       0.885  10.131  22.381  0.00  0.00    +0.000 HD
ATOM     28  H2  PHE A   1      -0.003  11.350  21.764  0.00  0.00    +0.000 HD
ENDBRANCH  25  26
BRANCH  25  29
ATOM     29  CB  PHE A   1       0.218  10.447  19.072  0.00  0.00    +0.000 C 
BRANCH  29  30
ATOM     30  CG  PHE A   1      -1.162  10.573  18.464  0.00  0.00    +0.000 A 
ATOM     31  CD1 PHE A   1      -2.105  11.433  19.045  0.00  0.00    +0.000 A 
ATOM     32  CE1 PHE A   1      -3.381  11.563  18.499  0.00  0.00    +0.000 A 
ATOM     33  CZ  PHE A   1      -3.728  10.838  17.362  0.00  0.00    +0.000 A 
ATOM     34  CE2 PHE A   1      -2.799   9.981  16.772  0.00  0.00    +0.000 A 
ATOM     35  CD2 PHE A   1      -1.523   9.847  17.322  0.00  0.00    +0.000 A 
ENDBRANCH  29  30
ENDBRANCH  25  29
ENDBRANCH  22  25
ENDBRANCH   1  21
BRANCH   1  36
ATOM     36  CB  PHE A   2       1.775   6.045  18.102  0.00  0.00    +0.000 C 
BRANCH  36  37
ATOM     37  CG  PHE A   2       1.663   4.730  18.837  0.00  0.00    +0.000 A 
ATOM     38  CD1 PHE A   2       1.494   3.536  18.125  0.00  0.00    +0.000 A 
ATOM     39  CE1 PHE A   2       1.441   2.312  18.794  0.00  0.00    +0.000 A 
ATOM     40  CZ  PHE A   2       1.557   2.273  20.182  0.00  0.00    +0.000 A 
ATOM     41  CE2 PHE A   2       1.729   3.454  20.901  0.00  0.00    +0.000 A 
ATOM     42  CD2 PHE A   2       1.784   4.677  20.233  0.00  0.00    +0.000 A 
ENDBRANCH  36  37
ENDBRANCH   1  36
TORSDOF 15
ENDMDL
MODEL 9
REMARK VINA RESULT:      -7.5      2.825      6.057
REMARK  Name = 
REMARK  18 active torsions:
REMARK  status: ('A' for Active; 'I' for Inactive)
REMARK    1  A    between atoms: CD1_1  and  CG1_2
REMARK    2  A    between atoms: CG1_2  and  CB_3
REMARK    3  A    between atoms: CB_3  and  CG2_4
REMARK    4  A    between atoms: CB_3  and  CA_5
REMARK    5  A    between atoms: CA_5  and  N_6
REMARK    6  A    between atoms: CA_5  and  C_29
REMARK    7  A    between atoms: C_7  and  CA_9
REMARK    8  A    between atoms: CA_9  and  CB_10
REMARK    9  A    between atoms: CA_9  and  N_17
REMARK   10  A    between atoms: CB_10  and  CG_11
REMARK   11  A    between atoms: C_18  and  CA_20
REMARK   12  A    between atoms: CA_20  and  N_21
REMARK   13  A    between atoms: CA_20  and  CB_22
REMARK   14  A    between atoms: CB_22  and  CG_23
REMARK   15  A    between atoms: N_31  and  CA_32
REMARK   16  A    between atoms: CA_32  and  CB_33
REMARK   17  A    between atoms: CA_32  and  C_34
REMARK   18  A    between atoms: C_34  and  OXT_36
REMARK                            x       y       z     vdW  Elec       q    Type
REMARK                         _______ _______ _______ _____ _____    ______ ____
ROOT
ATOM      1  CA  PHE A   2       0.947   9.213  19.309  0.00  0.00    +0.000 C 
ENDROOT
BRANCH   1   3
ATOM      2  N   ILE A   3       2.250   7.370  18.305  0.00  0.00    +0.000 N 
ATOM      3  C   PHE A   2       1.846   7.969  19.483  0.00  0.00    +0.000 C 
ATOM      4  O   PHE A   2       2.250   7.581  20.576  0.00  0.00    +0.000 OA
ATOM      5  H   ILE A   3       1.794   7.664  17.441  0.00  0.00    +0.000 HD
BRANCH   2   6
ATOM      6  CA  ILE A   3       3.126   6.185  18.325  0.00  0.00    +0.000 C 
BRANCH   6   7
ATOM      7  C   ILE A   3       4.403   6.437  17.473  0.00  0.00    +0.000 C 
ATOM      8  O   ILE A   3       4.362   6.903  16.335  0.00  0.00    +0.000 OA
ATOM      9  N   ALA A   4       5.597   6.200  18.115  0.00  0.00    +0.000 N 
ATOM     10  H   ALA A   4       5.565   5.726  19.015  0.00  0.00    +0.000 HD
BRANCH   9  11
ATOM     11  CA  ALA A   4       6.865   6.216  17.401  0.00  0.00    +0.000 C 
ATOM     12  CB  ALA A   4       7.603   7.519  17.649  0.00  0.00    +0.000 C 
BRANCH  11  13
ATOM     13  C   ALA A   4       7.700   5.026  17.853  0.00  0.00    +0.000 C 
ATOM     14  O   ALA A   4       8.108   4.145  17.099  0.00  0.00    +0.000 OA
BRANCH  13  15
ATOM     15  OXT ALA A   4       7.962   4.994  19.183  0.00  0.00    +0.000 OA
ATOM     16  HXT ALA A   4       7.455   5.655  19.702  0.00  0.00    +0.000 HD
ENDBRANCH  13  15
ENDBRANCH  11  13
ENDBRANCH   9  11
ENDBRANCH   6   7
BRANCH   6  17
ATOM     17  CB  ILE A   3       2.371   4.885  17.925  0.00  0.00    +0.000 C 
ATOM     18  CG2 ILE A   3       1.544   4.346  19.104  0.00  0.00    +0.000 C 
BRANCH  17  20
ATOM     19  CD1 ILE A   3       2.743   2.374  17.535  0.00  0.00    +0.000 C 
ATOM     20  CG1 ILE A   3       3.289   3.787  17.342  0.00  0.00    +0.000 C 
ENDBRANCH  17  20
ENDBRANCH   6  17
ENDBRANCH   2   6
ENDBRANCH   1   3
BRANCH   1  21
ATOM     21  N   PHE A   2       0.637   9.807  20.614  0.00  0.00    +0.000 N 
ATOM     22  C   PHE A   1      -0.284   9.266  21.485  0.00  0.00    +0.000 C 
ATOM     23  O   PHE A   1      -0.874   8.217  21.235  0.00  0.00    +0.000 OA
ATOM     24  H   PHE A   2       1.164  10.622  20.903  0.00  0.00    +0.000 HD
BRANCH  22  25
ATOM     25  CA  PHE A   1      -0.519  10.114  22.756  0.00  0.00    +0.000 C 
BRANCH  25  26
ATOM     26  N   PHE A   1       0.429   9.668  23.799  0.00  0.00    +0.000 NA
ATOM     27  H1  PHE A   1      -0.039   9.001  24.413  0.00  0.00    +0.000 HD
ATOM     28  H2  PHE A   1       0.693  10.456  24.391  0.00  0.00    +0.000 HD
ENDBRANCH  25  26
BRANCH  25  29
ATOM     29  CB  PHE A   1      -0.380  11.607  22.403  0.00  0.00    +0.000 C 
BRANCH  29  30
ATOM     30  CG  PHE A   1      -1.559  12.470  22.799  0.00  0.00    +0.000 A 
ATOM     31  CD1 PHE A   1      -1.530  13.849  22.550  0.00  0.00    +0.000 A 
ATOM     32  CE1 PHE A   1      -2.607  14.659  22.907  0.00  0.00    +0.000 A 
ATOM     33  CZ  PHE A   1      -3.729  14.099  23.513  0.00  0.00    +0.000 A 
ATOM     34  CE2 PHE A   1      -3.772  12.727  23.763  0.00  0.00    +0.000 A 
ATOM     35  CD2 PHE A   1      -2.692  11.917  23.410  0.00  0.00    +0.000 A 
ENDBRANCH  29  30
ENDBRANCH  25  29
ENDBRANCH  22  25
ENDBRANCH   1  21
BRANCH   1  36
ATOM     36  CB  PHE A   2       1.669  10.217  18.392  0.00  0.00    +0.000 C 
BRANCH  36  37
ATOM     37  CG  PHE A   2       1.228  11.652  18.556  0.00  0.00    +0.000 A 
ATOM     38  CD1 PHE A   2      -0.136  11.972  18.581  0.00  0.00    +0.000 A 
ATOM     39  CE1 PHE A   2      -0.551  13.289  18.784  0.00  0.00    +0.000 A 
ATOM     40  CZ  PHE A   2       0.393  14.297  18.964  0.00  0.00    +0.000 A 
ATOM     41  CE2 PHE A   2       1.752  13.990  18.945  0.00  0.00    +0.000 A 
ATOM     42  CD2 PHE A   2       2.169  12.674  18.744  0.00  0.00    +0.000 A 
ENDBRANCH  36  37
ENDBRANCH   1  36
TORSDOF 15
ENDMDL
