MODEL 1
REMARK VINA RESULT:      -6.4      0.000      0.000
REMARK  Name = 
REMARK  8 active torsions:
REMARK  status: ('A' for Active; 'I' for Inactive)
REMARK    1  A    between atoms: C_1  and  C_2
REMARK    2  A    between atoms: C_2  and  C_3
REMARK    3  A    between atoms: C_6  and  O_7
REMARK    4  A    between atoms: C_8  and  O_9
REMARK    5  A    between atoms: C_12  and  C_13
REMARK    6  A    between atoms: C_13  and  O_14
REMARK    7  A    between atoms: O_14  and  S_15
REMARK    8  A    between atoms: S_15  and  N_16
REMARK                            x       y       z     vdW  Elec       q    Type
REMARK                         _______ _______ _______ _____ _____    ______ ____
ROOT
ATOM      1  C   UNL     1       2.064   7.059  19.845  0.00  0.00    +0.000 C 
ATOM      2  C   UNL     1       2.658   5.883  19.070  0.00  0.00    +0.000 C 
ATOM      3  C   UNL     1       1.574   4.853  18.776  0.00  0.00    +0.000 C 
ATOM      4  O   UNL     1       3.159   6.311  17.784  0.00  0.00    +0.000 OA
ATOM      5  C   UNL     1       4.531   6.478  18.066  0.00  0.00    +0.000 C 
ATOM      6  C   UNL     1       5.454   6.679  16.893  0.00  0.00    +0.000 C 
ATOM      7  C   UNL     1       6.866   6.884  17.471  0.00  0.00    +0.000 C 
ATOM      8  C   UNL     1       7.199   5.816  18.534  0.00  0.00    +0.000 C 
ATOM      9  O   UNL     1       6.173   5.688  19.552  0.00  0.00    +0.000 OA
ATOM     10  C   UNL     1       4.901   5.318  18.975  0.00  0.00    +0.000 C 
ATOM     11  O   UNL     1       3.757   5.374  19.873  0.00  0.00    +0.000 OA
ENDROOT
BRANCH   6  12
ATOM     12  O   UNL     1       5.428   5.555  16.011  0.00  0.00    +0.000 OA
ATOM     13  H   UNL     1       6.071   5.758  15.302  0.00  0.00    +0.000 HD
ENDBRANCH   6  12
BRANCH   7  14
ATOM     14  O   UNL     1       7.826   6.893  16.418  0.00  0.00    +0.000 OA
ATOM     15  H   UNL     1       7.351   6.615  15.609  0.00  0.00    +0.000 HD
ENDBRANCH   7  14
BRANCH  10  16
ATOM     16  C   UNL     1       4.969   3.828  18.550  0.00  0.00    +0.000 C 
BRANCH  16  17
ATOM     17  O   UNL     1       5.345   3.123  19.751  0.00  0.00    +0.000 OA
BRANCH  17  18
ATOM     18  S   UNL     1       4.538   1.800  20.202  0.00  0.00    +0.000 S 
ATOM     19  O   UNL     1       5.439   0.972  20.969  0.00  0.00    +0.000 OA
ATOM     20  O   UNL     1       3.247   2.203  20.686  0.00  0.00    +0.000 OA
BRANCH  18  21
ATOM     21  N   UNL     1       4.306   1.021  18.735  0.00  0.00    +0.000 NA
ATOM     22  H   UNL     1       4.998   1.321  18.052  0.00  0.00    +0.000 HD
ATOM     23  H   UNL     1       3.346   1.126  18.414  0.00  0.00    +0.000 HD
ENDBRANCH  18  21
ENDBRANCH  17  18
ENDBRANCH  16  17
ENDBRANCH  10  16
TORSDOF 6
ENDMDL
MODEL 2
REMARK VINA RESULT:      -6.4      0.856      1.030
REMARK  Name = 
REMARK  8 active torsions:
REMARK  status: ('A' for Active; 'I' for Inactive)
REMARK    1  A    between atoms: C_1  and  C_2
REMARK    2  A    between atoms: C_2  and  C_3
REMARK    3  A    between atoms: C_6  and  O_7
REMARK    4  A    between atoms: C_8  and  O_9
REMARK    5  A    between atoms: C_12  and  C_13
REMARK    6  A    between atoms: C_13  and  O_14
REMARK    7  A    between atoms: O_14  and  S_15
REMARK    8  A    between atoms: S_15  and  N_16
REMARK                            x       y       z     vdW  Elec       q    Type
REMARK                         _______ _______ _______ _____ _____    ______ ____
ROOT
ATOM      1  C   UNL     1       2.210   7.242  19.629  0.00  0.00    +0.000 C 
ATOM      2  C   UNL     1       2.772   6.021  18.903  0.00  0.00    +0.000 C 
ATOM      3  C   UNL     1       1.655   5.022  18.625  0.00  0.00    +0.000 C 
ATOM      4  O   UNL     1       3.308   6.387  17.612  0.00  0.00    +0.000 OA
ATOM      5  C   UNL     1       4.680   6.512  17.911  0.00  0.00    +0.000 C 
ATOM      6  C   UNL     1       5.629   6.640  16.748  0.00  0.00    +0.000 C 
ATOM      7  C   UNL     1       7.037   6.812  17.342  0.00  0.00    +0.000 C 
ATOM      8  C   UNL     1       7.314   5.768  18.444  0.00  0.00    +0.000 C 
ATOM      9  O   UNL     1       6.269   5.713  19.449  0.00  0.00    +0.000 OA
ATOM     10  C   UNL     1       4.993   5.370  18.863  0.00  0.00    +0.000 C 
ATOM     11  O   UNL     1       3.838   5.498  19.740  0.00  0.00    +0.000 OA
ENDROOT
BRANCH   6  12
ATOM     12  O   UNL     1       5.574   5.489  15.902  0.00  0.00    +0.000 OA
ATOM     13  H   UNL     1       5.252   4.758  16.466  0.00  0.00    +0.000 HD
ENDBRANCH   6  12
BRANCH   7  14
ATOM     14  O   UNL     1       8.014   6.751  16.305  0.00  0.00    +0.000 OA
ATOM     15  H   UNL     1       8.760   6.227  16.661  0.00  0.00    +0.000 HD
ENDBRANCH   7  14
BRANCH  10  16
ATOM     16  C   UNL     1       5.012   3.866  18.489  0.00  0.00    +0.000 C 
BRANCH  16  17
ATOM     17  O   UNL     1       5.377   3.190  19.709  0.00  0.00    +0.000 OA
BRANCH  17  18
ATOM     18  S   UNL     1       4.513   1.931  20.231  0.00  0.00    +0.000 S 
ATOM     19  O   UNL     1       4.041   1.208  19.074  0.00  0.00    +0.000 OA
ATOM     20  O   UNL     1       5.234   1.303  21.302  0.00  0.00    +0.000 OA
BRANCH  18  21
ATOM     21  N   UNL     1       3.173   2.687  20.901  0.00  0.00    +0.000 NA
ATOM     22  H   UNL     1       2.442   2.010  21.106  0.00  0.00    +0.000 HD
ATOM     23  H   UNL     1       2.861   3.459  20.318  0.00  0.00    +0.000 HD
ENDBRANCH  18  21
ENDBRANCH  17  18
ENDBRANCH  16  17
ENDBRANCH  10  16
TORSDOF 6
ENDMDL
MODEL 3
REMARK VINA RESULT:      -6.3      2.562      4.519
REMARK  Name = 
REMARK  8 active torsions:
REMARK  status: ('A' for Active; 'I' for Inactive)
REMARK    1  A    between atoms: C_1  and  C_2
REMARK    2  A    between atoms: C_2  and  C_3
REMARK    3  A    between atoms: C_6  and  O_7
REMARK    4  A    between atoms: C_8  and  O_9
REMARK    5  A    between atoms: C_12  and  C_13
REMARK    6  A    between atoms: C_13  and  O_14
REMARK    7  A    between atoms: O_14  and  S_15
REMARK    8  A    between atoms: S_15  and  N_16
REMARK                            x       y       z     vdW  Elec       q    Type
REMARK                         _______ _______ _______ _____ _____    ______ ____
ROOT
ATOM      1  C   UNL     1       2.128   7.110  19.589  0.00  0.00    +0.000 C 
ATOM      2  C   UNL     1       3.056   6.453  18.568  0.00  0.00    +0.000 C 
ATOM      3  C   UNL     1       3.570   7.497  17.585  0.00  0.00    +0.000 C 
ATOM      4  O   UNL     1       4.226   5.901  19.211  0.00  0.00    +0.000 OA
ATOM      5  C   UNL     1       3.851   4.549  19.349  0.00  0.00    +0.000 C 
ATOM      6  C   UNL     1       4.926   3.575  19.755  0.00  0.00    +0.000 C 
ATOM      7  C   UNL     1       4.252   2.198  19.882  0.00  0.00    +0.000 C 
ATOM      8  C   UNL     1       3.364   1.891  18.657  0.00  0.00    +0.000 C 
ATOM      9  O   UNL     1       2.435   2.961  18.348  0.00  0.00    +0.000 OA
ATOM     10  C   UNL     1       3.129   4.195  18.059  0.00  0.00    +0.000 C 
ATOM     11  O   UNL     1       2.293   5.382  17.949  0.00  0.00    +0.000 OA
ENDROOT
BRANCH   6  12
ATOM     12  O   UNL     1       5.983   3.533  18.794  0.00  0.00    +0.000 OA
ATOM     13  H   UNL     1       5.557   3.669  17.924  0.00  0.00    +0.000 HD
ENDBRANCH   6  12
BRANCH   7  14
ATOM     14  O   UNL     1       5.239   1.189  20.081  0.00  0.00    +0.000 OA
ATOM     15  H   UNL     1       5.947   1.365  19.429  0.00  0.00    +0.000 HD
ENDBRANCH   7  14
BRANCH  10  16
ATOM     16  C   UNL     1       3.790   4.073  16.662  0.00  0.00    +0.000 C 
BRANCH  16  17
ATOM     17  O   UNL     1       5.085   4.689  16.816  0.00  0.00    +0.000 OA
BRANCH  17  18
ATOM     18  S   UNL     1       6.031   4.924  15.530  0.00  0.00    +0.000 S 
ATOM     19  O   UNL     1       5.903   3.773  14.668  0.00  0.00    +0.000 OA
ATOM     20  O   UNL     1       5.835   6.270  15.067  0.00  0.00    +0.000 OA
BRANCH  18  21
ATOM     21  N   UNL     1       7.563   4.843  16.210  0.00  0.00    +0.000 NA
ATOM     22  H   UNL     1       7.546   5.160  17.177  0.00  0.00    +0.000 HD
ATOM     23  H   UNL     1       8.244   5.332  15.633  0.00  0.00    +0.000 HD
ENDBRANCH  18  21
ENDBRANCH  17  18
ENDBRANCH  16  17
ENDBRANCH  10  16
TORSDOF 6
ENDMDL
MODEL 4
REMARK VINA RESULT:      -6.3      2.742      3.507
REMARK  Name = 
REMARK  8 active torsions:
REMARK  status: ('A' for Active; 'I' for Inactive)
REMARK    1  A    between atoms: C_1  and  C_2
REMARK    2  A    between atoms: C_2  and  C_3
REMARK    3  A    between atoms: C_6  and  O_7
REMARK    4  A    between atoms: C_8  and  O_9
REMARK    5  A    between atoms: C_12  and  C_13
REMARK    6  A    between atoms: C_13  and  O_14
REMARK    7  A    between atoms: O_14  and  S_15
REMARK    8  A    between atoms: S_15  and  N_16
REMARK                            x       y       z     vdW  Elec       q    Type
REMARK                         _______ _______ _______ _____ _____    ______ ____
ROOT
ATOM      1  C   UNL     1       1.036   3.841  18.609  0.00  0.00    +0.000 C 
ATOM      2  C   UNL     1       2.515   3.517  18.820  0.00  0.00    +0.000 C 
ATOM      3  C   UNL     1       2.657   2.342  19.780  0.00  0.00    +0.000 C 
ATOM      4  O   UNL     1       3.134   3.098  17.584  0.00  0.00    +0.000 OA
ATOM      5  C   UNL     1       3.731   4.302  17.155  0.00  0.00    +0.000 C 
ATOM      6  C   UNL     1       4.703   4.216  16.007  0.00  0.00    +0.000 C 
ATOM      7  C   UNL     1       5.162   5.654  15.708  0.00  0.00    +0.000 C 
ATOM      8  C   UNL     1       5.566   6.396  17.000  0.00  0.00    +0.000 C 
ATOM      9  O   UNL     1       4.555   6.319  18.038  0.00  0.00    +0.000 OA
ATOM     10  C   UNL     1       4.288   4.949  18.412  0.00  0.00    +0.000 C 
ATOM     11  O   UNL     1       3.142   4.742  19.286  0.00  0.00    +0.000 OA
ENDROOT
BRANCH   6  12
ATOM     12  O   UNL     1       5.820   3.386  16.330  0.00  0.00    +0.000 OA
ATOM     13  H   UNL     1       6.171   3.729  17.176  0.00  0.00    +0.000 HD
ENDBRANCH   6  12
BRANCH   7  14
ATOM     14  O   UNL     1       6.225   5.638  14.758  0.00  0.00    +0.000 OA
ATOM     15  H   UNL     1       6.779   4.863  14.979  0.00  0.00    +0.000 HD
ENDBRANCH   7  14
BRANCH  10  16
ATOM     16  C   UNL     1       5.488   4.421  19.239  0.00  0.00    +0.000 C 
BRANCH  16  17
ATOM     17  O   UNL     1       6.267   5.596  19.543  0.00  0.00    +0.000 OA
BRANCH  17  18
ATOM     18  S   UNL     1       7.858   5.608  19.278  0.00  0.00    +0.000 S 
ATOM     19  O   UNL     1       8.171   4.500  18.406  0.00  0.00    +0.000 OA
ATOM     20  O   UNL     1       8.259   6.958  18.997  0.00  0.00    +0.000 OA
BRANCH  18  21
ATOM     21  N   UNL     1       8.462   5.208  20.792  0.00  0.00    +0.000 NA
ATOM     22  H   UNL     1       8.250   4.240  21.022  0.00  0.00    +0.000 HD
ATOM     23  H   UNL     1       8.149   5.872  21.496  0.00  0.00    +0.000 HD
ENDBRANCH  18  21
ENDBRANCH  17  18
ENDBRANCH  16  17
ENDBRANCH  10  16
TORSDOF 6
ENDMDL
MODEL 5
REMARK VINA RESULT:      -6.3      2.447      4.266
REMARK  Name = 
REMARK  8 active torsions:
REMARK  status: ('A' for Active; 'I' for Inactive)
REMARK    1  A    between atoms: C_1  and  C_2
REMARK    2  A    between atoms: C_2  and  C_3
REMARK    3  A    between atoms: C_6  and  O_7
REMARK    4  A    between atoms: C_8  and  O_9
REMARK    5  A    between atoms: C_12  and  C_13
REMARK    6  A    between atoms: C_13  and  O_14
REMARK    7  A    between atoms: O_14  and  S_15
REMARK    8  A    between atoms: S_15  and  N_16
REMARK                            x       y       z     vdW  Elec       q    Type
REMARK                         _______ _______ _______ _____ _____    ______ ____
ROOT
ATOM      1  C   UNL     1       7.456   4.863  13.294  0.00  0.00    +0.000 C 
ATOM      2  C   UNL     1       6.375   4.645  14.353  0.00  0.00    +0.000 C 
ATOM      3  C   UNL     1       5.247   3.797  13.778  0.00  0.00    +0.000 C 
ATOM      4  O   UNL     1       6.895   3.904  15.479  0.00  0.00    +0.000 OA
ATOM      5  C   UNL     1       7.196   4.948  16.378  0.00  0.00    +0.000 C 
ATOM      6  C   UNL     1       7.531   4.560  17.795  0.00  0.00    +0.000 C 
ATOM      7  C   UNL     1       7.863   5.862  18.544  0.00  0.00    +0.000 C 
ATOM      8  C   UNL     1       6.801   6.951  18.278  0.00  0.00    +0.000 C 
ATOM      9  O   UNL     1       6.534   7.151  16.867  0.00  0.00    +0.000 OA
ATOM     10  C   UNL     1       6.051   5.939  16.245  0.00  0.00    +0.000 C 
ATOM     11  O   UNL     1       5.957   5.965  14.793  0.00  0.00    +0.000 OA
ENDROOT
BRANCH   6  12
ATOM     12  O   UNL     1       6.441   3.882  18.421  0.00  0.00    +0.000 OA
ATOM     13  H   UNL     1       6.184   3.165  17.808  0.00  0.00    +0.000 HD
ENDBRANCH   6  12
BRANCH   7  14
ATOM     14  O   UNL     1       8.008   5.600  19.937  0.00  0.00    +0.000 OA
ATOM     15  H   UNL     1       8.969   5.615  20.121  0.00  0.00    +0.000 HD
ENDBRANCH   7  14
BRANCH  10  16
ATOM     16  C   UNL     1       4.592   5.696  16.709  0.00  0.00    +0.000 C 
BRANCH  16  17
ATOM     17  O   UNL     1       4.429   4.264  16.666  0.00  0.00    +0.000 OA
BRANCH  17  18
ATOM     18  S   UNL     1       3.376   3.535  17.648  0.00  0.00    +0.000 S 
ATOM     19  O   UNL     1       3.428   4.203  18.927  0.00  0.00    +0.000 OA
ATOM     20  O   UNL     1       2.153   3.330  16.925  0.00  0.00    +0.000 OA
BRANCH  18  21
ATOM     21  N   UNL     1       4.091   2.033  17.865  0.00  0.00    +0.000 NA
ATOM     22  H   UNL     1       4.796   2.070  18.597  0.00  0.00    +0.000 HD
ATOM     23  H   UNL     1       4.438   1.663  16.984  0.00  0.00    +0.000 HD
ENDBRANCH  18  21
ENDBRANCH  17  18
ENDBRANCH  16  17
ENDBRANCH  10  16
TORSDOF 6
ENDMDL
MODEL 6
REMARK VINA RESULT:      -6.3      2.648      3.517
REMARK  Name = 
REMARK  8 active torsions:
REMARK  status: ('A' for Active; 'I' for Inactive)
REMARK    1  A    between atoms: C_1  and  C_2
REMARK    2  A    between atoms: C_2  and  C_3
REMARK    3  A    between atoms: C_6  and  O_7
REMARK    4  A    between atoms: C_8  and  O_9
REMARK    5  A    between atoms: C_12  and  C_13
REMARK    6  A    between atoms: C_13  and  O_14
REMARK    7  A    between atoms: O_14  and  S_15
REMARK    8  A    between atoms: S_15  and  N_16
REMARK                            x       y       z     vdW  Elec       q    Type
REMARK                         _______ _______ _______ _____ _____    ______ ____
ROOT
ATOM      1  C   UNL     1       1.061   3.597  18.218  0.00  0.00    +0.000 C 
ATOM      2  C   UNL     1       2.538   3.389  18.551  0.00  0.00    +0.000 C 
ATOM      3  C   UNL     1       2.689   2.262  19.566  0.00  0.00    +0.000 C 
ATOM      4  O   UNL     1       3.279   2.973  17.382  0.00  0.00    +0.000 OA
ATOM      5  C   UNL     1       3.820   4.201  16.949  0.00  0.00    +0.000 C 
ATOM      6  C   UNL     1       4.880   4.147  15.881  0.00  0.00    +0.000 C 
ATOM      7  C   UNL     1       5.259   5.602  15.558  0.00  0.00    +0.000 C 
ATOM      8  C   UNL     1       5.510   6.416  16.845  0.00  0.00    +0.000 C 
ATOM      9  O   UNL     1       4.432   6.302  17.809  0.00  0.00    +0.000 OA
ATOM     10  C   UNL     1       4.233   4.931  18.217  0.00  0.00    +0.000 C 
ATOM     11  O   UNL     1       3.041   4.672  19.011  0.00  0.00    +0.000 OA
ENDROOT
BRANCH   6  12
ATOM     12  O   UNL     1       6.025   3.412  16.319  0.00  0.00    +0.000 OA
ATOM     13  H   UNL     1       6.146   2.692  15.668  0.00  0.00    +0.000 HD
ENDBRANCH   6  12
BRANCH   7  14
ATOM     14  O   UNL     1       6.390   5.631  14.691  0.00  0.00    +0.000 OA
ATOM     15  H   UNL     1       6.334   6.472  14.194  0.00  0.00    +0.000 HD
ENDBRANCH   7  14
BRANCH  10  16
ATOM     16  C   UNL     1       5.401   4.521  19.151  0.00  0.00    +0.000 C 
BRANCH  16  17
ATOM     17  O   UNL     1       6.154   5.735  19.347  0.00  0.00    +0.000 OA
BRANCH  17  18
ATOM     18  S   UNL     1       7.767   5.696  19.366  0.00  0.00    +0.000 S 
ATOM     19  O   UNL     1       8.247   6.929  18.787  0.00  0.00    +0.000 OA
ATOM     20  O   UNL     1       8.192   5.223  20.654  0.00  0.00    +0.000 OA
BRANCH  18  21
ATOM     21  N   UNL     1       8.096   4.486  18.251  0.00  0.00    +0.000 NA
ATOM     22  H   UNL     1       9.082   4.483  18.001  0.00  0.00    +0.000 HD
ATOM     23  H   UNL     1       7.474   4.551  17.449  0.00  0.00    +0.000 HD
ENDBRANCH  18  21
ENDBRANCH  17  18
ENDBRANCH  16  17
ENDBRANCH  10  16
TORSDOF 6
ENDMDL
MODEL 7
REMARK VINA RESULT:      -6.3      2.123      2.176
REMARK  Name = 
REMARK  8 active torsions:
REMARK  status: ('A' for Active; 'I' for Inactive)
REMARK    1  A    between atoms: C_1  and  C_2
REMARK    2  A    between atoms: C_2  and  C_3
REMARK    3  A    between atoms: C_6  and  O_7
REMARK    4  A    between atoms: C_8  and  O_9
REMARK    5  A    between atoms: C_12  and  C_13
REMARK    6  A    between atoms: C_13  and  O_14
REMARK    7  A    between atoms: O_14  and  S_15
REMARK    8  A    between atoms: S_15  and  N_16
REMARK                            x       y       z     vdW  Elec       q    Type
REMARK                         _______ _______ _______ _____ _____    ______ ____
ROOT
ATOM      1  C   UNL     1       2.779   7.816  17.937  0.00  0.00    +0.000 C 
ATOM      2  C   UNL     1       2.912   6.296  18.037  0.00  0.00    +0.000 C 
ATOM      3  C   UNL     1       1.546   5.642  17.867  0.00  0.00    +0.000 C 
ATOM      4  O   UNL     1       3.736   5.778  16.970  0.00  0.00    +0.000 OA
ATOM      5  C   UNL     1       4.984   5.666  17.618  0.00  0.00    +0.000 C 
ATOM      6  C   UNL     1       6.068   4.909  16.896  0.00  0.00    +0.000 C 
ATOM      7  C   UNL     1       7.323   4.978  17.783  0.00  0.00    +0.000 C 
ATOM      8  C   UNL     1       6.994   4.631  19.251  0.00  0.00    +0.000 C 
ATOM      9  O   UNL     1       5.875   5.390  19.776  0.00  0.00    +0.000 OA
ATOM     10  C   UNL     1       4.672   5.151  19.013  0.00  0.00    +0.000 C 
ATOM     11  O   UNL     1       3.545   6.021  19.316  0.00  0.00    +0.000 OA
ENDROOT
BRANCH   6  12
ATOM     12  O   UNL     1       5.689   3.551  16.662  0.00  0.00    +0.000 OA
ATOM     13  H   UNL     1       6.278   3.009  17.225  0.00  0.00    +0.000 HD
ENDBRANCH   6  12
BRANCH   7  14
ATOM     14  O   UNL     1       8.339   4.127  17.258  0.00  0.00    +0.000 OA
ATOM     15  H   UNL     1       8.168   4.056  16.297  0.00  0.00    +0.000 HD
ENDBRANCH   7  14
BRANCH  10  16
ATOM     16  C   UNL     1       4.148   3.732  19.352  0.00  0.00    +0.000 C 
BRANCH  16  17
ATOM     17  O   UNL     1       3.201   3.937  20.420  0.00  0.00    +0.000 OA
BRANCH  17  18
ATOM     18  S   UNL     1       2.035   2.855  20.692  0.00  0.00    +0.000 S 
ATOM     19  O   UNL     1       2.036   1.917  19.595  0.00  0.00    +0.000 OA
ATOM     20  O   UNL     1       2.112   2.447  22.067  0.00  0.00    +0.000 OA
BRANCH  18  21
ATOM     21  N   UNL     1       0.651   3.789  20.521  0.00  0.00    +0.000 NA
ATOM     22  H   UNL     1      -0.169   3.281  20.844  0.00  0.00    +0.000 HD
ATOM     23  H   UNL     1       0.564   4.139  19.570  0.00  0.00    +0.000 HD
ENDBRANCH  18  21
ENDBRANCH  17  18
ENDBRANCH  16  17
ENDBRANCH  10  16
TORSDOF 6
ENDMDL
MODEL 8
REMARK VINA RESULT:      -6.2      2.852      3.557
REMARK  Name = 
REMARK  8 active torsions:
REMARK  status: ('A' for Active; 'I' for Inactive)
REMARK    1  A    between atoms: C_1  and  C_2
REMARK    2  A    between atoms: C_2  and  C_3
REMARK    3  A    between atoms: C_6  and  O_7
REMARK    4  A    between atoms: C_8  and  O_9
REMARK    5  A    between atoms: C_12  and  C_13
REMARK    6  A    between atoms: C_13  and  O_14
REMARK    7  A    between atoms: O_14  and  S_15
REMARK    8  A    between atoms: S_15  and  N_16
REMARK                            x       y       z     vdW  Elec       q    Type
REMARK                         _______ _______ _______ _____ _____    ______ ____
ROOT
ATOM      1  C   UNL     1       1.030   3.404  18.216  0.00  0.00    +0.000 C 
ATOM      2  C   UNL     1       2.502   3.283  18.611  0.00  0.00    +0.000 C 
ATOM      3  C   UNL     1       2.674   2.173  19.641  0.00  0.00    +0.000 C 
ATOM      4  O   UNL     1       3.313   2.904  17.478  0.00  0.00    +0.000 OA
ATOM      5  C   UNL     1       3.801   4.158  17.057  0.00  0.00    +0.000 C 
ATOM      6  C   UNL     1       4.907   4.159  16.034  0.00  0.00    +0.000 C 
ATOM      7  C   UNL     1       5.215   5.632  15.716  0.00  0.00    +0.000 C 
ATOM      8  C   UNL     1       5.365   6.467  17.006  0.00  0.00    +0.000 C 
ATOM      9  O   UNL     1       4.255   6.297  17.924  0.00  0.00    +0.000 OA
ATOM     10  C   UNL     1       4.118   4.918  18.335  0.00  0.00    +0.000 C 
ATOM     11  O   UNL     1       2.911   4.596  19.082  0.00  0.00    +0.000 OA
ENDROOT
BRANCH   6  12
ATOM     12  O   UNL     1       6.072   3.494  16.526  0.00  0.00    +0.000 OA
ATOM     13  H   UNL     1       6.581   4.171  17.014  0.00  0.00    +0.000 HD
ENDBRANCH   6  12
BRANCH   7  14
ATOM     14  O   UNL     1       6.378   5.721  14.896  0.00  0.00    +0.000 OA
ATOM     15  H   UNL     1       6.263   5.059  14.184  0.00  0.00    +0.000 HD
ENDBRANCH   7  14
BRANCH  10  16
ATOM     16  C   UNL     1       5.267   4.582  19.320  0.00  0.00    +0.000 C 
BRANCH  16  17
ATOM     17  O   UNL     1       6.159   5.712  19.240  0.00  0.00    +0.000 OA
BRANCH  17  18
ATOM     18  S   UNL     1       7.756   5.495  19.319  0.00  0.00    +0.000 S 
ATOM     19  O   UNL     1       8.107   5.286  20.704  0.00  0.00    +0.000 OA
ATOM     20  O   UNL     1       8.139   4.589  18.273  0.00  0.00    +0.000 OA
BRANCH  18  21
ATOM     21  N   UNL     1       8.332   7.015  18.904  0.00  0.00    +0.000 NA
ATOM     22  H   UNL     1       8.488   7.581  19.734  0.00  0.00    +0.000 HD
ATOM     23  H   UNL     1       7.726   7.459  18.217  0.00  0.00    +0.000 HD
ENDBRANCH  18  21
ENDBRANCH  17  18
ENDBRANCH  16  17
ENDBRANCH  10  16
TORSDOF 6
ENDMDL
MODEL 9
REMARK VINA RESULT:      -6.1      2.690      4.494
REMARK  Name = 
REMARK  8 active torsions:
REMARK  status: ('A' for Active; 'I' for Inactive)
REMARK    1  A    between atoms: C_1  and  C_2
REMARK    2  A    between atoms: C_2  and  C_3
REMARK    3  A    between atoms: C_6  and  O_7
REMARK    4  A    between atoms: C_8  and  O_9
REMARK    5  A    between atoms: C_12  and  C_13
REMARK    6  A    between atoms: C_13  and  O_14
REMARK    7  A    between atoms: O_14  and  S_15
REMARK    8  A    between atoms: S_15  and  N_16
REMARK                            x       y       z     vdW  Elec       q    Type
REMARK                         _______ _______ _______ _____ _____    ______ ____
ROOT
ATOM      1  C   UNL     1       1.919   6.912  19.149  0.00  0.00    +0.000 C 
ATOM      2  C   UNL     1       3.113   6.367  18.366  0.00  0.00    +0.000 C 
ATOM      3  C   UNL     1       3.803   7.499  17.615  0.00  0.00    +0.000 C 
ATOM      4  O   UNL     1       4.109   5.816  19.256  0.00  0.00    +0.000 OA
ATOM      5  C   UNL     1       3.788   4.443  19.210  0.00  0.00    +0.000 C 
ATOM      6  C   UNL     1       4.776   3.485  19.822  0.00  0.00    +0.000 C 
ATOM      7  C   UNL     1       4.170   2.078  19.687  0.00  0.00    +0.000 C 
ATOM      8  C   UNL     1       3.645   1.827  18.257  0.00  0.00    +0.000 C 
ATOM      9  O   UNL     1       2.767   2.879  17.782  0.00  0.00    +0.000 OA
ATOM     10  C   UNL     1       3.441   4.157  17.759  0.00  0.00    +0.000 C 
ATOM     11  O   UNL     1       2.597   5.315  17.507  0.00  0.00    +0.000 OA
ENDROOT
BRANCH   6  12
ATOM     12  O   UNL     1       6.044   3.555  19.167  0.00  0.00    +0.000 OA
ATOM     13  H   UNL     1       5.853   3.811  18.243  0.00  0.00    +0.000 HD
ENDBRANCH   6  12
BRANCH   7  14
ATOM     14  O   UNL     1       5.128   1.095  20.073  0.00  0.00    +0.000 OA
ATOM     15  H   UNL     1       4.626   0.272  20.239  0.00  0.00    +0.000 HD
ENDBRANCH   7  14
BRANCH  10  16
ATOM     16  C   UNL     1       4.444   4.162  16.576  0.00  0.00    +0.000 C 
BRANCH  16  17
ATOM     17  O   UNL     1       5.628   4.793  17.105  0.00  0.00    +0.000 OA
BRANCH  17  18
ATOM     18  S   UNL     1       6.987   4.828  16.235  0.00  0.00    +0.000 S 
ATOM     19  O   UNL     1       8.016   4.157  16.994  0.00  0.00    +0.000 OA
ATOM     20  O   UNL     1       6.665   4.479  14.880  0.00  0.00    +0.000 OA
BRANCH  18  21
ATOM     21  N   UNL     1       7.367   6.463  16.257  0.00  0.00    +0.000 NA
ATOM     22  H   UNL     1       7.782   6.749  15.373  0.00  0.00    +0.000 HD
ATOM     23  H   UNL     1       7.937   6.693  17.067  0.00  0.00    +0.000 HD
ENDBRANCH  18  21
ENDBRANCH  17  18
ENDBRANCH  16  17
ENDBRANCH  10  16
TORSDOF 6
ENDMDL
