MODEL 1
REMARK VINA RESULT:      -8.0      0.000      0.000
REMARK  Name = 
REMARK  3 active torsions:
REMARK  status: ('A' for Active; 'I' for Inactive)
REMARK    1  A    between atoms: C_4  and  C_5
REMARK    2  A    between atoms: C_14  and  S_15
REMARK    3  A    between atoms: S_15  and  C_18
REMARK                            x       y       z     vdW  Elec       q    Type
REMARK                         _______ _______ _______ _____ _____    ______ ____
ROOT
ATOM      1  C   UNL     1       4.691   6.015  16.665  0.00  0.00    +0.000 A 
ATOM      2  N   UNL     1       4.200   7.289  16.549  0.00  0.00    +0.000 N 
ATOM      3  C   UNL     1       3.366   7.594  17.596  0.00  0.00    +0.000 A 
ATOM      4  C   UNL     1       2.630   8.764  17.825  0.00  0.00    +0.000 A 
ATOM      5  C   UNL     1       1.833   8.818  18.967  0.00  0.00    +0.000 A 
ATOM      6  C   UNL     1       1.802   7.748  19.853  0.00  0.00    +0.000 A 
ATOM      7 CL   UNL     1       0.800   7.848  21.252  0.00  0.00    +0.000 Cl
ATOM      8  C   UNL     1       2.558   6.589  19.622  0.00  0.00    +0.000 A 
ATOM      9  C   UNL     1       3.347   6.486  18.450  0.00  0.00    +0.000 A 
ATOM     10  C   UNL     1       4.185   5.482  17.842  0.00  0.00    +0.000 A 
ATOM     11  H   UNL     1       4.391   7.919  15.784  0.00  0.00    +0.000 HD
ENDROOT
BRANCH   1  15
ATOM     12  N   UNL     1       5.790   3.288  12.875  0.00  0.00    +0.000 N 
ATOM     13  C   UNL     1       6.022   4.106  13.907  0.00  0.00    +0.000 A 
ATOM     14  N   UNL     1       5.097   4.468  14.754  0.00  0.00    +0.000 NA
ATOM     15  C   UNL     1       5.581   5.379  15.655  0.00  0.00    +0.000 A 
ATOM     16  C   UNL     1       6.926   5.650  15.530  0.00  0.00    +0.000 A 
ATOM     17  S   UNL     1       7.580   4.756  14.218  0.00  0.00    +0.000 S 
ATOM     18  H   UNL     1       4.896   2.807  12.869  0.00  0.00    +0.000 HD
ATOM     19  H   UNL     1       6.555   2.803  12.430  0.00  0.00    +0.000 HD
ENDBRANCH   1  15
BRANCH  10  20
ATOM     20  S   UNL     1       4.491   3.885  18.467  0.00  0.00    +0.000 S 
ATOM     21  O   UNL     1       4.459   3.003  17.316  0.00  0.00    +0.000 OA
ATOM     22  O   UNL     1       5.694   4.010  19.268  0.00  0.00    +0.000 OA
BRANCH  20  23
ATOM     23  C   UNL     1       3.109   3.415  19.480  0.00  0.00    +0.000 A 
ATOM     24  C   UNL     1       1.849   3.228  18.906  0.00  0.00    +0.000 A 
ATOM     25  C   UNL     1       0.764   2.882  19.714  0.00  0.00    +0.000 A 
ATOM     26  C   UNL     1       0.944   2.706  21.087  0.00  0.00    +0.000 A 
ATOM     27  C   UNL     1       2.206   2.879  21.657  0.00  0.00    +0.000 A 
ATOM     28  C   UNL     1       3.295   3.240  20.859  0.00  0.00    +0.000 A 
ENDBRANCH  20  23
ENDBRANCH  10  20
TORSDOF 3
ENDMDL
MODEL 2
REMARK VINA RESULT:      -7.9      0.974      1.070
REMARK  Name = 
REMARK  3 active torsions:
REMARK  status: ('A' for Active; 'I' for Inactive)
REMARK    1  A    between atoms: C_4  and  C_5
REMARK    2  A    between atoms: C_14  and  S_15
REMARK    3  A    between atoms: S_15  and  C_18
REMARK                            x       y       z     vdW  Elec       q    Type
REMARK                         _______ _______ _______ _____ _____    ______ ____
ROOT
ATOM      1  C   UNL     1       4.536   6.029  16.568  0.00  0.00    +0.000 A 
ATOM      2  N   UNL     1       4.036   7.303  16.495  0.00  0.00    +0.000 N 
ATOM      3  C   UNL     1       3.269   7.597  17.595  0.00  0.00    +0.000 A 
ATOM      4  C   UNL     1       2.548   8.764  17.879  0.00  0.00    +0.000 A 
ATOM      5  C   UNL     1       1.825   8.807  19.070  0.00  0.00    +0.000 A 
ATOM      6  C   UNL     1       1.852   7.729  19.948  0.00  0.00    +0.000 A 
ATOM      7 CL   UNL     1       0.939   7.815  21.408  0.00  0.00    +0.000 Cl
ATOM      8  C   UNL     1       2.593   6.574  19.659  0.00  0.00    +0.000 A 
ATOM      9  C   UNL     1       3.307   6.482  18.439  0.00  0.00    +0.000 A 
ATOM     10  C   UNL     1       4.106   5.485  17.771  0.00  0.00    +0.000 A 
ATOM     11  H   UNL     1       4.177   7.940  15.724  0.00  0.00    +0.000 HD
ENDROOT
BRANCH   1  15
ATOM     12  N   UNL     1       8.384   5.447  13.766  0.00  0.00    +0.000 N 
ATOM     13  C   UNL     1       7.160   5.190  14.238  0.00  0.00    +0.000 A 
ATOM     14  N   UNL     1       6.563   5.942  15.122  0.00  0.00    +0.000 NA
ATOM     15  C   UNL     1       5.361   5.404  15.499  0.00  0.00    +0.000 A 
ATOM     16  C   UNL     1       5.010   4.257  14.821  0.00  0.00    +0.000 A 
ATOM     17  S   UNL     1       6.248   3.835  13.709  0.00  0.00    +0.000 S 
ATOM     18  H   UNL     1       8.776   6.356  13.988  0.00  0.00    +0.000 HD
ATOM     19  H   UNL     1       8.689   5.036  12.895  0.00  0.00    +0.000 HD
ENDBRANCH   1  15
BRANCH  10  20
ATOM     20  S   UNL     1       4.453   3.884  18.362  0.00  0.00    +0.000 S 
ATOM     21  O   UNL     1       4.356   3.012  17.206  0.00  0.00    +0.000 OA
ATOM     22  O   UNL     1       5.701   4.005  19.091  0.00  0.00    +0.000 OA
BRANCH  20  23
ATOM     23  C   UNL     1       3.135   3.400  19.450  0.00  0.00    +0.000 A 
ATOM     24  C   UNL     1       1.842   3.222  18.952  0.00  0.00    +0.000 A 
ATOM     25  C   UNL     1       0.808   2.866  19.820  0.00  0.00    +0.000 A 
ATOM     26  C   UNL     1       1.073   2.668  21.177  0.00  0.00    +0.000 A 
ATOM     27  C   UNL     1       2.367   2.830  21.671  0.00  0.00    +0.000 A 
ATOM     28  C   UNL     1       3.406   3.202  20.813  0.00  0.00    +0.000 A 
ENDBRANCH  20  23
ENDBRANCH  10  20
TORSDOF 3
ENDMDL
MODEL 3
REMARK VINA RESULT:      -7.6      2.786      5.090
REMARK  Name = 
REMARK  3 active torsions:
REMARK  status: ('A' for Active; 'I' for Inactive)
REMARK    1  A    between atoms: C_4  and  C_5
REMARK    2  A    between atoms: C_14  and  S_15
REMARK    3  A    between atoms: S_15  and  C_18
REMARK                            x       y       z     vdW  Elec       q    Type
REMARK                         _______ _______ _______ _____ _____    ______ ____
ROOT
ATOM      1  C   UNL     1       5.226   4.092  15.869  0.00  0.00    +0.000 A 
ATOM      2  N   UNL     1       4.880   2.846  16.323  0.00  0.00    +0.000 N 
ATOM      3  C   UNL     1       4.156   2.927  17.487  0.00  0.00    +0.000 A 
ATOM      4  C   UNL     1       3.659   1.892  18.290  0.00  0.00    +0.000 A 
ATOM      5  C   UNL     1       2.964   2.243  19.445  0.00  0.00    +0.000 A 
ATOM      6  C   UNL     1       2.755   3.581  19.762  0.00  0.00    +0.000 A 
ATOM      7 CL   UNL     1       1.896   3.977  21.203  0.00  0.00    +0.000 Cl
ATOM      8  C   UNL     1       3.243   4.608  18.939  0.00  0.00    +0.000 A 
ATOM      9  C   UNL     1       3.989   4.285  17.779  0.00  0.00    +0.000 A 
ATOM     10  C   UNL     1       4.683   5.018  16.750  0.00  0.00    +0.000 A 
ATOM     11  H   UNL     1       5.145   1.974  15.889  0.00  0.00    +0.000 HD
ENDROOT
BRANCH   1  15
ATOM     12  N   UNL     1       8.914   5.829  13.342  0.00  0.00    +0.000 N 
ATOM     13  C   UNL     1       7.776   5.157  13.550  0.00  0.00    +0.000 A 
ATOM     14  N   UNL     1       7.139   5.167  14.688  0.00  0.00    +0.000 NA
ATOM     15  C   UNL     1       6.058   4.326  14.658  0.00  0.00    +0.000 A 
ATOM     16  C   UNL     1       5.832   3.728  13.437  0.00  0.00    +0.000 A 
ATOM     17  S   UNL     1       7.039   4.217  12.318  0.00  0.00    +0.000 S 
ATOM     18  H   UNL     1       9.183   6.499  14.055  0.00  0.00    +0.000 HD
ATOM     19  H   UNL     1       9.214   6.040  12.402  0.00  0.00    +0.000 HD
ENDBRANCH   1  15
BRANCH  10  20
ATOM     20  S   UNL     1       4.827   6.750  16.642  0.00  0.00    +0.000 S 
ATOM     21  O   UNL     1       5.012   7.039  15.232  0.00  0.00    +0.000 OA
ATOM     22  O   UNL     1       3.680   7.276  17.357  0.00  0.00    +0.000 OA
BRANCH  20  23
ATOM     23  C   UNL     1       6.339   7.229  17.440  0.00  0.00    +0.000 A 
ATOM     24  C   UNL     1       7.028   6.317  18.245  0.00  0.00    +0.000 A 
ATOM     25  C   UNL     1       8.203   6.711  18.889  0.00  0.00    +0.000 A 
ATOM     26  C   UNL     1       8.697   8.005  18.710  0.00  0.00    +0.000 A 
ATOM     27  C   UNL     1       8.017   8.909  17.894  0.00  0.00    +0.000 A 
ATOM     28  C   UNL     1       6.832   8.530  17.258  0.00  0.00    +0.000 A 
ENDBRANCH  20  23
ENDBRANCH  10  20
TORSDOF 3
ENDMDL
MODEL 4
REMARK VINA RESULT:      -7.4      7.753     10.895
REMARK  Name = 
REMARK  3 active torsions:
REMARK  status: ('A' for Active; 'I' for Inactive)
REMARK    1  A    between atoms: C_4  and  C_5
REMARK    2  A    between atoms: C_14  and  S_15
REMARK    3  A    between atoms: S_15  and  C_18
REMARK                            x       y       z     vdW  Elec       q    Type
REMARK                         _______ _______ _______ _____ _____    ______ ____
ROOT
ATOM      1  C   UNL     1      -1.317  11.578  22.323  0.00  0.00    +0.000 A 
ATOM      2  N   UNL     1      -0.595  10.519  22.808  0.00  0.00    +0.000 N 
ATOM      3  C   UNL     1       0.096   9.890  21.802  0.00  0.00    +0.000 A 
ATOM      4  C   UNL     1       0.906   8.749  21.869  0.00  0.00    +0.000 A 
ATOM      5  C   UNL     1       1.487   8.294  20.687  0.00  0.00    +0.000 A 
ATOM      6  C   UNL     1       1.283   8.978  19.495  0.00  0.00    +0.000 A 
ATOM      7 CL   UNL     1       2.012   8.382  18.051  0.00  0.00    +0.000 Cl
ATOM      8  C   UNL     1       0.484  10.131  19.445  0.00  0.00    +0.000 A 
ATOM      9  C   UNL     1      -0.154  10.596  20.621  0.00  0.00    +0.000 A 
ATOM     10  C   UNL     1      -1.064  11.661  20.961  0.00  0.00    +0.000 A 
ATOM     11  H   UNL     1      -0.590  10.209  23.769  0.00  0.00    +0.000 HD
ENDROOT
BRANCH   1  15
ATOM     12  N   UNL     1      -5.196  12.605  24.952  0.00  0.00    +0.000 N 
ATOM     13  C   UNL     1      -4.018  12.833  24.360  0.00  0.00    +0.000 A 
ATOM     14  N   UNL     1      -3.444  11.978  23.558  0.00  0.00    +0.000 NA
ATOM     15  C   UNL     1      -2.209  12.421  23.164  0.00  0.00    +0.000 A 
ATOM     16  C   UNL     1      -1.881  13.679  23.620  0.00  0.00    +0.000 A 
ATOM     17  S   UNL     1      -3.151  14.295  24.598  0.00  0.00    +0.000 S 
ATOM     18  H   UNL     1      -5.724  11.805  24.619  0.00  0.00    +0.000 HD
ATOM     19  H   UNL     1      -5.740  13.375  25.313  0.00  0.00    +0.000 HD
ENDBRANCH   1  15
BRANCH  10  20
ATOM     20  S   UNL     1      -1.735  12.830  19.857  0.00  0.00    +0.000 S 
ATOM     21  O   UNL     1      -2.766  13.525  20.604  0.00  0.00    +0.000 OA
ATOM     22  O   UNL     1      -0.596  13.553  19.325  0.00  0.00    +0.000 OA
BRANCH  20  23
ATOM     23  C   UNL     1      -2.578  11.948  18.566  0.00  0.00    +0.000 A 
ATOM     24  C   UNL     1      -1.886  11.548  17.420  0.00  0.00    +0.000 A 
ATOM     25  C   UNL     1      -2.564  10.877  16.400  0.00  0.00    +0.000 A 
ATOM     26  C   UNL     1      -3.923  10.590  16.537  0.00  0.00    +0.000 A 
ATOM     27  C   UNL     1      -4.610  10.976  17.688  0.00  0.00    +0.000 A 
ATOM     28  C   UNL     1      -3.944  11.662  18.708  0.00  0.00    +0.000 A 
ENDBRANCH  20  23
ENDBRANCH  10  20
TORSDOF 3
ENDMDL
MODEL 5
REMARK VINA RESULT:      -7.2     10.362     13.496
REMARK  Name = 
REMARK  3 active torsions:
REMARK  status: ('A' for Active; 'I' for Inactive)
REMARK    1  A    between atoms: C_4  and  C_5
REMARK    2  A    between atoms: C_14  and  S_15
REMARK    3  A    between atoms: S_15  and  C_18
REMARK                            x       y       z     vdW  Elec       q    Type
REMARK                         _______ _______ _______ _____ _____    ______ ____
ROOT
ATOM      1  C   UNL     1      -4.161  12.534  20.073  0.00  0.00    +0.000 A 
ATOM      2  N   UNL     1      -2.927  12.060  19.711  0.00  0.00    +0.000 N 
ATOM      3  C   UNL     1      -2.949  11.538  18.442  0.00  0.00    +0.000 A 
ATOM      4  C   UNL     1      -1.918  10.918  17.725  0.00  0.00    +0.000 A 
ATOM      5  C   UNL     1      -2.206  10.451  16.444  0.00  0.00    +0.000 A 
ATOM      6  C   UNL     1      -3.472  10.629  15.899  0.00  0.00    +0.000 A 
ATOM      7 CL   UNL     1      -3.794  10.033  14.315  0.00  0.00    +0.000 Cl
ATOM      8  C   UNL     1      -4.492  11.269  16.621  0.00  0.00    +0.000 A 
ATOM      9  C   UNL     1      -4.243  11.719  17.941  0.00  0.00    +0.000 A 
ATOM     10  C   UNL     1      -5.009  12.342  18.991  0.00  0.00    +0.000 A 
ATOM     11  H   UNL     1      -2.108  12.058  20.303  0.00  0.00    +0.000 HD
ENDROOT
BRANCH   1  15
ATOM     12  N   UNL     1      -5.191  12.459  24.757  0.00  0.00    +0.000 N 
ATOM     13  C   UNL     1      -4.940  13.009  23.564  0.00  0.00    +0.000 A 
ATOM     14  N   UNL     1      -4.806  12.311  22.469  0.00  0.00    +0.000 NA
ATOM     15  C   UNL     1      -4.463  13.111  21.411  0.00  0.00    +0.000 A 
ATOM     16  C   UNL     1      -4.415  14.456  21.702  0.00  0.00    +0.000 A 
ATOM     17  S   UNL     1      -4.777  14.706  23.362  0.00  0.00    +0.000 S 
ATOM     18  H   UNL     1      -5.452  11.479  24.759  0.00  0.00    +0.000 HD
ATOM     19  H   UNL     1      -5.574  13.020  25.503  0.00  0.00    +0.000 HD
ENDBRANCH   1  15
BRANCH  10  20
ATOM     20  S   UNL     1      -6.698  12.764  18.918  0.00  0.00    +0.000 S 
ATOM     21  O   UNL     1      -7.298  11.812  18.003  0.00  0.00    +0.000 OA
ATOM     22  O   UNL     1      -7.136  12.836  20.299  0.00  0.00    +0.000 OA
BRANCH  20  23
ATOM     23  C   UNL     1      -6.836  14.351  18.132  0.00  0.00    +0.000 A 
ATOM     24  C   UNL     1      -6.654  15.521  18.873  0.00  0.00    +0.000 A 
ATOM     25  C   UNL     1      -6.789  16.764  18.250  0.00  0.00    +0.000 A 
ATOM     26  C   UNL     1      -7.084  16.833  16.888  0.00  0.00    +0.000 A 
ATOM     27  C   UNL     1      -7.250  15.665  16.145  0.00  0.00    +0.000 A 
ATOM     28  C   UNL     1      -7.133  14.416  16.762  0.00  0.00    +0.000 A 
ENDBRANCH  20  23
ENDBRANCH  10  20
TORSDOF 3
ENDMDL
MODEL 6
REMARK VINA RESULT:      -7.2      7.924     11.063
REMARK  Name = 
REMARK  3 active torsions:
REMARK  status: ('A' for Active; 'I' for Inactive)
REMARK    1  A    between atoms: C_4  and  C_5
REMARK    2  A    between atoms: C_14  and  S_15
REMARK    3  A    between atoms: S_15  and  C_18
REMARK                            x       y       z     vdW  Elec       q    Type
REMARK                         _______ _______ _______ _____ _____    ______ ____
ROOT
ATOM      1  C   UNL     1      -1.605  11.758  22.472  0.00  0.00    +0.000 A 
ATOM      2  N   UNL     1      -0.945  10.712  23.063  0.00  0.00    +0.000 N 
ATOM      3  C   UNL     1      -0.180  10.031  22.149  0.00  0.00    +0.000 A 
ATOM      4  C   UNL     1       0.603   8.884  22.335  0.00  0.00    +0.000 A 
ATOM      5  C   UNL     1       1.277   8.371  21.229  0.00  0.00    +0.000 A 
ATOM      6  C   UNL     1       1.188   9.004  19.995  0.00  0.00    +0.000 A 
ATOM      7 CL   UNL     1       2.030   8.337  18.647  0.00  0.00    +0.000 Cl
ATOM      8  C   UNL     1       0.415  10.164  19.826  0.00  0.00    +0.000 A 
ATOM      9  C   UNL     1      -0.315  10.688  20.921  0.00  0.00    +0.000 A 
ATOM     10  C   UNL     1      -1.234  11.778  21.135  0.00  0.00    +0.000 A 
ATOM     11  H   UNL     1      -1.028  10.446  24.033  0.00  0.00    +0.000 HD
ENDROOT
BRANCH   1  15
ATOM     12  N   UNL     1      -5.763  13.028  24.497  0.00  0.00    +0.000 N 
ATOM     13  C   UNL     1      -4.493  13.175  24.107  0.00  0.00    +0.000 A 
ATOM     14  N   UNL     1      -3.865  12.298  23.372  0.00  0.00    +0.000 NA
ATOM     15  C   UNL     1      -2.553  12.649  23.195  0.00  0.00    +0.000 A 
ATOM     16  C   UNL     1      -2.206  13.863  23.746  0.00  0.00    +0.000 A 
ATOM     17  S   UNL     1      -3.565  14.554  24.535  0.00  0.00    +0.000 S 
ATOM     18  H   UNL     1      -6.292  12.283  24.054  0.00  0.00    +0.000 HD
ATOM     19  H   UNL     1      -6.298  13.830  24.799  0.00  0.00    +0.000 HD
ENDBRANCH   1  15
BRANCH  10  20
ATOM     20  S   UNL     1      -1.787  12.906  19.928  0.00  0.00    +0.000 S 
ATOM     21  O   UNL     1      -2.832  13.681  20.568  0.00  0.00    +0.000 OA
ATOM     22  O   UNL     1      -0.589  13.553  19.429  0.00  0.00    +0.000 OA
BRANCH  20  23
ATOM     23  C   UNL     1      -2.586  11.983  18.637  0.00  0.00    +0.000 A 
ATOM     24  C   UNL     1      -3.948  11.688  18.724  0.00  0.00    +0.000 A 
ATOM     25  C   UNL     1      -4.562  10.941  17.716  0.00  0.00    +0.000 A 
ATOM     26  C   UNL     1      -3.818  10.510  16.616  0.00  0.00    +0.000 A 
ATOM     27  C   UNL     1      -2.461  10.818  16.522  0.00  0.00    +0.000 A 
ATOM     28  C   UNL     1      -1.834  11.551  17.534  0.00  0.00    +0.000 A 
ENDBRANCH  20  23
ENDBRANCH  10  20
TORSDOF 3
ENDMDL
MODEL 7
REMARK VINA RESULT:      -7.1      7.864     10.961
REMARK  Name = 
REMARK  3 active torsions:
REMARK  status: ('A' for Active; 'I' for Inactive)
REMARK    1  A    between atoms: C_4  and  C_5
REMARK    2  A    between atoms: C_14  and  S_15
REMARK    3  A    between atoms: S_15  and  C_18
REMARK                            x       y       z     vdW  Elec       q    Type
REMARK                         _______ _______ _______ _____ _____    ______ ____
ROOT
ATOM      1  C   UNL     1      -1.229  11.476  22.165  0.00  0.00    +0.000 A 
ATOM      2  N   UNL     1      -0.481  10.429  22.636  0.00  0.00    +0.000 N 
ATOM      3  C   UNL     1       0.209   9.817  21.619  0.00  0.00    +0.000 A 
ATOM      4  C   UNL     1       1.041   8.691  21.671  0.00  0.00    +0.000 A 
ATOM      5  C   UNL     1       1.615   8.252  20.480  0.00  0.00    +0.000 A 
ATOM      6  C   UNL     1       1.382   8.937  19.293  0.00  0.00    +0.000 A 
ATOM      7 CL   UNL     1       2.104   8.361  17.837  0.00  0.00    +0.000 Cl
ATOM      8  C   UNL     1       0.561  10.074  19.258  0.00  0.00    +0.000 A 
ATOM      9  C   UNL     1      -0.070  10.523  20.444  0.00  0.00    +0.000 A 
ATOM     10  C   UNL     1      -0.996  11.569  20.800  0.00  0.00    +0.000 A 
ATOM     11  H   UNL     1      -0.456  10.116  23.596  0.00  0.00    +0.000 HD
ENDROOT
BRANCH   1  15
ATOM     12  N   UNL     1      -5.104  12.428  24.826  0.00  0.00    +0.000 N 
ATOM     13  C   UNL     1      -3.933  12.676  24.231  0.00  0.00    +0.000 A 
ATOM     14  N   UNL     1      -3.354  11.838  23.416  0.00  0.00    +0.000 NA
ATOM     15  C   UNL     1      -2.126  12.299  23.021  0.00  0.00    +0.000 A 
ATOM     16  C   UNL     1      -1.808  13.555  23.491  0.00  0.00    +0.000 A 
ATOM     17  S   UNL     1      -3.080  14.144  24.483  0.00  0.00    +0.000 S 
ATOM     18  H   UNL     1      -5.626  11.627  24.486  0.00  0.00    +0.000 HD
ATOM     19  H   UNL     1      -5.655  13.187  25.200  0.00  0.00    +0.000 HD
ENDBRANCH   1  15
BRANCH  10  20
ATOM     20  S   UNL     1      -1.703  12.729  19.710  0.00  0.00    +0.000 S 
ATOM     21  O   UNL     1      -1.857  13.947  20.483  0.00  0.00    +0.000 OA
ATOM     22  O   UNL     1      -0.863  12.708  18.528  0.00  0.00    +0.000 OA
BRANCH  20  23
ATOM     23  C   UNL     1      -3.349  12.186  19.320  0.00  0.00    +0.000 A 
ATOM     24  C   UNL     1      -4.429  12.596  20.106  0.00  0.00    +0.000 A 
ATOM     25  C   UNL     1      -5.716  12.144  19.806  0.00  0.00    +0.000 A 
ATOM     26  C   UNL     1      -5.922  11.302  18.712  0.00  0.00    +0.000 A 
ATOM     27  C   UNL     1      -4.846  10.906  17.918  0.00  0.00    +0.000 A 
ATOM     28  C   UNL     1      -3.552  11.341  18.219  0.00  0.00    +0.000 A 
ENDBRANCH  20  23
ENDBRANCH  10  20
TORSDOF 3
ENDMDL
MODEL 8
REMARK VINA RESULT:      -7.1      8.656     11.447
REMARK  Name = 
REMARK  3 active torsions:
REMARK  status: ('A' for Active; 'I' for Inactive)
REMARK    1  A    between atoms: C_4  and  C_5
REMARK    2  A    between atoms: C_14  and  S_15
REMARK    3  A    between atoms: S_15  and  C_18
REMARK                            x       y       z     vdW  Elec       q    Type
REMARK                         _______ _______ _______ _____ _____    ______ ____
ROOT
ATOM      1  C   UNL     1      -4.189  12.727  20.680  0.00  0.00    +0.000 A 
ATOM      2  N   UNL     1      -5.238  12.365  19.877  0.00  0.00    +0.000 N 
ATOM      3  C   UNL     1      -4.795  11.888  18.668  0.00  0.00    +0.000 A 
ATOM      4  C   UNL     1      -5.540  11.464  17.561  0.00  0.00    +0.000 A 
ATOM      5  C   UNL     1      -4.842  11.037  16.433  0.00  0.00    +0.000 A 
ATOM      6  C   UNL     1      -3.452  11.013  16.433  0.00  0.00    +0.000 A 
ATOM      7 CL   UNL     1      -2.623  10.485  15.017  0.00  0.00    +0.000 Cl
ATOM      8  C   UNL     1      -2.718  11.423  17.556  0.00  0.00    +0.000 A 
ATOM      9  C   UNL     1      -3.396  11.901  18.704  0.00  0.00    +0.000 A 
ATOM     10  C   UNL     1      -3.021  12.448  19.984  0.00  0.00    +0.000 A 
ATOM     11  H   UNL     1      -6.215  12.463  20.115  0.00  0.00    +0.000 HD
ENDROOT
BRANCH   1  15
ATOM     12  N   UNL     1      -4.312  12.789  25.475  0.00  0.00    +0.000 N 
ATOM     13  C   UNL     1      -4.400  13.290  24.238  0.00  0.00    +0.000 A 
ATOM     14  N   UNL     1      -4.328  12.555  23.162  0.00  0.00    +0.000 NA
ATOM     15  C   UNL     1      -4.354  13.328  22.032  0.00  0.00    +0.000 A 
ATOM     16  C   UNL     1      -4.530  14.675  22.263  0.00  0.00    +0.000 A 
ATOM     17  S   UNL     1      -4.627  14.967  23.952  0.00  0.00    +0.000 S 
ATOM     18  H   UNL     1      -4.362  11.779  25.560  0.00  0.00    +0.000 HD
ATOM     19  H   UNL     1      -4.659  13.317  26.262  0.00  0.00    +0.000 HD
ENDBRANCH   1  15
BRANCH  10  20
ATOM     20  S   UNL     1      -1.395  12.721  20.547  0.00  0.00    +0.000 S 
ATOM     21  O   UNL     1      -0.595  12.909  19.352  0.00  0.00    +0.000 OA
ATOM     22  O   UNL     1      -1.502  13.776  21.536  0.00  0.00    +0.000 OA
BRANCH  20  23
ATOM     23  C   UNL     1      -0.810  11.219  21.293  0.00  0.00    +0.000 A 
ATOM     24  C   UNL     1      -0.904  11.038  22.676  0.00  0.00    +0.000 A 
ATOM     25  C   UNL     1      -0.419   9.863  23.255  0.00  0.00    +0.000 A 
ATOM     26  C   UNL     1       0.138   8.867  22.452  0.00  0.00    +0.000 A 
ATOM     27  C   UNL     1       0.217   9.041  21.070  0.00  0.00    +0.000 A 
ATOM     28  C   UNL     1      -0.251  10.220  20.482  0.00  0.00    +0.000 A 
ENDBRANCH  20  23
ENDBRANCH  10  20
TORSDOF 3
ENDMDL
MODEL 9
REMARK VINA RESULT:      -7.0      2.026      2.493
REMARK  Name = 
REMARK  3 active torsions:
REMARK  status: ('A' for Active; 'I' for Inactive)
REMARK    1  A    between atoms: C_4  and  C_5
REMARK    2  A    between atoms: C_14  and  S_15
REMARK    3  A    between atoms: S_15  and  C_18
REMARK                            x       y       z     vdW  Elec       q    Type
REMARK                         _______ _______ _______ _____ _____    ______ ____
ROOT
ATOM      1  C   UNL     1       3.831   6.638  17.781  0.00  0.00    +0.000 A 
ATOM      2  N   UNL     1       3.435   7.818  17.208  0.00  0.00    +0.000 N 
ATOM      3  C   UNL     1       2.512   8.464  17.993  0.00  0.00    +0.000 A 
ATOM      4  C   UNL     1       1.830   9.663  17.746  0.00  0.00    +0.000 A 
ATOM      5  C   UNL     1       0.919  10.101  18.705  0.00  0.00    +0.000 A 
ATOM      6  C   UNL     1       0.726   9.376  19.875  0.00  0.00    +0.000 A 
ATOM      7 CL   UNL     1      -0.414   9.945  21.036  0.00  0.00    +0.000 Cl
ATOM      8  C   UNL     1       1.430   8.186  20.118  0.00  0.00    +0.000 A 
ATOM      9  C   UNL     1       2.333   7.692  19.146  0.00  0.00    +0.000 A 
ATOM     10  C   UNL     1       3.168   6.526  18.996  0.00  0.00    +0.000 A 
ATOM     11  H   UNL     1       3.746   8.162  16.311  0.00  0.00    +0.000 HD
ENDROOT
BRANCH   1  15
ATOM     12  N   UNL     1       7.988   4.320  17.191  0.00  0.00    +0.000 N 
ATOM     13  C   UNL     1       6.723   4.659  16.921  0.00  0.00    +0.000 A 
ATOM     14  N   UNL     1       6.090   5.613  17.548  0.00  0.00    +0.000 NA
ATOM     15  C   UNL     1       4.784   5.690  17.143  0.00  0.00    +0.000 A 
ATOM     16  C   UNL     1       4.448   4.822  16.127  0.00  0.00    +0.000 A 
ATOM     17  S   UNL     1       5.809   3.865  15.705  0.00  0.00    +0.000 S 
ATOM     18  H   UNL     1       8.510   4.952  17.788  0.00  0.00    +0.000 HD
ATOM     19  H   UNL     1       8.530   3.804  16.513  0.00  0.00    +0.000 HD
ENDBRANCH   1  15
BRANCH  10  20
ATOM     20  S   UNL     1       3.306   5.210  20.128  0.00  0.00    +0.000 S 
ATOM     21  O   UNL     1       4.727   4.949  20.252  0.00  0.00    +0.000 OA
ATOM     22  O   UNL     1       2.527   5.613  21.283  0.00  0.00    +0.000 OA
BRANCH  20  23
ATOM     23  C   UNL     1       2.607   3.760  19.376  0.00  0.00    +0.000 A 
ATOM     24  C   UNL     1       1.220   3.608  19.298  0.00  0.00    +0.000 A 
ATOM     25  C   UNL     1       0.681   2.453  18.726  0.00  0.00    +0.000 A 
ATOM     26  C   UNL     1       1.527   1.466  18.217  0.00  0.00    +0.000 A 
ATOM     27  C   UNL     1       2.911   1.626  18.281  0.00  0.00    +0.000 A 
ATOM     28  C   UNL     1       3.461   2.771  18.865  0.00  0.00    +0.000 A 
ENDBRANCH  20  23
ENDBRANCH  10  20
TORSDOF 3
ENDMDL
