MODEL 1
REMARK VINA RESULT:      -5.7      0.000      0.000
REMARK  Name = 
REMARK  3 active torsions:
REMARK  status: ('A' for Active; 'I' for Inactive)
REMARK    1  A    between atoms: C_1  and  N_2
REMARK    2  A    between atoms: C_4  and  C_5
REMARK    3  A    between atoms: C_8  and  N_9
REMARK                            x       y       z     vdW  Elec       q    Type
REMARK                         _______ _______ _______ _____ _____    ______ ____
ROOT
ATOM      1  C   UNL     1       3.881   4.140  18.493  0.00  0.00    +0.000 A 
ATOM      2  C   UNL     1       3.709   3.843  17.157  0.00  0.00    +0.000 A 
ATOM      3  C   UNL     1       4.886   4.077  16.385  0.00  0.00    +0.000 A 
ATOM      4  C   UNL     1       5.914   4.548  17.171  0.00  0.00    +0.000 A 
ATOM      5  S   UNL     1       5.467   4.717  18.803  0.00  0.00    +0.000 S 
ENDROOT
BRANCH   1   9
ATOM      6  C   UNL     1       1.900   3.206  21.622  0.00  0.00    +0.000 C 
ATOM      7  N   UNL     1       2.946   3.163  20.587  0.00  0.00    +0.000 N 
ATOM      8  O   UNL     1       3.837   2.257  20.690  0.00  0.00    +0.000 OA
ATOM      9  C   UNL     1       2.951   4.030  19.594  0.00  0.00    +0.000 C 
ENDBRANCH   1   9
BRANCH   4  10
ATOM     10  N   UNL     1       7.245   4.877  16.727  0.00  0.00    +0.000 N 
ATOM     11  O   UNL     1       7.338   5.811  15.919  0.00  0.00    +0.000 OA
ATOM     12  O   UNL     1       8.191   4.217  17.172  0.00  0.00    +0.000 OA
ENDBRANCH   4  10
TORSDOF 2
ENDMDL
MODEL 2
REMARK VINA RESULT:      -5.5      2.377      2.524
REMARK  Name = 
REMARK  3 active torsions:
REMARK  status: ('A' for Active; 'I' for Inactive)
REMARK    1  A    between atoms: C_1  and  N_2
REMARK    2  A    between atoms: C_4  and  C_5
REMARK    3  A    between atoms: C_8  and  N_9
REMARK                            x       y       z     vdW  Elec       q    Type
REMARK                         _______ _______ _______ _____ _____    ______ ____
ROOT
ATOM      1  C   UNL     1       3.953   5.136  17.616  0.00  0.00    +0.000 A 
ATOM      2  C   UNL     1       4.229   6.414  17.173  0.00  0.00    +0.000 A 
ATOM      3  C   UNL     1       5.165   6.432  16.096  0.00  0.00    +0.000 A 
ATOM      4  C   UNL     1       5.567   5.158  15.761  0.00  0.00    +0.000 A 
ATOM      5  S   UNL     1       4.843   3.965  16.732  0.00  0.00    +0.000 S 
ENDROOT
BRANCH   1   9
ATOM      6  C   UNL     1       1.072   3.829  19.756  0.00  0.00    +0.000 C 
ATOM      7  N   UNL     1       1.831   4.231  18.560  0.00  0.00    +0.000 N 
ATOM      8  O   UNL     1       1.250   4.119  17.431  0.00  0.00    +0.000 OA
ATOM      9  C   UNL     1       3.062   4.691  18.663  0.00  0.00    +0.000 C 
ENDBRANCH   1   9
BRANCH   4  10
ATOM     10  N   UNL     1       6.492   4.804  14.714  0.00  0.00    +0.000 N 
ATOM     11  O   UNL     1       7.568   5.417  14.703  0.00  0.00    +0.000 OA
ATOM     12  O   UNL     1       6.156   3.929  13.907  0.00  0.00    +0.000 OA
ENDBRANCH   4  10
TORSDOF 2
ENDMDL
MODEL 3
REMARK VINA RESULT:      -5.5      0.976      1.300
REMARK  Name = 
REMARK  3 active torsions:
REMARK  status: ('A' for Active; 'I' for Inactive)
REMARK    1  A    between atoms: C_1  and  N_2
REMARK    2  A    between atoms: C_4  and  C_5
REMARK    3  A    between atoms: C_8  and  N_9
REMARK                            x       y       z     vdW  Elec       q    Type
REMARK                         _______ _______ _______ _____ _____    ______ ____
ROOT
ATOM      1  C   UNL     1       3.981   5.031  18.866  0.00  0.00    +0.000 A 
ATOM      2  C   UNL     1       3.617   5.549  17.640  0.00  0.00    +0.000 A 
ATOM      3  C   UNL     1       4.734   5.762  16.779  0.00  0.00    +0.000 A 
ATOM      4  C   UNL     1       5.913   5.395  17.389  0.00  0.00    +0.000 A 
ATOM      5  S   UNL     1       5.681   4.819  18.971  0.00  0.00    +0.000 S 
ENDROOT
BRANCH   1   9
ATOM      6  C   UNL     1       1.918   3.295  21.571  0.00  0.00    +0.000 C 
ATOM      7  N   UNL     1       2.765   3.468  20.380  0.00  0.00    +0.000 N 
ATOM      8  O   UNL     1       3.095   2.417  19.736  0.00  0.00    +0.000 OA
ATOM      9  C   UNL     1       3.161   4.666  19.998  0.00  0.00    +0.000 C 
ENDBRANCH   1   9
BRANCH   4  10
ATOM     10  N   UNL     1       7.231   5.462  16.808  0.00  0.00    +0.000 N 
ATOM     11  O   UNL     1       7.928   4.444  16.911  0.00  0.00    +0.000 OA
ATOM     12  O   UNL     1       7.574   6.513  16.255  0.00  0.00    +0.000 OA
ENDBRANCH   4  10
TORSDOF 2
ENDMDL
MODEL 4
REMARK VINA RESULT:      -5.5      1.633      2.036
REMARK  Name = 
REMARK  3 active torsions:
REMARK  status: ('A' for Active; 'I' for Inactive)
REMARK    1  A    between atoms: C_1  and  N_2
REMARK    2  A    between atoms: C_4  and  C_5
REMARK    3  A    between atoms: C_8  and  N_9
REMARK                            x       y       z     vdW  Elec       q    Type
REMARK                         _______ _______ _______ _____ _____    ______ ____
ROOT
ATOM      1  C   UNL     1       5.121   4.277  18.371  0.00  0.00    +0.000 A 
ATOM      2  C   UNL     1       6.350   4.857  18.610  0.00  0.00    +0.000 A 
ATOM      3  C   UNL     1       7.121   5.023  17.421  0.00  0.00    +0.000 A 
ATOM      4  C   UNL     1       6.442   4.560  16.316  0.00  0.00    +0.000 A 
ATOM      5  S   UNL     1       4.914   3.924  16.704  0.00  0.00    +0.000 S 
ENDROOT
BRANCH   1   9
ATOM      6  C   UNL     1       2.772   2.763  20.974  0.00  0.00    +0.000 C 
ATOM      7  N   UNL     1       3.952   2.927  20.110  0.00  0.00    +0.000 N 
ATOM      8  O   UNL     1       4.864   2.038  20.186  0.00  0.00    +0.000 OA
ATOM      9  C   UNL     1       4.054   3.954  19.290  0.00  0.00    +0.000 C 
ENDBRANCH   1   9
BRANCH   4  10
ATOM     10  N   UNL     1       6.914   4.583  14.955  0.00  0.00    +0.000 N 
ATOM     11  O   UNL     1       6.410   3.753  14.186  0.00  0.00    +0.000 OA
ATOM     12  O   UNL     1       7.777   5.414  14.647  0.00  0.00    +0.000 OA
ENDBRANCH   4  10
TORSDOF 2
ENDMDL
MODEL 5
REMARK VINA RESULT:      -5.5      1.763      2.017
REMARK  Name = 
REMARK  3 active torsions:
REMARK  status: ('A' for Active; 'I' for Inactive)
REMARK    1  A    between atoms: C_1  and  N_2
REMARK    2  A    between atoms: C_4  and  C_5
REMARK    3  A    between atoms: C_8  and  N_9
REMARK                            x       y       z     vdW  Elec       q    Type
REMARK                         _______ _______ _______ _____ _____    ______ ____
ROOT
ATOM      1  C   UNL     1       4.031   5.465  18.436  0.00  0.00    +0.000 A 
ATOM      2  C   UNL     1       4.092   6.506  17.531  0.00  0.00    +0.000 A 
ATOM      3  C   UNL     1       5.254   6.450  16.706  0.00  0.00    +0.000 A 
ATOM      4  C   UNL     1       6.039   5.363  17.018  0.00  0.00    +0.000 A 
ATOM      5  S   UNL     1       5.396   4.434  18.289  0.00  0.00    +0.000 S 
ENDROOT
BRANCH   1   9
ATOM      6  C   UNL     1       1.013   4.237  20.427  0.00  0.00    +0.000 C 
ATOM      7  N   UNL     1       1.928   4.437  19.292  0.00  0.00    +0.000 N 
ATOM      8  O   UNL     1       1.615   3.893  18.181  0.00  0.00    +0.000 OA
ATOM      9  C   UNL     1       3.026   5.155  19.425  0.00  0.00    +0.000 C 
ENDBRANCH   1   9
BRANCH   4  10
ATOM     10  N   UNL     1       7.276   4.992  16.379  0.00  0.00    +0.000 N 
ATOM     11  O   UNL     1       8.025   4.247  17.025  0.00  0.00    +0.000 OA
ATOM     12  O   UNL     1       7.506   5.435  15.247  0.00  0.00    +0.000 OA
ENDBRANCH   4  10
TORSDOF 2
ENDMDL
MODEL 6
REMARK VINA RESULT:      -5.4      1.877      1.945
REMARK  Name = 
REMARK  3 active torsions:
REMARK  status: ('A' for Active; 'I' for Inactive)
REMARK    1  A    between atoms: C_1  and  N_2
REMARK    2  A    between atoms: C_4  and  C_5
REMARK    3  A    between atoms: C_8  and  N_9
REMARK                            x       y       z     vdW  Elec       q    Type
REMARK                         _______ _______ _______ _____ _____    ______ ____
ROOT
ATOM      1  C   UNL     1       3.726   5.106  18.376  0.00  0.00    +0.000 A 
ATOM      2  C   UNL     1       3.727   6.345  17.768  0.00  0.00    +0.000 A 
ATOM      3  C   UNL     1       4.972   6.649  17.142  0.00  0.00    +0.000 A 
ATOM      4  C   UNL     1       5.877   5.623  17.301  0.00  0.00    +0.000 A 
ATOM      5  S   UNL     1       5.244   4.325  18.198  0.00  0.00    +0.000 S 
ENDROOT
BRANCH   1   9
ATOM      6  C   UNL     1       0.782   2.971  19.542  0.00  0.00    +0.000 C 
ATOM      7  N   UNL     1       1.795   3.554  18.647  0.00  0.00    +0.000 N 
ATOM      8  O   UNL     1       1.785   3.181  17.427  0.00  0.00    +0.000 OA
ATOM      9  C   UNL     1       2.673   4.428  19.097  0.00  0.00    +0.000 C 
ENDBRANCH   1   9
BRANCH   4  10
ATOM     10  N   UNL     1       7.223   5.586  16.789  0.00  0.00    +0.000 N 
ATOM     11  O   UNL     1       7.662   6.647  16.324  0.00  0.00    +0.000 OA
ATOM     12  O   UNL     1       7.842   4.518  16.845  0.00  0.00    +0.000 OA
ENDBRANCH   4  10
TORSDOF 2
ENDMDL
MODEL 7
REMARK VINA RESULT:      -5.3      1.598      1.886
REMARK  Name = 
REMARK  3 active torsions:
REMARK  status: ('A' for Active; 'I' for Inactive)
REMARK    1  A    between atoms: C_1  and  N_2
REMARK    2  A    between atoms: C_4  and  C_5
REMARK    3  A    between atoms: C_8  and  N_9
REMARK                            x       y       z     vdW  Elec       q    Type
REMARK                         _______ _______ _______ _____ _____    ______ ____
ROOT
ATOM      1  C   UNL     1       3.632   5.001  17.671  0.00  0.00    +0.000 A 
ATOM      2  C   UNL     1       3.990   6.327  17.537  0.00  0.00    +0.000 A 
ATOM      3  C   UNL     1       5.293   6.491  16.979  0.00  0.00    +0.000 A 
ATOM      4  C   UNL     1       5.879   5.274  16.709  0.00  0.00    +0.000 A 
ATOM      5  S   UNL     1       4.886   3.960  17.132  0.00  0.00    +0.000 S 
ENDROOT
BRANCH   1   9
ATOM      6  C   UNL     1       0.843   3.352  19.694  0.00  0.00    +0.000 C 
ATOM      7  N   UNL     1       2.164   3.913  19.367  0.00  0.00    +0.000 N 
ATOM      8  O   UNL     1       3.055   3.889  20.280  0.00  0.00    +0.000 OA
ATOM      9  C   UNL     1       2.409   4.417  18.174  0.00  0.00    +0.000 C 
ENDBRANCH   1   9
BRANCH   4  10
ATOM     10  N   UNL     1       7.182   5.065  16.131  0.00  0.00    +0.000 N 
ATOM     11  O   UNL     1       7.983   4.409  16.809  0.00  0.00    +0.000 OA
ATOM     12  O   UNL     1       7.412   5.547  15.015  0.00  0.00    +0.000 OA
ENDBRANCH   4  10
TORSDOF 2
ENDMDL
MODEL 8
REMARK VINA RESULT:      -5.3      1.337      1.337
REMARK  Name = 
REMARK  3 active torsions:
REMARK  status: ('A' for Active; 'I' for Inactive)
REMARK    1  A    between atoms: C_1  and  N_2
REMARK    2  A    between atoms: C_4  and  C_5
REMARK    3  A    between atoms: C_8  and  N_9
REMARK                            x       y       z     vdW  Elec       q    Type
REMARK                         _______ _______ _______ _____ _____    ______ ____
ROOT
ATOM      1  C   UNL     1       4.384   3.880  18.461  0.00  0.00    +0.000 A 
ATOM      2  C   UNL     1       4.021   3.597  17.160  0.00  0.00    +0.000 A 
ATOM      3  C   UNL     1       4.941   4.121  16.205  0.00  0.00    +0.000 A 
ATOM      4  C   UNL     1       5.976   4.789  16.822  0.00  0.00    +0.000 A 
ATOM      5  S   UNL     1       5.835   4.796  18.516  0.00  0.00    +0.000 S 
ENDROOT
BRANCH   1   9
ATOM      6  C   UNL     1       2.183   3.580  21.568  0.00  0.00    +0.000 C 
ATOM      7  N   UNL     1       2.699   4.088  20.286  0.00  0.00    +0.000 N 
ATOM      8  O   UNL     1       2.105   5.092  19.770  0.00  0.00    +0.000 OA
ATOM      9  C   UNL     1       3.737   3.523  19.703  0.00  0.00    +0.000 C 
ENDBRANCH   1   9
BRANCH   4  10
ATOM     10  N   UNL     1       7.088   5.430  16.166  0.00  0.00    +0.000 N 
ATOM     11  O   UNL     1       7.474   6.497  16.660  0.00  0.00    +0.000 OA
ATOM     12  O   UNL     1       7.575   4.883  15.170  0.00  0.00    +0.000 OA
ENDBRANCH   4  10
TORSDOF 2
ENDMDL
MODEL 9
REMARK VINA RESULT:      -5.3      1.817      2.125
REMARK  Name = 
REMARK  3 active torsions:
REMARK  status: ('A' for Active; 'I' for Inactive)
REMARK    1  A    between atoms: C_1  and  N_2
REMARK    2  A    between atoms: C_4  and  C_5
REMARK    3  A    between atoms: C_8  and  N_9
REMARK                            x       y       z     vdW  Elec       q    Type
REMARK                         _______ _______ _______ _____ _____    ______ ____
ROOT
ATOM      1  C   UNL     1       5.162   5.171  18.465  0.00  0.00    +0.000 A 
ATOM      2  C   UNL     1       6.513   5.077  18.731  0.00  0.00    +0.000 A 
ATOM      3  C   UNL     1       7.294   4.888  17.553  0.00  0.00    +0.000 A 
ATOM      4  C   UNL     1       6.501   4.843  16.428  0.00  0.00    +0.000 A 
ATOM      5  S   UNL     1       4.847   5.013  16.785  0.00  0.00    +0.000 S 
ENDROOT
BRANCH   1   9
ATOM      6  C   UNL     1       2.204   4.881  20.863  0.00  0.00    +0.000 C 
ATOM      7  N   UNL     1       3.307   4.475  19.978  0.00  0.00    +0.000 N 
ATOM      8  O   UNL     1       3.510   3.224  19.827  0.00  0.00    +0.000 OA
ATOM      9  C   UNL     1       4.051   5.375  19.366  0.00  0.00    +0.000 C 
ENDBRANCH   1   9
BRANCH   4  10
ATOM     10  N   UNL     1       6.955   4.678  15.071  0.00  0.00    +0.000 N 
ATOM     11  O   UNL     1       7.835   5.461  14.688  0.00  0.00    +0.000 OA
ATOM     12  O   UNL     1       6.446   3.782  14.387  0.00  0.00    +0.000 OA
ENDBRANCH   4  10
TORSDOF 2
ENDMDL
