MODEL 1
REMARK VINA RESULT:      -8.4      0.000      0.000
REMARK  Name = 
REMARK  8 active torsions:
REMARK  status: ('A' for Active; 'I' for Inactive)
REMARK    1  A    between atoms: C_1  and  C_2
REMARK    2  A    between atoms: C_5  and  N_6
REMARK    3  A    between atoms: C_7  and  C_9
REMARK    4  A    between atoms: C_9  and  S_10
REMARK    5  A    between atoms: S_10  and  C_11
REMARK    6  A    between atoms: C_14  and  C_15
REMARK    7  A    between atoms: C_15  and  N_16
REMARK    8  A    between atoms: C_17  and  C_19
REMARK                            x       y       z     vdW  Elec       q    Type
REMARK                         _______ _______ _______ _____ _____    ______ ____
ROOT
ATOM      1  C   UNL     1       7.727   7.988  17.814  0.00  0.00    +0.000 A 
ATOM      2  N   UNL     1       8.325   7.123  18.608  0.00  0.00    +0.000 NA
ATOM      3  N   UNL     1       7.678   5.914  18.442  0.00  0.00    +0.000 NA
ATOM      4  C   UNL     1       6.731   6.123  17.552  0.00  0.00    +0.000 A 
ATOM      5  O   UNL     1       6.712   7.416  17.094  0.00  0.00    +0.000 OA
ENDROOT
BRANCH   1   6
ATOM      6  S   UNL     1       8.212   9.648  17.681  0.00  0.00    +0.000 S 
BRANCH   6   7
ATOM      7  C   UNL     1       9.246   9.826  19.160  0.00  0.00    +0.000 C 
BRANCH   7   9
ATOM      8  N   UNL     1       9.655  11.985  18.076  0.00  0.00    +0.000 N 
ATOM      9  C   UNL     1       9.818  11.236  19.236  0.00  0.00    +0.000 C 
ATOM     10  O   UNL     1      10.383  11.613  20.261  0.00  0.00    +0.000 OA
ATOM     11  H   UNL     1       9.025  11.603  17.379  0.00  0.00    +0.000 HD
BRANCH   8  16
ATOM     12  C   UNL     1      11.340  17.433  17.427  0.00  0.00    +0.000 C 
ATOM     13  C   UNL     1      10.900  16.007  17.570  0.00  0.00    +0.000 A 
ATOM     14  C   UNL     1      11.604  14.976  16.945  0.00  0.00    +0.000 A 
ATOM     15  C   UNL     1      11.203  13.644  17.093  0.00  0.00    +0.000 A 
ATOM     16  C   UNL     1      10.090  13.314  17.869  0.00  0.00    +0.000 A 
ATOM     17  C   UNL     1       9.364  14.348  18.471  0.00  0.00    +0.000 A 
ATOM     18  C   UNL     1       9.772  15.682  18.334  0.00  0.00    +0.000 A 
ENDBRANCH   8  16
ENDBRANCH   7   9
ENDBRANCH   6   7
ENDBRANCH   1   6
BRANCH   4  19
ATOM     19  C   UNL     1       5.734   5.173  16.997  0.00  0.00    +0.000 C 
BRANCH  19  20
ATOM     20  N   UNL     1       4.692   4.881  17.964  0.00  0.00    +0.000 N 
ATOM     21  C   UNL     1       4.156   3.614  18.070  0.00  0.00    +0.000 C 
ATOM     22  O   UNL     1       4.497   2.718  17.307  0.00  0.00    +0.000 OA
ATOM     23  H   UNL     1       4.263   5.657  18.458  0.00  0.00    +0.000 HD
BRANCH  21  24
ATOM     24  C   UNL     1       3.138   3.376  19.133  0.00  0.00    +0.000 A 
ATOM     25  C   UNL     1       3.491   2.716  20.318  0.00  0.00    +0.000 A 
ATOM     26  F   UNL     1       4.738   2.255  20.505  0.00  0.00    +0.000 F 
ATOM     27  C   UNL     1       2.569   2.504  21.345  0.00  0.00    +0.000 A 
ATOM     28  C   UNL     1       1.265   2.963  21.209  0.00  0.00    +0.000 A 
ATOM     29  C   UNL     1       0.885   3.610  20.034  0.00  0.00    +0.000 A 
ATOM     30  C   UNL     1       1.808   3.808  18.994  0.00  0.00    +0.000 A 
ATOM     31 CL   UNL     1       1.166   4.528  17.557  0.00  0.00    +0.000 Cl
ENDBRANCH  21  24
ENDBRANCH  19  20
ENDBRANCH   4  19
TORSDOF 7
ENDMDL
MODEL 2
REMARK VINA RESULT:      -8.3      1.997      2.465
REMARK  Name = 
REMARK  8 active torsions:
REMARK  status: ('A' for Active; 'I' for Inactive)
REMARK    1  A    between atoms: C_1  and  C_2
REMARK    2  A    between atoms: C_5  and  N_6
REMARK    3  A    between atoms: C_7  and  C_9
REMARK    4  A    between atoms: C_9  and  S_10
REMARK    5  A    between atoms: S_10  and  C_11
REMARK    6  A    between atoms: C_14  and  C_15
REMARK    7  A    between atoms: C_15  and  N_16
REMARK    8  A    between atoms: C_17  and  C_19
REMARK                            x       y       z     vdW  Elec       q    Type
REMARK                         _______ _______ _______ _____ _____    ______ ____
ROOT
ATOM      1  C   UNL     1       7.337   6.406  17.331  0.00  0.00    +0.000 A 
ATOM      2  N   UNL     1       7.735   6.372  16.075  0.00  0.00    +0.000 NA
ATOM      3  N   UNL     1       6.912   5.478  15.418  0.00  0.00    +0.000 NA
ATOM      4  C   UNL     1       6.062   5.032  16.319  0.00  0.00    +0.000 A 
ATOM      5  O   UNL     1       6.260   5.590  17.556  0.00  0.00    +0.000 OA
ENDROOT
BRANCH   1   6
ATOM      6  S   UNL     1       8.080   7.409  18.536  0.00  0.00    +0.000 S 
BRANCH   6   7
ATOM      7  C   UNL     1       8.001   9.032  17.732  0.00  0.00    +0.000 C 
BRANCH   7   9
ATOM      8  N   UNL     1       9.108  11.217  17.786  0.00  0.00    +0.000 N 
ATOM      9  C   UNL     1       8.881  10.030  18.474  0.00  0.00    +0.000 C 
ATOM     10  O   UNL     1       9.340   9.742  19.577  0.00  0.00    +0.000 OA
ATOM     11  H   UNL     1       8.531  11.380  16.968  0.00  0.00    +0.000 HD
BRANCH   8  16
ATOM     12  C   UNL     1      12.333  15.682  19.400  0.00  0.00    +0.000 C 
ATOM     13  C   UNL     1      11.492  14.506  19.002  0.00  0.00    +0.000 A 
ATOM     14  C   UNL     1      10.336  14.182  19.715  0.00  0.00    +0.000 A 
ATOM     15  C   UNL     1       9.542  13.096  19.334  0.00  0.00    +0.000 A 
ATOM     16  C   UNL     1       9.886  12.310  18.233  0.00  0.00    +0.000 A 
ATOM     17  C   UNL     1      11.061  12.613  17.536  0.00  0.00    +0.000 A 
ATOM     18  C   UNL     1      11.851  13.709  17.909  0.00  0.00    +0.000 A 
ENDBRANCH   8  16
ENDBRANCH   7   9
ENDBRANCH   6   7
ENDBRANCH   1   6
BRANCH   4  19
ATOM     19  C   UNL     1       4.957   4.052  16.166  0.00  0.00    +0.000 C 
BRANCH  19  20
ATOM     20  N   UNL     1       4.076   4.069  17.319  0.00  0.00    +0.000 N 
ATOM     21  C   UNL     1       3.703   2.899  17.947  0.00  0.00    +0.000 C 
ATOM     22  O   UNL     1       4.052   1.809  17.508  0.00  0.00    +0.000 OA
ATOM     23  H   UNL     1       3.622   4.944  17.564  0.00  0.00    +0.000 HD
BRANCH  21  24
ATOM     24  C   UNL     1       2.851   3.003  19.166  0.00  0.00    +0.000 A 
ATOM     25  C   UNL     1       1.582   3.593  19.095  0.00  0.00    +0.000 A 
ATOM     26  F   UNL     1       1.124   4.107  17.943  0.00  0.00    +0.000 F 
ATOM     27  C   UNL     1       0.748   3.679  20.211  0.00  0.00    +0.000 A 
ATOM     28  C   UNL     1       1.167   3.161  21.430  0.00  0.00    +0.000 A 
ATOM     29  C   UNL     1       2.430   2.581  21.529  0.00  0.00    +0.000 A 
ATOM     30  C   UNL     1       3.277   2.510  20.411  0.00  0.00    +0.000 A 
ATOM     31 CL   UNL     1       4.854   1.862  20.710  0.00  0.00    +0.000 Cl
ENDBRANCH  21  24
ENDBRANCH  19  20
ENDBRANCH   4  19
TORSDOF 7
ENDMDL
MODEL 3
REMARK VINA RESULT:      -8.3      1.584      1.746
REMARK  Name = 
REMARK  8 active torsions:
REMARK  status: ('A' for Active; 'I' for Inactive)
REMARK    1  A    between atoms: C_1  and  C_2
REMARK    2  A    between atoms: C_5  and  N_6
REMARK    3  A    between atoms: C_7  and  C_9
REMARK    4  A    between atoms: C_9  and  S_10
REMARK    5  A    between atoms: S_10  and  C_11
REMARK    6  A    between atoms: C_14  and  C_15
REMARK    7  A    between atoms: C_15  and  N_16
REMARK    8  A    between atoms: C_17  and  C_19
REMARK                            x       y       z     vdW  Elec       q    Type
REMARK                         _______ _______ _______ _____ _____    ______ ____
ROOT
ATOM      1  C   UNL     1       8.401   8.638  18.354  0.00  0.00    +0.000 A 
ATOM      2  N   UNL     1       7.608   8.712  17.304  0.00  0.00    +0.000 NA
ATOM      3  N   UNL     1       7.107   7.443  17.090  0.00  0.00    +0.000 NA
ATOM      4  C   UNL     1       7.624   6.680  18.031  0.00  0.00    +0.000 A 
ATOM      5  O   UNL     1       8.445   7.375  18.882  0.00  0.00    +0.000 OA
ENDROOT
BRANCH   1   6
ATOM      6  S   UNL     1       9.250  10.005  19.002  0.00  0.00    +0.000 S 
BRANCH   6   7
ATOM      7  C   UNL     1       8.701  11.317  17.878  0.00  0.00    +0.000 C 
BRANCH   7   9
ATOM      8  N   UNL     1       9.295  13.691  17.750  0.00  0.00    +0.000 N 
ATOM      9  C   UNL     1       9.779  12.388  17.753  0.00  0.00    +0.000 C 
ATOM     10  O   UNL     1      10.959  12.060  17.645  0.00  0.00    +0.000 OA
ATOM     11  H   UNL     1       8.323  13.810  18.015  0.00  0.00    +0.000 HD
BRANCH   8  16
ATOM     12  C   UNL     1      12.285  18.580  17.444  0.00  0.00    +0.000 C 
ATOM     13  C   UNL     1      11.514  17.295  17.501  0.00  0.00    +0.000 A 
ATOM     14  C   UNL     1      12.162  16.067  17.359  0.00  0.00    +0.000 A 
ATOM     15  C   UNL     1      11.445  14.868  17.430  0.00  0.00    +0.000 A 
ATOM     16  C   UNL     1      10.066  14.871  17.643  0.00  0.00    +0.000 A 
ATOM     17  C   UNL     1       9.409  16.102  17.754  0.00  0.00    +0.000 A 
ATOM     18  C   UNL     1      10.128  17.304  17.697  0.00  0.00    +0.000 A 
ENDBRANCH   8  16
ENDBRANCH   7   9
ENDBRANCH   6   7
ENDBRANCH   1   6
BRANCH   4  19
ATOM     19  C   UNL     1       7.429   5.230  18.279  0.00  0.00    +0.000 C 
BRANCH  19  20
ATOM     20  N   UNL     1       6.262   4.991  19.107  0.00  0.00    +0.000 N 
ATOM     21  C   UNL     1       5.117   4.431  18.578  0.00  0.00    +0.000 C 
ATOM     22  O   UNL     1       5.031   4.182  17.381  0.00  0.00    +0.000 OA
ATOM     23  H   UNL     1       6.251   5.377  20.046  0.00  0.00    +0.000 HD
BRANCH  21  24
ATOM     24  C   UNL     1       3.984   4.154  19.506  0.00  0.00    +0.000 A 
ATOM     25  C   UNL     1       3.874   2.907  20.138  0.00  0.00    +0.000 A 
ATOM     26  F   UNL     1       4.761   1.930  19.894  0.00  0.00    +0.000 F 
ATOM     27  C   UNL     1       2.842   2.627  21.035  0.00  0.00    +0.000 A 
ATOM     28  C   UNL     1       1.896   3.601  21.329  0.00  0.00    +0.000 A 
ATOM     29  C   UNL     1       1.977   4.844  20.704  0.00  0.00    +0.000 A 
ATOM     30  C   UNL     1       3.004   5.121  19.788  0.00  0.00    +0.000 A 
ATOM     31 CL   UNL     1       2.913   6.665  19.011  0.00  0.00    +0.000 Cl
ENDBRANCH  21  24
ENDBRANCH  19  20
ENDBRANCH   4  19
TORSDOF 7
ENDMDL
MODEL 4
REMARK VINA RESULT:      -8.1      5.574      8.629
REMARK  Name = 
REMARK  8 active torsions:
REMARK  status: ('A' for Active; 'I' for Inactive)
REMARK    1  A    between atoms: C_1  and  C_2
REMARK    2  A    between atoms: C_5  and  N_6
REMARK    3  A    between atoms: C_7  and  C_9
REMARK    4  A    between atoms: C_9  and  S_10
REMARK    5  A    between atoms: S_10  and  C_11
REMARK    6  A    between atoms: C_14  and  C_15
REMARK    7  A    between atoms: C_15  and  N_16
REMARK    8  A    between atoms: C_17  and  C_19
REMARK                            x       y       z     vdW  Elec       q    Type
REMARK                         _______ _______ _______ _____ _____    ______ ____
ROOT
ATOM      1  C   UNL     1       1.758   4.242  19.404  0.00  0.00    +0.000 A 
ATOM      2  N   UNL     1       1.559   4.570  20.664  0.00  0.00    +0.000 NA
ATOM      3  N   UNL     1       1.768   5.932  20.761  0.00  0.00    +0.000 NA
ATOM      4  C   UNL     1       2.076   6.343  19.549  0.00  0.00    +0.000 A 
ATOM      5  O   UNL     1       2.073   5.326  18.629  0.00  0.00    +0.000 OA
ENDROOT
BRANCH   1   6
ATOM      6  S   UNL     1       1.595   2.621  18.807  0.00  0.00    +0.000 S 
BRANCH   6   7
ATOM      7  C   UNL     1       3.323   2.071  18.826  0.00  0.00    +0.000 C 
BRANCH   7   9
ATOM      8  N   UNL     1       4.837   3.987  19.015  0.00  0.00    +0.000 N 
ATOM      9  C   UNL     1       4.212   3.103  18.143  0.00  0.00    +0.000 C 
ATOM     10  O   UNL     1       4.310   3.113  16.918  0.00  0.00    +0.000 OA
ATOM     11  H   UNL     1       4.797   3.753  20.000  0.00  0.00    +0.000 HD
BRANCH   8  16
ATOM     12  C   UNL     1       8.204   8.387  17.512  0.00  0.00    +0.000 C 
ATOM     13  C   UNL     1       7.344   7.221  17.900  0.00  0.00    +0.000 A 
ATOM     14  C   UNL     1       7.781   6.296  18.849  0.00  0.00    +0.000 A 
ATOM     15  C   UNL     1       6.972   5.218  19.223  0.00  0.00    +0.000 A 
ATOM     16  C   UNL     1       5.709   5.042  18.656  0.00  0.00    +0.000 A 
ATOM     17  C   UNL     1       5.280   5.950  17.681  0.00  0.00    +0.000 A 
ATOM     18  C   UNL     1       6.085   7.038  17.314  0.00  0.00    +0.000 A 
ENDBRANCH   8  16
ENDBRANCH   7   9
ENDBRANCH   6   7
ENDBRANCH   1   6
BRANCH   4  19
ATOM     19  C   UNL     1       2.399   7.712  19.073  0.00  0.00    +0.000 C 
BRANCH  19  20
ATOM     20  N   UNL     1       1.301   8.627  19.320  0.00  0.00    +0.000 N 
ATOM     21  C   UNL     1       1.062   9.696  18.480  0.00  0.00    +0.000 C 
ATOM     22  O   UNL     1       1.811   9.939  17.540  0.00  0.00    +0.000 OA
ATOM     23  H   UNL     1       0.802   8.554  20.201  0.00  0.00    +0.000 HD
BRANCH  21  24
ATOM     24  C   UNL     1      -0.126  10.551  18.760  0.00  0.00    +0.000 A 
ATOM     25  C   UNL     1      -1.307  10.387  18.025  0.00  0.00    +0.000 A 
ATOM     26  F   UNL     1      -1.383   9.487  17.033  0.00  0.00    +0.000 F 
ATOM     27  C   UNL     1      -2.446  11.152  18.283  0.00  0.00    +0.000 A 
ATOM     28  C   UNL     1      -2.428  12.098  19.301  0.00  0.00    +0.000 A 
ATOM     29  C   UNL     1      -1.261  12.289  20.037  0.00  0.00    +0.000 A 
ATOM     30  C   UNL     1      -0.110  11.533  19.766  0.00  0.00    +0.000 A 
ATOM     31 CL   UNL     1       1.293  11.955  20.688  0.00  0.00    +0.000 Cl
ENDBRANCH  21  24
ENDBRANCH  19  20
ENDBRANCH   4  19
TORSDOF 7
ENDMDL
MODEL 5
REMARK VINA RESULT:      -8.1      1.677      1.971
REMARK  Name = 
REMARK  8 active torsions:
REMARK  status: ('A' for Active; 'I' for Inactive)
REMARK    1  A    between atoms: C_1  and  C_2
REMARK    2  A    between atoms: C_5  and  N_6
REMARK    3  A    between atoms: C_7  and  C_9
REMARK    4  A    between atoms: C_9  and  S_10
REMARK    5  A    between atoms: S_10  and  C_11
REMARK    6  A    between atoms: C_14  and  C_15
REMARK    7  A    between atoms: C_15  and  N_16
REMARK    8  A    between atoms: C_17  and  C_19
REMARK                            x       y       z     vdW  Elec       q    Type
REMARK                         _______ _______ _______ _____ _____    ______ ____
ROOT
ATOM      1  C   UNL     1       8.223   8.154  18.246  0.00  0.00    +0.000 A 
ATOM      2  N   UNL     1       7.449   8.274  17.186  0.00  0.00    +0.000 NA
ATOM      3  N   UNL     1       7.047   6.999  16.838  0.00  0.00    +0.000 NA
ATOM      4  C   UNL     1       7.599   6.187  17.716  0.00  0.00    +0.000 A 
ATOM      5  O   UNL     1       8.349   6.852  18.652  0.00  0.00    +0.000 OA
ENDROOT
BRANCH   1   6
ATOM      6  S   UNL     1       8.957   9.508  19.044  0.00  0.00    +0.000 S 
BRANCH   6   7
ATOM      7  C   UNL     1       8.663  10.824  17.832  0.00  0.00    +0.000 C 
BRANCH   7   9
ATOM      8  N   UNL     1       9.258  13.164  17.413  0.00  0.00    +0.000 N 
ATOM      9  C   UNL     1       9.172  12.157  18.368  0.00  0.00    +0.000 C 
ATOM     10  O   UNL     1       9.484  12.262  19.552  0.00  0.00    +0.000 OA
ATOM     11  H   UNL     1       8.809  12.979  16.522  0.00  0.00    +0.000 HD
BRANCH   8  16
ATOM     12  C   UNL     1      11.220  18.503  18.178  0.00  0.00    +0.000 C 
ATOM     13  C   UNL     1      10.694  17.110  18.001  0.00  0.00    +0.000 A 
ATOM     14  C   UNL     1       9.321  16.858  18.028  0.00  0.00    +0.000 A 
ATOM     15  C   UNL     1       8.829  15.561  17.845  0.00  0.00    +0.000 A 
ATOM     16  C   UNL     1       9.699  14.490  17.631  0.00  0.00    +0.000 A 
ATOM     17  C   UNL     1      11.076  14.736  17.634  0.00  0.00    +0.000 A 
ATOM     18  C   UNL     1      11.570  16.037  17.805  0.00  0.00    +0.000 A 
ENDBRANCH   8  16
ENDBRANCH   7   9
ENDBRANCH   6   7
ENDBRANCH   1   6
BRANCH   4  19
ATOM     19  C   UNL     1       7.506   4.709  17.819  0.00  0.00    +0.000 C 
BRANCH  19  20
ATOM     20  N   UNL     1       6.129   4.262  17.727  0.00  0.00    +0.000 N 
ATOM     21  C   UNL     1       5.328   4.189  18.849  0.00  0.00    +0.000 C 
ATOM     22  O   UNL     1       5.777   4.436  19.962  0.00  0.00    +0.000 OA
ATOM     23  H   UNL     1       5.809   3.865  16.849  0.00  0.00    +0.000 HD
BRANCH  21  24
ATOM     24  C   UNL     1       3.905   3.785  18.664  0.00  0.00    +0.000 A 
ATOM     25  C   UNL     1       3.483   2.495  19.012  0.00  0.00    +0.000 A 
ATOM     26  F   UNL     1       4.353   1.589  19.484  0.00  0.00    +0.000 F 
ATOM     27  C   UNL     1       2.152   2.096  18.879  0.00  0.00    +0.000 A 
ATOM     28  C   UNL     1       1.205   2.993  18.399  0.00  0.00    +0.000 A 
ATOM     29  C   UNL     1       1.602   4.277  18.034  0.00  0.00    +0.000 A 
ATOM     30  C   UNL     1       2.945   4.674  18.151  0.00  0.00    +0.000 A 
ATOM     31 CL   UNL     1       3.308   6.259  17.558  0.00  0.00    +0.000 Cl
ENDBRANCH  21  24
ENDBRANCH  19  20
ENDBRANCH   4  19
TORSDOF 7
ENDMDL
MODEL 6
REMARK VINA RESULT:      -8.1      5.977      8.447
REMARK  Name = 
REMARK  8 active torsions:
REMARK  status: ('A' for Active; 'I' for Inactive)
REMARK    1  A    between atoms: C_1  and  C_2
REMARK    2  A    between atoms: C_5  and  N_6
REMARK    3  A    between atoms: C_7  and  C_9
REMARK    4  A    between atoms: C_9  and  S_10
REMARK    5  A    between atoms: S_10  and  C_11
REMARK    6  A    between atoms: C_14  and  C_15
REMARK    7  A    between atoms: C_15  and  N_16
REMARK    8  A    between atoms: C_17  and  C_19
REMARK                            x       y       z     vdW  Elec       q    Type
REMARK                         _______ _______ _______ _____ _____    ______ ____
ROOT
ATOM      1  C   UNL     1       5.055   4.083  19.124  0.00  0.00    +0.000 A 
ATOM      2  N   UNL     1       5.960   4.458  20.004  0.00  0.00    +0.000 NA
ATOM      3  N   UNL     1       6.632   5.533  19.455  0.00  0.00    +0.000 NA
ATOM      4  C   UNL     1       6.085   5.745  18.276  0.00  0.00    +0.000 A 
ATOM      5  O   UNL     1       5.063   4.872  18.003  0.00  0.00    +0.000 OA
ENDROOT
BRANCH   1   6
ATOM      6  S   UNL     1       3.959   2.765  19.390  0.00  0.00    +0.000 S 
BRANCH   6   7
ATOM      7  C   UNL     1       2.746   3.541  20.492  0.00  0.00    +0.000 C 
BRANCH   7   9
ATOM      8  N   UNL     1       2.438   5.972  20.451  0.00  0.00    +0.000 N 
ATOM      9  C   UNL     1       2.137   4.768  19.824  0.00  0.00    +0.000 C 
ATOM     10  O   UNL     1       1.430   4.636  18.827  0.00  0.00    +0.000 OA
ATOM     11  H   UNL     1       3.165   5.942  21.157  0.00  0.00    +0.000 HD
BRANCH   8  16
ATOM     12  C   UNL     1       0.667  11.117  18.624  0.00  0.00    +0.000 C 
ATOM     13  C   UNL     1       1.141   9.784  19.122  0.00  0.00    +0.000 A 
ATOM     14  C   UNL     1       0.863   9.369  20.425  0.00  0.00    +0.000 A 
ATOM     15  C   UNL     1       1.290   8.119  20.884  0.00  0.00    +0.000 A 
ATOM     16  C   UNL     1       2.005   7.257  20.051  0.00  0.00    +0.000 A 
ATOM     17  C   UNL     1       2.313   7.683  18.754  0.00  0.00    +0.000 A 
ATOM     18  C   UNL     1       1.874   8.931  18.288  0.00  0.00    +0.000 A 
ENDBRANCH   8  16
ENDBRANCH   7   9
ENDBRANCH   6   7
ENDBRANCH   1   6
BRANCH   4  19
ATOM     19  C   UNL     1       6.414   6.772  17.257  0.00  0.00    +0.000 C 
BRANCH  19  20
ATOM     20  N   UNL     1       6.263   6.247  15.913  0.00  0.00    +0.000 N 
ATOM     21  C   UNL     1       7.030   5.187  15.473  0.00  0.00    +0.000 C 
ATOM     22  O   UNL     1       7.904   4.704  16.183  0.00  0.00    +0.000 OA
ATOM     23  H   UNL     1       5.689   6.766  15.255  0.00  0.00    +0.000 HD
BRANCH  21  24
ATOM     24  C   UNL     1       6.769   4.660  14.103  0.00  0.00    +0.000 A 
ATOM     25  C   UNL     1       5.666   3.829  13.862  0.00  0.00    +0.000 A 
ATOM     26  F   UNL     1       4.846   3.464  14.859  0.00  0.00    +0.000 F 
ATOM     27  C   UNL     1       5.377   3.344  12.585  0.00  0.00    +0.000 A 
ATOM     28  C   UNL     1       6.189   3.692  11.513  0.00  0.00    +0.000 A 
ATOM     29  C   UNL     1       7.300   4.505  11.730  0.00  0.00    +0.000 A 
ATOM     30  C   UNL     1       7.600   4.980  13.017  0.00  0.00    +0.000 A 
ATOM     31 CL   UNL     1       9.068   5.887  13.152  0.00  0.00    +0.000 Cl
ENDBRANCH  21  24
ENDBRANCH  19  20
ENDBRANCH   4  19
TORSDOF 7
ENDMDL
MODEL 7
REMARK VINA RESULT:      -8.0      5.573      8.403
REMARK  Name = 
REMARK  8 active torsions:
REMARK  status: ('A' for Active; 'I' for Inactive)
REMARK    1  A    between atoms: C_1  and  C_2
REMARK    2  A    between atoms: C_5  and  N_6
REMARK    3  A    between atoms: C_7  and  C_9
REMARK    4  A    between atoms: C_9  and  S_10
REMARK    5  A    between atoms: S_10  and  C_11
REMARK    6  A    between atoms: C_14  and  C_15
REMARK    7  A    between atoms: C_15  and  N_16
REMARK    8  A    between atoms: C_17  and  C_19
REMARK                            x       y       z     vdW  Elec       q    Type
REMARK                         _______ _______ _______ _____ _____    ______ ____
ROOT
ATOM      1  C   UNL     1       2.001   3.920  18.954  0.00  0.00    +0.000 A 
ATOM      2  N   UNL     1       1.837   4.229  20.225  0.00  0.00    +0.000 NA
ATOM      3  N   UNL     1       1.987   5.598  20.327  0.00  0.00    +0.000 NA
ATOM      4  C   UNL     1       2.227   6.033  19.108  0.00  0.00    +0.000 A 
ATOM      5  O   UNL     1       2.235   5.024  18.178  0.00  0.00    +0.000 OA
ENDROOT
BRANCH   1   6
ATOM      6  S   UNL     1       1.889   2.299  18.348  0.00  0.00    +0.000 S 
BRANCH   6   7
ATOM      7  C   UNL     1       3.613   1.754  18.498  0.00  0.00    +0.000 C 
BRANCH   7   9
ATOM      8  N   UNL     1       4.917   3.679  17.725  0.00  0.00    +0.000 N 
ATOM      9  C   UNL     1       4.512   2.939  18.830  0.00  0.00    +0.000 C 
ATOM     10  O   UNL     1       4.834   3.156  19.996  0.00  0.00    +0.000 OA
ATOM     11  H   UNL     1       4.439   3.483  16.852  0.00  0.00    +0.000 HD
BRANCH   8  16
ATOM     12  C   UNL     1       8.133   8.433  17.758  0.00  0.00    +0.000 C 
ATOM     13  C   UNL     1       7.314   7.177  17.742  0.00  0.00    +0.000 A 
ATOM     14  C   UNL     1       7.713   6.056  18.472  0.00  0.00    +0.000 A 
ATOM     15  C   UNL     1       6.940   4.890  18.471  0.00  0.00    +0.000 A 
ATOM     16  C   UNL     1       5.752   4.820  17.741  0.00  0.00    +0.000 A 
ATOM     17  C   UNL     1       5.366   5.932  16.984  0.00  0.00    +0.000 A 
ATOM     18  C   UNL     1       6.133   7.105  16.994  0.00  0.00    +0.000 A 
ENDBRANCH   8  16
ENDBRANCH   7   9
ENDBRANCH   6   7
ENDBRANCH   1   6
BRANCH   4  19
ATOM     19  C   UNL     1       2.468   7.419  18.634  0.00  0.00    +0.000 C 
BRANCH  19  20
ATOM     20  N   UNL     1       1.963   8.394  19.582  0.00  0.00    +0.000 N 
ATOM     21  C   UNL     1       1.090   9.387  19.186  0.00  0.00    +0.000 C 
ATOM     22  O   UNL     1       0.769   9.512  18.009  0.00  0.00    +0.000 OA
ATOM     23  H   UNL     1       2.377   8.422  20.509  0.00  0.00    +0.000 HD
BRANCH  21  24
ATOM     24  C   UNL     1       0.563  10.309  20.232  0.00  0.00    +0.000 A 
ATOM     25  C   UNL     1       0.804  11.687  20.148  0.00  0.00    +0.000 A 
ATOM     26  F   UNL     1       1.542  12.199  19.150  0.00  0.00    +0.000 F 
ATOM     27  C   UNL     1       0.300  12.580  21.095  0.00  0.00    +0.000 A 
ATOM     28  C   UNL     1      -0.473  12.108  22.148  0.00  0.00    +0.000 A 
ATOM     29  C   UNL     1      -0.716  10.741  22.260  0.00  0.00    +0.000 A 
ATOM     30  C   UNL     1      -0.194   9.840  21.318  0.00  0.00    +0.000 A 
ATOM     31 CL   UNL     1      -0.487   8.166  21.647  0.00  0.00    +0.000 Cl
ENDBRANCH  21  24
ENDBRANCH  19  20
ENDBRANCH   4  19
TORSDOF 7
ENDMDL
MODEL 8
REMARK VINA RESULT:      -8.0      1.997      2.227
REMARK  Name = 
REMARK  8 active torsions:
REMARK  status: ('A' for Active; 'I' for Inactive)
REMARK    1  A    between atoms: C_1  and  C_2
REMARK    2  A    between atoms: C_5  and  N_6
REMARK    3  A    between atoms: C_7  and  C_9
REMARK    4  A    between atoms: C_9  and  S_10
REMARK    5  A    between atoms: S_10  and  C_11
REMARK    6  A    between atoms: C_14  and  C_15
REMARK    7  A    between atoms: C_15  and  N_16
REMARK    8  A    between atoms: C_17  and  C_19
REMARK                            x       y       z     vdW  Elec       q    Type
REMARK                         _______ _______ _______ _____ _____    ______ ____
ROOT
ATOM      1  C   UNL     1       8.136   8.062  18.236  0.00  0.00    +0.000 A 
ATOM      2  N   UNL     1       7.496   8.167  17.089  0.00  0.00    +0.000 NA
ATOM      3  N   UNL     1       6.998   6.913  16.792  0.00  0.00    +0.000 NA
ATOM      4  C   UNL     1       7.364   6.128  17.784  0.00  0.00    +0.000 A 
ATOM      5  O   UNL     1       8.078   6.793  18.748  0.00  0.00    +0.000 OA
ENDROOT
BRANCH   1   6
ATOM      6  S   UNL     1       8.922   9.400  19.012  0.00  0.00    +0.000 S 
BRANCH   6   7
ATOM      7  C   UNL     1       8.651  10.714  17.792  0.00  0.00    +0.000 C 
BRANCH   7   9
ATOM      8  N   UNL     1       9.080  12.847  18.919  0.00  0.00    +0.000 N 
ATOM      9  C   UNL     1       9.592  11.882  18.059  0.00  0.00    +0.000 C 
ATOM     10  O   UNL     1      10.692  11.921  17.511  0.00  0.00    +0.000 OA
ATOM     11  H   UNL     1       8.234  12.598  19.421  0.00  0.00    +0.000 HD
BRANCH   8  16
ATOM     12  C   UNL     1      11.578  17.767  20.497  0.00  0.00    +0.000 C 
ATOM     13  C   UNL     1      10.948  16.469  20.088  0.00  0.00    +0.000 A 
ATOM     14  C   UNL     1      11.048  15.340  20.903  0.00  0.00    +0.000 A 
ATOM     15  C   UNL     1      10.445  14.134  20.529  0.00  0.00    +0.000 A 
ATOM     16  C   UNL     1       9.731  14.031  19.334  0.00  0.00    +0.000 A 
ATOM     17  C   UNL     1       9.656  15.153  18.501  0.00  0.00    +0.000 A 
ATOM     18  C   UNL     1      10.249  16.366  18.880  0.00  0.00    +0.000 A 
ENDBRANCH   8  16
ENDBRANCH   7   9
ENDBRANCH   6   7
ENDBRANCH   1   6
BRANCH   4  19
ATOM     19  C   UNL     1       7.103   4.681  17.984  0.00  0.00    +0.000 C 
BRANCH  19  20
ATOM     20  N   UNL     1       5.914   4.468  18.788  0.00  0.00    +0.000 N 
ATOM     21  C   UNL     1       4.678   4.295  18.198  0.00  0.00    +0.000 C 
ATOM     22  O   UNL     1       4.541   4.382  16.983  0.00  0.00    +0.000 OA
ATOM     23  H   UNL     1       5.983   4.595  19.793  0.00  0.00    +0.000 HD
BRANCH  21  24
ATOM     24  C   UNL     1       3.515   4.013  19.087  0.00  0.00    +0.000 A 
ATOM     25  C   UNL     1       2.914   5.048  19.817  0.00  0.00    +0.000 A 
ATOM     26  F   UNL     1       3.392   6.301  19.759  0.00  0.00    +0.000 F 
ATOM     27  C   UNL     1       1.805   4.823  20.635  0.00  0.00    +0.000 A 
ATOM     28  C   UNL     1       1.265   3.546  20.732  0.00  0.00    +0.000 A 
ATOM     29  C   UNL     1       1.853   2.498  20.026  0.00  0.00    +0.000 A 
ATOM     30  C   UNL     1       2.979   2.721  19.217  0.00  0.00    +0.000 A 
ATOM     31 CL   UNL     1       3.665   1.308  18.490  0.00  0.00    +0.000 Cl
ENDBRANCH  21  24
ENDBRANCH  19  20
ENDBRANCH   4  19
TORSDOF 7
ENDMDL
MODEL 9
REMARK VINA RESULT:      -8.0      5.559      8.462
REMARK  Name = 
REMARK  8 active torsions:
REMARK  status: ('A' for Active; 'I' for Inactive)
REMARK    1  A    between atoms: C_1  and  C_2
REMARK    2  A    between atoms: C_5  and  N_6
REMARK    3  A    between atoms: C_7  and  C_9
REMARK    4  A    between atoms: C_9  and  S_10
REMARK    5  A    between atoms: S_10  and  C_11
REMARK    6  A    between atoms: C_14  and  C_15
REMARK    7  A    between atoms: C_15  and  N_16
REMARK    8  A    between atoms: C_17  and  C_19
REMARK                            x       y       z     vdW  Elec       q    Type
REMARK                         _______ _______ _______ _____ _____    ______ ____
ROOT
ATOM      1  C   UNL     1       1.861   3.803  19.206  0.00  0.00    +0.000 A 
ATOM      2  N   UNL     1       1.578   3.882  20.490  0.00  0.00    +0.000 NA
ATOM      3  N   UNL     1       1.695   5.211  20.846  0.00  0.00    +0.000 NA
ATOM      4  C   UNL     1       2.036   5.856  19.750  0.00  0.00    +0.000 A 
ATOM      5  O   UNL     1       2.144   5.028  18.662  0.00  0.00    +0.000 OA
ENDROOT
BRANCH   1   6
ATOM      6  S   UNL     1       1.832   2.315  18.315  0.00  0.00    +0.000 S 
BRANCH   6   7
ATOM      7  C   UNL     1       3.478   1.655  18.692  0.00  0.00    +0.000 C 
BRANCH   7   9
ATOM      8  N   UNL     1       4.704   3.595  17.835  0.00  0.00    +0.000 N 
ATOM      9  C   UNL     1       4.457   2.795  18.944  0.00  0.00    +0.000 C 
ATOM     10  O   UNL     1       4.969   2.929  20.054  0.00  0.00    +0.000 OA
ATOM     11  H   UNL     1       4.086   3.466  17.041  0.00  0.00    +0.000 HD
BRANCH   8  16
ATOM     12  C   UNL     1       8.039   8.262  17.634  0.00  0.00    +0.000 C 
ATOM     13  C   UNL     1       7.187   7.029  17.674  0.00  0.00    +0.000 A 
ATOM     14  C   UNL     1       7.671   5.845  18.235  0.00  0.00    +0.000 A 
ATOM     15  C   UNL     1       6.869   4.700  18.289  0.00  0.00    +0.000 A 
ATOM     16  C   UNL     1       5.568   4.713  17.783  0.00  0.00    +0.000 A 
ATOM     17  C   UNL     1       5.092   5.889  17.192  0.00  0.00    +0.000 A 
ATOM     18  C   UNL     1       5.890   7.041  17.149  0.00  0.00    +0.000 A 
ENDBRANCH   8  16
ENDBRANCH   7   9
ENDBRANCH   6   7
ENDBRANCH   1   6
BRANCH   4  19
ATOM     19  C   UNL     1       2.295   7.304  19.552  0.00  0.00    +0.000 C 
BRANCH  19  20
ATOM     20  N   UNL     1       1.436   8.112  20.397  0.00  0.00    +0.000 N 
ATOM     21  C   UNL     1       1.051   9.381  20.015  0.00  0.00    +0.000 C 
ATOM     22  O   UNL     1       1.477   9.885  18.982  0.00  0.00    +0.000 OA
ATOM     23  H   UNL     1       1.243   7.785  21.339  0.00  0.00    +0.000 HD
BRANCH  21  24
ATOM     24  C   UNL     1       0.112  10.122  20.905  0.00  0.00    +0.000 A 
ATOM     25  C   UNL     1       0.081   9.855  22.281  0.00  0.00    +0.000 A 
ATOM     26  F   UNL     1       0.864   8.907  22.817  0.00  0.00    +0.000 F 
ATOM     27  C   UNL     1      -0.765  10.553  23.145  0.00  0.00    +0.000 A 
ATOM     28  C   UNL     1      -1.597  11.548  22.646  0.00  0.00    +0.000 A 
ATOM     29  C   UNL     1      -1.593  11.822  21.280  0.00  0.00    +0.000 A 
ATOM     30  C   UNL     1      -0.756  11.109  20.407  0.00  0.00    +0.000 A 
ATOM     31 CL   UNL     1      -0.939  11.483  18.728  0.00  0.00    +0.000 Cl
ENDBRANCH  21  24
ENDBRANCH  19  20
ENDBRANCH   4  19
TORSDOF 7
ENDMDL
