MODEL 1
REMARK VINA RESULT:      -6.4      0.000      0.000
REMARK  Name = 
REMARK  12 active torsions:
REMARK  status: ('A' for Active; 'I' for Inactive)
REMARK    1  A    between atoms: C_1  and  O_2
REMARK    2  A    between atoms: O_2  and  C_3
REMARK    3  A    between atoms: C_6  and  S_7
REMARK    4  A    between atoms: S_7  and  N_10
REMARK    5  A    between atoms: N_13  and  S_14
REMARK    6  A    between atoms: S_14  and  C_17
REMARK    7  A    between atoms: C_20  and  O_21
REMARK    8  A    between atoms: O_21  and  C_22
REMARK    9  A    between atoms: C_25  and  O_26
REMARK   10  A    between atoms: O_26  and  C_27
REMARK   11  A    between atoms: C_28  and  O_29
REMARK   12  A    between atoms: O_29  and  C_30
REMARK                            x       y       z     vdW  Elec       q    Type
REMARK                         _______ _______ _______ _____ _____    ______ ____
ROOT
ATOM      1  N   UNL     1       5.828   4.848  17.888  0.00  0.00    +0.000 N 
ATOM      2  C   UNL     1       4.989   5.164  18.951  0.00  0.00    +0.000 C 
ATOM      3  O   UNL     1       5.270   5.871  19.895  0.00  0.00    +0.000 OA
ATOM      4  N   UNL     1       3.810   4.462  18.764  0.00  0.00    +0.000 N 
ATOM      5  C   UNL     1       3.919   3.480  17.678  0.00  0.00    +0.000 C 
ATOM      6  C   UNL     1       5.141   4.068  16.861  0.00  0.00    +0.000 C 
ENDROOT
BRANCH   1   7
ATOM      7  S   UNL     1       7.462   5.009  17.865  0.00  0.00    +0.000 S 
ATOM      8  O   UNL     1       7.949   4.566  16.577  0.00  0.00    +0.000 OA
ATOM      9  O   UNL     1       7.995   4.430  19.083  0.00  0.00    +0.000 OA
BRANCH   7  13
ATOM     10  C   UNL     1       8.258   9.488  18.157  0.00  0.00    +0.000 A 
ATOM     11  C   UNL     1       8.838   8.606  19.074  0.00  0.00    +0.000 A 
ATOM     12  C   UNL     1       8.600   7.236  18.990  0.00  0.00    +0.000 A 
ATOM     13  C   UNL     1       7.744   6.752  17.998  0.00  0.00    +0.000 A 
ATOM     14  C   UNL     1       7.147   7.624  17.084  0.00  0.00    +0.000 A 
ATOM     15  C   UNL     1       7.407   8.994  17.165  0.00  0.00    +0.000 A 
BRANCH  10  17
ATOM     16  C   UNL     1       9.664  11.066  19.218  0.00  0.00    +0.000 C 
ATOM     17  O   UNL     1       8.567  10.805  18.350  0.00  0.00    +0.000 OA
ENDBRANCH  10  17
ENDBRANCH   7  13
ENDBRANCH   1   7
BRANCH   4  18
ATOM     18  S   UNL     1       2.370   4.780  19.488  0.00  0.00    +0.000 S 
ATOM     19  O   UNL     1       1.320   4.131  18.735  0.00  0.00    +0.000 OA
ATOM     20  O   UNL     1       2.502   4.528  20.909  0.00  0.00    +0.000 OA
BRANCH  18  21
ATOM     21  C   UNL     1       2.159   6.539  19.291  0.00  0.00    +0.000 A 
ATOM     22  C   UNL     1       2.336   7.126  18.035  0.00  0.00    +0.000 A 
ATOM     23  C   UNL     1       2.076   8.489  17.866  0.00  0.00    +0.000 A 
ATOM     24  C   UNL     1       1.604   9.260  18.931  0.00  0.00    +0.000 A 
ATOM     25  C   UNL     1       1.425   8.670  20.183  0.00  0.00    +0.000 A 
ATOM     26  C   UNL     1       1.698   7.307  20.366  0.00  0.00    +0.000 A 
BRANCH  24  27
ATOM     27  O   UNL     1       1.386  10.580  18.642  0.00  0.00    +0.000 OA
ATOM     28  C   UNL     1       0.054  11.045  18.838  0.00  0.00    +0.000 C 
ENDBRANCH  24  27
ENDBRANCH  18  21
ENDBRANCH   4  18
BRANCH   5  29
ATOM     29  O   UNL     1       4.249   2.241  18.308  0.00  0.00    +0.000 OA
ATOM     30  C   UNL     1       3.142   1.357  18.433  0.00  0.00    +0.000 C 
ENDBRANCH   5  29
BRANCH   6  31
ATOM     31  O   UNL     1       4.630   4.955  15.863  0.00  0.00    +0.000 OA
ATOM     32  C   UNL     1       5.472   5.069  14.720  0.00  0.00    +0.000 C 
ENDBRANCH   6  31
TORSDOF 8
ENDMDL
MODEL 2
REMARK VINA RESULT:      -6.3      0.702      1.105
REMARK  Name = 
REMARK  12 active torsions:
REMARK  status: ('A' for Active; 'I' for Inactive)
REMARK    1  A    between atoms: C_1  and  O_2
REMARK    2  A    between atoms: O_2  and  C_3
REMARK    3  A    between atoms: C_6  and  S_7
REMARK    4  A    between atoms: S_7  and  N_10
REMARK    5  A    between atoms: N_13  and  S_14
REMARK    6  A    between atoms: S_14  and  C_17
REMARK    7  A    between atoms: C_20  and  O_21
REMARK    8  A    between atoms: O_21  and  C_22
REMARK    9  A    between atoms: C_25  and  O_26
REMARK   10  A    between atoms: O_26  and  C_27
REMARK   11  A    between atoms: C_28  and  O_29
REMARK   12  A    between atoms: O_29  and  C_30
REMARK                            x       y       z     vdW  Elec       q    Type
REMARK                         _______ _______ _______ _____ _____    ______ ____
ROOT
ATOM      1  N   UNL     1       5.833   4.958  17.955  0.00  0.00    +0.000 N 
ATOM      2  C   UNL     1       4.764   5.226  18.802  0.00  0.00    +0.000 C 
ATOM      3  O   UNL     1       4.806   5.888  19.816  0.00  0.00    +0.000 OA
ATOM      4  N   UNL     1       3.668   4.535  18.308  0.00  0.00    +0.000 N 
ATOM      5  C   UNL     1       4.040   3.605  17.236  0.00  0.00    +0.000 C 
ATOM      6  C   UNL     1       5.416   4.227  16.759  0.00  0.00    +0.000 C 
ENDROOT
BRANCH   1   7
ATOM      7  S   UNL     1       7.425   5.116  18.327  0.00  0.00    +0.000 S 
ATOM      8  O   UNL     1       8.202   4.434  17.316  0.00  0.00    +0.000 OA
ATOM      9  O   UNL     1       7.600   4.784  19.728  0.00  0.00    +0.000 OA
BRANCH   7  13
ATOM     10  C   UNL     1       8.184   9.602  18.055  0.00  0.00    +0.000 A 
ATOM     11  C   UNL     1       7.300   8.980  17.169  0.00  0.00    +0.000 A 
ATOM     12  C   UNL     1       7.063   7.609  17.246  0.00  0.00    +0.000 A 
ATOM     13  C   UNL     1       7.746   6.853  18.201  0.00  0.00    +0.000 A 
ATOM     14  C   UNL     1       8.642   7.459  19.085  0.00  0.00    +0.000 A 
ATOM     15  C   UNL     1       8.859   8.838  19.011  0.00  0.00    +0.000 A 
BRANCH  10  17
ATOM     16  C   UNL     1       9.657  11.451  17.996  0.00  0.00    +0.000 C 
ATOM     17  O   UNL     1       8.332  10.949  17.872  0.00  0.00    +0.000 OA
ENDBRANCH  10  17
ENDBRANCH   7  13
ENDBRANCH   1   7
BRANCH   4  18
ATOM     18  S   UNL     1       2.095   4.823  18.683  0.00  0.00    +0.000 S 
ATOM     19  O   UNL     1       1.274   4.444  17.555  0.00  0.00    +0.000 OA
ATOM     20  O   UNL     1       1.824   4.267  19.994  0.00  0.00    +0.000 OA
BRANCH  18  21
ATOM     21  C   UNL     1       1.999   6.596  18.843  0.00  0.00    +0.000 A 
ATOM     22  C   UNL     1       2.127   7.405  17.710  0.00  0.00    +0.000 A 
ATOM     23  C   UNL     1       1.956   8.787  17.825  0.00  0.00    +0.000 A 
ATOM     24  C   UNL     1       1.618   9.363  19.054  0.00  0.00    +0.000 A 
ATOM     25  C   UNL     1       1.487   8.550  20.181  0.00  0.00    +0.000 A 
ATOM     26  C   UNL     1       1.672   7.165  20.078  0.00  0.00    +0.000 A 
BRANCH  24  27
ATOM     27  O   UNL     1       1.476  10.724  19.040  0.00  0.00    +0.000 OA
ATOM     28  C   UNL     1       2.289  11.421  18.101  0.00  0.00    +0.000 C 
ENDBRANCH  24  27
ENDBRANCH  18  21
ENDBRANCH   4  18
BRANCH   5  29
ATOM     29  O   UNL     1       4.223   2.337  17.868  0.00  0.00    +0.000 OA
ATOM     30  C   UNL     1       3.013   1.609  18.037  0.00  0.00    +0.000 C 
ENDBRANCH   5  29
BRANCH   6  31
ATOM     31  O   UNL     1       5.149   5.161  15.710  0.00  0.00    +0.000 OA
ATOM     32  C   UNL     1       5.672   4.761  14.447  0.00  0.00    +0.000 C 
ENDBRANCH   6  31
TORSDOF 8
ENDMDL
MODEL 3
REMARK VINA RESULT:      -6.2      4.497      9.807
REMARK  Name = 
REMARK  12 active torsions:
REMARK  status: ('A' for Active; 'I' for Inactive)
REMARK    1  A    between atoms: C_1  and  O_2
REMARK    2  A    between atoms: O_2  and  C_3
REMARK    3  A    between atoms: C_6  and  S_7
REMARK    4  A    between atoms: S_7  and  N_10
REMARK    5  A    between atoms: N_13  and  S_14
REMARK    6  A    between atoms: S_14  and  C_17
REMARK    7  A    between atoms: C_20  and  O_21
REMARK    8  A    between atoms: O_21  and  C_22
REMARK    9  A    between atoms: C_25  and  O_26
REMARK   10  A    between atoms: O_26  and  C_27
REMARK   11  A    between atoms: C_28  and  O_29
REMARK   12  A    between atoms: O_29  and  C_30
REMARK                            x       y       z     vdW  Elec       q    Type
REMARK                         _______ _______ _______ _____ _____    ______ ____
ROOT
ATOM      1  N   UNL     1      -0.384  11.371  19.055  0.00  0.00    +0.000 N 
ATOM      2  C   UNL     1      -0.588  10.175  19.734  0.00  0.00    +0.000 C 
ATOM      3  O   UNL     1      -1.433   9.345  19.478  0.00  0.00    +0.000 OA
ATOM      4  N   UNL     1       0.304  10.149  20.794  0.00  0.00    +0.000 N 
ATOM      5  C   UNL     1       0.977  11.440  20.979  0.00  0.00    +0.000 C 
ATOM      6  C   UNL     1       0.792  12.087  19.546  0.00  0.00    +0.000 C 
ENDROOT
BRANCH   1   7
ATOM      7  S   UNL     1      -1.457  12.109  18.054  0.00  0.00    +0.000 S 
ATOM      8  O   UNL     1      -1.719  11.231  16.935  0.00  0.00    +0.000 OA
ATOM      9  O   UNL     1      -1.005  13.468  17.823  0.00  0.00    +0.000 OA
BRANCH   7  13
ATOM     10  C   UNL     1      -5.260  12.397  20.550  0.00  0.00    +0.000 A 
ATOM     11  C   UNL     1      -5.295  11.835  19.270  0.00  0.00    +0.000 A 
ATOM     12  C   UNL     1      -4.137  11.744  18.502  0.00  0.00    +0.000 A 
ATOM     13  C   UNL     1      -2.940  12.252  19.011  0.00  0.00    +0.000 A 
ATOM     14  C   UNL     1      -2.893  12.828  20.283  0.00  0.00    +0.000 A 
ATOM     15  C   UNL     1      -4.057  12.898  21.053  0.00  0.00    +0.000 A 
BRANCH  10  17
ATOM     16  C   UNL     1      -7.423  11.468  20.780  0.00  0.00    +0.000 C 
ATOM     17  O   UNL     1      -6.463  12.431  21.198  0.00  0.00    +0.000 OA
ENDBRANCH  10  17
ENDBRANCH   7  13
ENDBRANCH   1   7
BRANCH   4  18
ATOM     18  S   UNL     1       0.756   8.819  21.645  0.00  0.00    +0.000 S 
ATOM     19  O   UNL     1       1.742   9.212  22.627  0.00  0.00    +0.000 OA
ATOM     20  O   UNL     1      -0.439   8.112  22.064  0.00  0.00    +0.000 OA
BRANCH  18  21
ATOM     21  C   UNL     1       1.576   7.787  20.446  0.00  0.00    +0.000 A 
ATOM     22  C   UNL     1       1.686   6.411  20.670  0.00  0.00    +0.000 A 
ATOM     23  C   UNL     1       2.245   5.593  19.685  0.00  0.00    +0.000 A 
ATOM     24  C   UNL     1       2.657   6.132  18.462  0.00  0.00    +0.000 A 
ATOM     25  C   UNL     1       2.542   7.505  18.241  0.00  0.00    +0.000 A 
ATOM     26  C   UNL     1       1.997   8.336  19.230  0.00  0.00    +0.000 A 
BRANCH  24  27
ATOM     27  O   UNL     1       3.186   5.231  17.578  0.00  0.00    +0.000 OA
ATOM     28  C   UNL     1       2.625   3.923  17.616  0.00  0.00    +0.000 C 
ENDBRANCH  24  27
ENDBRANCH  18  21
ENDBRANCH   4  18
BRANCH   5  29
ATOM     29  O   UNL     1       0.221  12.133  21.975  0.00  0.00    +0.000 OA
ATOM     30  C   UNL     1       0.254  13.547  21.829  0.00  0.00    +0.000 C 
ENDBRANCH   5  29
BRANCH   6  31
ATOM     31  O   UNL     1       1.922  11.735  18.744  0.00  0.00    +0.000 OA
ATOM     32  C   UNL     1       2.573  12.857  18.157  0.00  0.00    +0.000 C 
ENDBRANCH   6  31
TORSDOF 8
ENDMDL
MODEL 4
REMARK VINA RESULT:      -6.1      0.363      1.260
REMARK  Name = 
REMARK  12 active torsions:
REMARK  status: ('A' for Active; 'I' for Inactive)
REMARK    1  A    between atoms: C_1  and  O_2
REMARK    2  A    between atoms: O_2  and  C_3
REMARK    3  A    between atoms: C_6  and  S_7
REMARK    4  A    between atoms: S_7  and  N_10
REMARK    5  A    between atoms: N_13  and  S_14
REMARK    6  A    between atoms: S_14  and  C_17
REMARK    7  A    between atoms: C_20  and  O_21
REMARK    8  A    between atoms: O_21  and  C_22
REMARK    9  A    between atoms: C_25  and  O_26
REMARK   10  A    between atoms: O_26  and  C_27
REMARK   11  A    between atoms: C_28  and  O_29
REMARK   12  A    between atoms: O_29  and  C_30
REMARK                            x       y       z     vdW  Elec       q    Type
REMARK                         _______ _______ _______ _____ _____    ______ ____
ROOT
ATOM      1  N   UNL     1       5.836   4.918  18.089  0.00  0.00    +0.000 N 
ATOM      2  C   UNL     1       4.922   5.216  19.094  0.00  0.00    +0.000 C 
ATOM      3  O   UNL     1       5.125   5.925  20.055  0.00  0.00    +0.000 OA
ATOM      4  N   UNL     1       3.771   4.492  18.826  0.00  0.00    +0.000 N 
ATOM      5  C   UNL     1       3.971   3.516  17.749  0.00  0.00    +0.000 C 
ATOM      6  C   UNL     1       5.235   4.128  17.017  0.00  0.00    +0.000 C 
ENDROOT
BRANCH   1   7
ATOM      7  S   UNL     1       7.465   5.109  18.177  0.00  0.00    +0.000 S 
ATOM      8  O   UNL     1       8.062   4.497  17.010  0.00  0.00    +0.000 OA
ATOM      9  O   UNL     1       7.899   4.722  19.505  0.00  0.00    +0.000 OA
BRANCH   7  13
ATOM     10  C   UNL     1       8.052   9.625  17.982  0.00  0.00    +0.000 A 
ATOM     11  C   UNL     1       7.143   8.993  17.128  0.00  0.00    +0.000 A 
ATOM     12  C   UNL     1       6.958   7.614  17.182  0.00  0.00    +0.000 A 
ATOM     13  C   UNL     1       7.718   6.859  18.079  0.00  0.00    +0.000 A 
ATOM     14  C   UNL     1       8.639   7.476  18.929  0.00  0.00    +0.000 A 
ATOM     15  C   UNL     1       8.804   8.863  18.879  0.00  0.00    +0.000 A 
BRANCH  10  17
ATOM     16  C   UNL     1       9.348  11.580  18.288  0.00  0.00    +0.000 C 
ATOM     17  O   UNL     1       8.143  10.980  17.826  0.00  0.00    +0.000 OA
ENDBRANCH  10  17
ENDBRANCH   7  13
ENDBRANCH   1   7
BRANCH   4  18
ATOM     18  S   UNL     1       2.280   4.782  19.452  0.00  0.00    +0.000 S 
ATOM     19  O   UNL     1       1.302   4.059  18.670  0.00  0.00    +0.000 OA
ATOM     20  O   UNL     1       2.338   4.596  20.888  0.00  0.00    +0.000 OA
BRANCH  18  21
ATOM     21  C   UNL     1       2.014   6.521  19.165  0.00  0.00    +0.000 A 
ATOM     22  C   UNL     1       1.631   7.350  20.223  0.00  0.00    +0.000 A 
ATOM     23  C   UNL     1       1.516   8.727  20.015  0.00  0.00    +0.000 A 
ATOM     24  C   UNL     1       1.819   9.287  18.770  0.00  0.00    +0.000 A 
ATOM     25  C   UNL     1       2.205   8.455  17.718  0.00  0.00    +0.000 A 
ATOM     26  C   UNL     1       2.307   7.071  17.913  0.00  0.00    +0.000 A 
BRANCH  24  27
ATOM     27  O   UNL     1       1.670  10.645  18.690  0.00  0.00    +0.000 OA
ATOM     28  C   UNL     1       0.662  11.206  19.525  0.00  0.00    +0.000 C 
ENDBRANCH  24  27
ENDBRANCH  18  21
ENDBRANCH   4  18
BRANCH   5  29
ATOM     29  O   UNL     1       4.281   2.280  18.398  0.00  0.00    +0.000 OA
ATOM     30  C   UNL     1       3.188   1.372  18.438  0.00  0.00    +0.000 C 
ENDBRANCH   5  29
BRANCH   6  31
ATOM     31  O   UNL     1       4.776   5.008  15.988  0.00  0.00    +0.000 OA
ATOM     32  C   UNL     1       5.475   4.855  14.757  0.00  0.00    +0.000 C 
ENDBRANCH   6  31
TORSDOF 8
ENDMDL
MODEL 5
REMARK VINA RESULT:      -6.1      4.391      9.768
REMARK  Name = 
REMARK  12 active torsions:
REMARK  status: ('A' for Active; 'I' for Inactive)
REMARK    1  A    between atoms: C_1  and  O_2
REMARK    2  A    between atoms: O_2  and  C_3
REMARK    3  A    between atoms: C_6  and  S_7
REMARK    4  A    between atoms: S_7  and  N_10
REMARK    5  A    between atoms: N_13  and  S_14
REMARK    6  A    between atoms: S_14  and  C_17
REMARK    7  A    between atoms: C_20  and  O_21
REMARK    8  A    between atoms: O_21  and  C_22
REMARK    9  A    between atoms: C_25  and  O_26
REMARK   10  A    between atoms: O_26  and  C_27
REMARK   11  A    between atoms: C_28  and  O_29
REMARK   12  A    between atoms: O_29  and  C_30
REMARK                            x       y       z     vdW  Elec       q    Type
REMARK                         _______ _______ _______ _____ _____    ______ ____
ROOT
ATOM      1  N   UNL     1      -0.375  11.414  19.090  0.00  0.00    +0.000 N 
ATOM      2  C   UNL     1      -0.580  10.207  19.750  0.00  0.00    +0.000 C 
ATOM      3  O   UNL     1      -1.425   9.381  19.480  0.00  0.00    +0.000 OA
ATOM      4  N   UNL     1       0.309  10.166  20.812  0.00  0.00    +0.000 N 
ATOM      5  C   UNL     1       0.982  11.454  21.018  0.00  0.00    +0.000 C 
ATOM      6  C   UNL     1       0.800  12.122  19.594  0.00  0.00    +0.000 C 
ENDROOT
BRANCH   1   7
ATOM      7  S   UNL     1      -1.446  12.167  18.097  0.00  0.00    +0.000 S 
ATOM      8  O   UNL     1      -1.669  11.326  16.942  0.00  0.00    +0.000 OA
ATOM      9  O   UNL     1      -1.019  13.542  17.926  0.00  0.00    +0.000 OA
BRANCH   7  13
ATOM     10  C   UNL     1      -5.328  12.440  20.469  0.00  0.00    +0.000 A 
ATOM     11  C   UNL     1      -4.133  12.922  21.012  0.00  0.00    +0.000 A 
ATOM     12  C   UNL     1      -2.943  12.843  20.292  0.00  0.00    +0.000 A 
ATOM     13  C   UNL     1      -2.948  12.242  19.031  0.00  0.00    +0.000 A 
ATOM     14  C   UNL     1      -4.132  11.744  18.483  0.00  0.00    +0.000 A 
ATOM     15  C   UNL     1      -5.324  11.845  19.205  0.00  0.00    +0.000 A 
BRANCH  10  17
ATOM     16  C   UNL     1      -7.449  11.604  21.098  0.00  0.00    +0.000 C 
ATOM     17  O   UNL     1      -6.423  12.574  21.277  0.00  0.00    +0.000 OA
ENDBRANCH  10  17
ENDBRANCH   7  13
ENDBRANCH   1   7
BRANCH   4  18
ATOM     18  S   UNL     1       0.759   8.824  21.644  0.00  0.00    +0.000 S 
ATOM     19  O   UNL     1       1.796   9.188  22.583  0.00  0.00    +0.000 OA
ATOM     20  O   UNL     1      -0.436   8.150  22.113  0.00  0.00    +0.000 OA
BRANCH  18  21
ATOM     21  C   UNL     1       1.499   7.770  20.412  0.00  0.00    +0.000 A 
ATOM     22  C   UNL     1       1.990   8.323  19.226  0.00  0.00    +0.000 A 
ATOM     23  C   UNL     1       2.655   7.508  18.306  0.00  0.00    +0.000 A 
ATOM     24  C   UNL     1       2.867   6.153  18.579  0.00  0.00    +0.000 A 
ATOM     25  C   UNL     1       2.377   5.605  19.766  0.00  0.00    +0.000 A 
ATOM     26  C   UNL     1       1.696   6.412  20.688  0.00  0.00    +0.000 A 
BRANCH  24  27
ATOM     27  O   UNL     1       3.529   5.459  17.603  0.00  0.00    +0.000 OA
ATOM     28  C   UNL     1       4.864   5.879  17.343  0.00  0.00    +0.000 C 
ENDBRANCH  24  27
ENDBRANCH  18  21
ENDBRANCH   4  18
BRANCH   5  29
ATOM     29  O   UNL     1       0.223  12.132  22.022  0.00  0.00    +0.000 OA
ATOM     30  C   UNL     1       0.216  13.546  21.869  0.00  0.00    +0.000 C 
ENDBRANCH   5  29
BRANCH   6  31
ATOM     31  O   UNL     1       1.932  11.782  18.790  0.00  0.00    +0.000 OA
ATOM     32  C   UNL     1       2.528  12.904  18.146  0.00  0.00    +0.000 C 
ENDBRANCH   6  31
TORSDOF 8
ENDMDL
MODEL 6
REMARK VINA RESULT:      -6.1      0.396      5.743
REMARK  Name = 
REMARK  12 active torsions:
REMARK  status: ('A' for Active; 'I' for Inactive)
REMARK    1  A    between atoms: C_1  and  O_2
REMARK    2  A    between atoms: O_2  and  C_3
REMARK    3  A    between atoms: C_6  and  S_7
REMARK    4  A    between atoms: S_7  and  N_10
REMARK    5  A    between atoms: N_13  and  S_14
REMARK    6  A    between atoms: S_14  and  C_17
REMARK    7  A    between atoms: C_20  and  O_21
REMARK    8  A    between atoms: O_21  and  C_22
REMARK    9  A    between atoms: C_25  and  O_26
REMARK   10  A    between atoms: O_26  and  C_27
REMARK   11  A    between atoms: C_28  and  O_29
REMARK   12  A    between atoms: O_29  and  C_30
REMARK                            x       y       z     vdW  Elec       q    Type
REMARK                         _______ _______ _______ _____ _____    ______ ____
ROOT
ATOM      1  N   UNL     1       3.814   4.489  18.888  0.00  0.00    +0.000 N 
ATOM      2  C   UNL     1       5.015   5.148  19.125  0.00  0.00    +0.000 C 
ATOM      3  O   UNL     1       5.248   5.894  20.052  0.00  0.00    +0.000 OA
ATOM      4  N   UNL     1       5.861   4.850  18.069  0.00  0.00    +0.000 N 
ATOM      5  C   UNL     1       5.161   4.157  16.981  0.00  0.00    +0.000 C 
ATOM      6  C   UNL     1       3.905   3.575  17.750  0.00  0.00    +0.000 C 
ENDROOT
BRANCH   1   7
ATOM      7  S   UNL     1       2.356   4.870  19.540  0.00  0.00    +0.000 S 
ATOM      8  O   UNL     1       2.440   4.710  20.976  0.00  0.00    +0.000 OA
ATOM      9  O   UNL     1       1.325   4.180  18.790  0.00  0.00    +0.000 OA
BRANCH   7  13
ATOM     10  C   UNL     1       1.880   9.315  18.651  0.00  0.00    +0.000 A 
ATOM     11  C   UNL     1       1.534   8.805  19.906  0.00  0.00    +0.000 A 
ATOM     12  C   UNL     1       1.677   7.447  20.184  0.00  0.00    +0.000 A 
ATOM     13  C   UNL     1       2.140   6.591  19.183  0.00  0.00    +0.000 A 
ATOM     14  C   UNL     1       2.477   7.086  17.921  0.00  0.00    +0.000 A 
ATOM     15  C   UNL     1       2.347   8.452  17.657  0.00  0.00    +0.000 A 
BRANCH  10  17
ATOM     16  C   UNL     1       1.071  11.325  19.599  0.00  0.00    +0.000 C 
ATOM     17  O   UNL     1       1.689  10.661  18.503  0.00  0.00    +0.000 OA
ENDBRANCH  10  17
ENDBRANCH   7  13
ENDBRANCH   1   7
BRANCH   4  18
ATOM     18  S   UNL     1       7.493   5.031  18.057  0.00  0.00    +0.000 S 
ATOM     19  O   UNL     1       8.016   4.588  19.330  0.00  0.00    +0.000 OA
ATOM     20  O   UNL     1       8.012   4.467  16.827  0.00  0.00    +0.000 OA
BRANCH  18  21
ATOM     21  C   UNL     1       7.739   6.794  17.963  0.00  0.00    +0.000 A 
ATOM     22  C   UNL     1       6.942   7.564  17.111  0.00  0.00    +0.000 A 
ATOM     23  C   UNL     1       7.073   8.955  17.111  0.00  0.00    +0.000 A 
ATOM     24  C   UNL     1       7.965   9.586  17.984  0.00  0.00    +0.000 A 
ATOM     25  C   UNL     1       8.756   8.813  18.835  0.00  0.00    +0.000 A 
ATOM     26  C   UNL     1       8.642   7.417  18.831  0.00  0.00    +0.000 A 
BRANCH  24  27
ATOM     27  O   UNL     1       8.004  10.951  17.891  0.00  0.00    +0.000 OA
ATOM     28  C   UNL     1       9.187  11.571  18.384  0.00  0.00    +0.000 C 
ENDBRANCH  24  27
ENDBRANCH  18  21
ENDBRANCH   4  18
BRANCH   5  29
ATOM     29  O   UNL     1       4.787   5.174  16.050  0.00  0.00    +0.000 OA
ATOM     30  C   UNL     1       5.404   5.031  14.776  0.00  0.00    +0.000 C 
ENDBRANCH   5  29
BRANCH   6  31
ATOM     31  O   UNL     1       4.236   2.267  18.226  0.00  0.00    +0.000 OA
ATOM     32  C   UNL     1       3.100   1.431  18.420  0.00  0.00    +0.000 C 
ENDBRANCH   6  31
TORSDOF 8
ENDMDL
MODEL 7
REMARK VINA RESULT:      -6.1      4.535      8.510
REMARK  Name = 
REMARK  12 active torsions:
REMARK  status: ('A' for Active; 'I' for Inactive)
REMARK    1  A    between atoms: C_1  and  O_2
REMARK    2  A    between atoms: O_2  and  C_3
REMARK    3  A    between atoms: C_6  and  S_7
REMARK    4  A    between atoms: S_7  and  N_10
REMARK    5  A    between atoms: N_13  and  S_14
REMARK    6  A    between atoms: S_14  and  C_17
REMARK    7  A    between atoms: C_20  and  O_21
REMARK    8  A    between atoms: O_21  and  C_22
REMARK    9  A    between atoms: C_25  and  O_26
REMARK   10  A    between atoms: O_26  and  C_27
REMARK   11  A    between atoms: C_28  and  O_29
REMARK   12  A    between atoms: O_29  and  C_30
REMARK                            x       y       z     vdW  Elec       q    Type
REMARK                         _______ _______ _______ _____ _____    ______ ____
ROOT
ATOM      1  N   UNL     1       0.239  10.192  20.922  0.00  0.00    +0.000 N 
ATOM      2  C   UNL     1      -0.647  10.182  19.851  0.00  0.00    +0.000 C 
ATOM      3  O   UNL     1      -1.419   9.290  19.571  0.00  0.00    +0.000 OA
ATOM      4  N   UNL     1      -0.426  11.343  19.127  0.00  0.00    +0.000 N 
ATOM      5  C   UNL     1       0.776  12.054  19.579  0.00  0.00    +0.000 C 
ATOM      6  C   UNL     1       0.943  11.467  21.040  0.00  0.00    +0.000 C 
ENDROOT
BRANCH   1   7
ATOM      7  S   UNL     1       0.727   8.882  21.785  0.00  0.00    +0.000 S 
ATOM      8  O   UNL     1      -0.445   8.214  22.306  0.00  0.00    +0.000 OA
ATOM      9  O   UNL     1       1.788   9.297  22.682  0.00  0.00    +0.000 OA
BRANCH   7  13
ATOM     10  C   UNL     1       2.618   6.128  18.684  0.00  0.00    +0.000 A 
ATOM     11  C   UNL     1       2.169   5.615  19.905  0.00  0.00    +0.000 A 
ATOM     12  C   UNL     1       1.590   6.451  20.857  0.00  0.00    +0.000 A 
ATOM     13  C   UNL     1       1.492   7.819  20.594  0.00  0.00    +0.000 A 
ATOM     14  C   UNL     1       1.948   8.347  19.384  0.00  0.00    +0.000 A 
ATOM     15  C   UNL     1       2.511   7.498  18.427  0.00  0.00    +0.000 A 
BRANCH  10  17
ATOM     16  C   UNL     1       2.374   4.060  17.564  0.00  0.00    +0.000 C 
ATOM     17  O   UNL     1       3.170   5.206  17.839  0.00  0.00    +0.000 OA
ENDBRANCH  10  17
ENDBRANCH   7  13
ENDBRANCH   1   7
BRANCH   4  18
ATOM     18  S   UNL     1      -1.452  12.009  18.031  0.00  0.00    +0.000 S 
ATOM     19  O   UNL     1      -0.960  13.321  17.674  0.00  0.00    +0.000 OA
ATOM     20  O   UNL     1      -1.718  11.030  16.995  0.00  0.00    +0.000 OA
BRANCH  18  21
ATOM     21  C   UNL     1      -2.973  12.235  18.933  0.00  0.00    +0.000 A 
ATOM     22  C   UNL     1      -4.178  11.780  18.391  0.00  0.00    +0.000 A 
ATOM     23  C   UNL     1      -5.353  11.874  19.142  0.00  0.00    +0.000 A 
ATOM     24  C   UNL     1      -5.325  12.380  20.445  0.00  0.00    +0.000 A 
ATOM     25  C   UNL     1      -4.119  12.830  20.984  0.00  0.00    +0.000 A 
ATOM     26  C   UNL     1      -2.939  12.754  20.231  0.00  0.00    +0.000 A 
BRANCH  24  27
ATOM     27  O   UNL     1      -6.537  12.421  21.079  0.00  0.00    +0.000 OA
ATOM     28  C   UNL     1      -7.381  11.292  20.874  0.00  0.00    +0.000 C 
ENDBRANCH  24  27
ENDBRANCH  18  21
ENDBRANCH   4  18
BRANCH   5  29
ATOM     29  O   UNL     1       1.829  11.627  18.712  0.00  0.00    +0.000 OA
ATOM     30  C   UNL     1       2.604  12.700  18.192  0.00  0.00    +0.000 C 
ENDBRANCH   5  29
BRANCH   6  31
ATOM     31  O   UNL     1       0.232  12.312  21.949  0.00  0.00    +0.000 OA
ATOM     32  C   UNL     1       0.414  13.701  21.692  0.00  0.00    +0.000 C 
ENDBRANCH   6  31
TORSDOF 8
ENDMDL
MODEL 8
REMARK VINA RESULT:      -6.0      2.717      6.968
REMARK  Name = 
REMARK  12 active torsions:
REMARK  status: ('A' for Active; 'I' for Inactive)
REMARK    1  A    between atoms: C_1  and  O_2
REMARK    2  A    between atoms: O_2  and  C_3
REMARK    3  A    between atoms: C_6  and  S_7
REMARK    4  A    between atoms: S_7  and  N_10
REMARK    5  A    between atoms: N_13  and  S_14
REMARK    6  A    between atoms: S_14  and  C_17
REMARK    7  A    between atoms: C_20  and  O_21
REMARK    8  A    between atoms: O_21  and  C_22
REMARK    9  A    between atoms: C_25  and  O_26
REMARK   10  A    between atoms: O_26  and  C_27
REMARK   11  A    between atoms: C_28  and  O_29
REMARK   12  A    between atoms: O_29  and  C_30
REMARK                            x       y       z     vdW  Elec       q    Type
REMARK                         _______ _______ _______ _____ _____    ______ ____
ROOT
ATOM      1  N   UNL     1       2.535   7.101  18.647  0.00  0.00    +0.000 N 
ATOM      2  C   UNL     1       3.850   6.803  18.308  0.00  0.00    +0.000 C 
ATOM      3  O   UNL     1       4.670   7.585  17.875  0.00  0.00    +0.000 OA
ATOM      4  N   UNL     1       4.020   5.440  18.487  0.00  0.00    +0.000 N 
ATOM      5  C   UNL     1       2.747   4.754  18.740  0.00  0.00    +0.000 C 
ATOM      6  C   UNL     1       1.851   5.957  19.247  0.00  0.00    +0.000 C 
ENDROOT
BRANCH   1   7
ATOM      7  S   UNL     1       1.691   8.427  18.172  0.00  0.00    +0.000 S 
ATOM      8  O   UNL     1       0.585   7.995  17.346  0.00  0.00    +0.000 OA
ATOM      9  O   UNL     1       2.631   9.412  17.673  0.00  0.00    +0.000 OA
BRANCH   7  13
ATOM     10  C   UNL     1       0.063  10.235  22.027  0.00  0.00    +0.000 A 
ATOM     11  C   UNL     1       1.131   9.333  22.065  0.00  0.00    +0.000 A 
ATOM     12  C   UNL     1       1.634   8.777  20.890  0.00  0.00    +0.000 A 
ATOM     13  C   UNL     1       1.036   9.104  19.671  0.00  0.00    +0.000 A 
ATOM     14  C   UNL     1      -0.040   9.993  19.620  0.00  0.00    +0.000 A 
ATOM     15  C   UNL     1      -0.526  10.560  20.801  0.00  0.00    +0.000 A 
BRANCH  10  17
ATOM     16  C   UNL     1      -1.585  11.391  23.268  0.00  0.00    +0.000 C 
ATOM     17  O   UNL     1      -0.339  10.705  23.246  0.00  0.00    +0.000 OA
ENDBRANCH  10  17
ENDBRANCH   7  13
ENDBRANCH   1   7
BRANCH   4  18
ATOM     18  S   UNL     1       5.456   4.654  18.621  0.00  0.00    +0.000 S 
ATOM     19  O   UNL     1       6.383   5.503  19.335  0.00  0.00    +0.000 OA
ATOM     20  O   UNL     1       5.203   3.306  19.090  0.00  0.00    +0.000 OA
BRANCH  18  21
ATOM     21  C   UNL     1       6.041   4.517  16.942  0.00  0.00    +0.000 A 
ATOM     22  C   UNL     1       5.349   3.719  16.027  0.00  0.00    +0.000 A 
ATOM     23  C   UNL     1       5.755   3.690  14.690  0.00  0.00    +0.000 A 
ATOM     24  C   UNL     1       6.821   4.482  14.253  0.00  0.00    +0.000 A 
ATOM     25  C   UNL     1       7.506   5.280  15.170  0.00  0.00    +0.000 A 
ATOM     26  C   UNL     1       7.116   5.303  16.516  0.00  0.00    +0.000 A 
BRANCH  24  27
ATOM     27  O   UNL     1       7.124   4.368  12.923  0.00  0.00    +0.000 OA
ATOM     28  C   UNL     1       6.355   3.417  12.193  0.00  0.00    +0.000 C 
ENDBRANCH  24  27
ENDBRANCH  18  21
ENDBRANCH   4  18
BRANCH   5  29
ATOM     29  O   UNL     1       2.310   4.267  17.470  0.00  0.00    +0.000 OA
ATOM     30  C   UNL     1       2.154   2.854  17.429  0.00  0.00    +0.000 C 
ENDBRANCH   5  29
BRANCH   6  31
ATOM     31  O   UNL     1       1.968   6.037  20.670  0.00  0.00    +0.000 OA
ATOM     32  C   UNL     1       2.135   4.769  21.297  0.00  0.00    +0.000 C 
ENDBRANCH   6  31
TORSDOF 8
ENDMDL
MODEL 9
REMARK VINA RESULT:      -6.0      7.009      9.261
REMARK  Name = 
REMARK  12 active torsions:
REMARK  status: ('A' for Active; 'I' for Inactive)
REMARK    1  A    between atoms: C_1  and  O_2
REMARK    2  A    between atoms: O_2  and  C_3
REMARK    3  A    between atoms: C_6  and  S_7
REMARK    4  A    between atoms: S_7  and  N_10
REMARK    5  A    between atoms: N_13  and  S_14
REMARK    6  A    between atoms: S_14  and  C_17
REMARK    7  A    between atoms: C_20  and  O_21
REMARK    8  A    between atoms: O_21  and  C_22
REMARK    9  A    between atoms: C_25  and  O_26
REMARK   10  A    between atoms: O_26  and  C_27
REMARK   11  A    between atoms: C_28  and  O_29
REMARK   12  A    between atoms: O_29  and  C_30
REMARK                            x       y       z     vdW  Elec       q    Type
REMARK                         _______ _______ _______ _____ _____    ______ ____
ROOT
ATOM      1  N   UNL     1       2.605  15.319  19.447  0.00  0.00    +0.000 N 
ATOM      2  C   UNL     1       2.192  13.991  19.435  0.00  0.00    +0.000 C 
ATOM      3  O   UNL     1       2.729  13.083  18.838  0.00  0.00    +0.000 OA
ATOM      4  N   UNL     1       1.018  13.921  20.168  0.00  0.00    +0.000 N 
ATOM      5  C   UNL     1       0.498  15.252  20.504  0.00  0.00    +0.000 C 
ATOM      6  C   UNL     1       1.805  16.133  20.360  0.00  0.00    +0.000 C 
ENDROOT
BRANCH   1   7
ATOM      7  S   UNL     1       3.626  16.024  18.371  0.00  0.00    +0.000 S 
ATOM      8  O   UNL     1       3.647  17.448  18.624  0.00  0.00    +0.000 OA
ATOM      9  O   UNL     1       3.308  15.524  17.047  0.00  0.00    +0.000 OA
BRANCH   7  13
ATOM     10  C   UNL     1       7.767  14.399  19.364  0.00  0.00    +0.000 A 
ATOM     11  C   UNL     1       7.269  14.315  18.061  0.00  0.00    +0.000 A 
ATOM     12  C   UNL     1       6.004  14.810  17.750  0.00  0.00    +0.000 A 
ATOM     13  C   UNL     1       5.220  15.363  18.765  0.00  0.00    +0.000 A 
ATOM     14  C   UNL     1       5.700  15.441  20.074  0.00  0.00    +0.000 A 
ATOM     15  C   UNL     1       6.977  14.958  20.372  0.00  0.00    +0.000 A 
BRANCH  10  17
ATOM     16  C   UNL     1       9.768  13.648  18.352  0.00  0.00    +0.000 C 
ATOM     17  O   UNL     1       9.017  13.874  19.539  0.00  0.00    +0.000 OA
ENDBRANCH  10  17
ENDBRANCH   7  13
ENDBRANCH   1   7
BRANCH   4  18
ATOM     18  S   UNL     1       0.352  12.558  20.797  0.00  0.00    +0.000 S 
ATOM     19  O   UNL     1       1.416  11.677  21.222  0.00  0.00    +0.000 OA
ATOM     20  O   UNL     1      -0.686  12.942  21.734  0.00  0.00    +0.000 OA
BRANCH  18  21
ATOM     21  C   UNL     1      -0.461  11.786  19.411  0.00  0.00    +0.000 A 
ATOM     22  C   UNL     1       0.036  10.587  18.892  0.00  0.00    +0.000 A 
ATOM     23  C   UNL     1      -0.658   9.936  17.869  0.00  0.00    +0.000 A 
ATOM     24  C   UNL     1      -1.865  10.453  17.387  0.00  0.00    +0.000 A 
ATOM     25  C   UNL     1      -2.359  11.649  17.911  0.00  0.00    +0.000 A 
ATOM     26  C   UNL     1      -1.661  12.316  18.927  0.00  0.00    +0.000 A 
BRANCH  24  27
ATOM     27  O   UNL     1      -2.451   9.727  16.386  0.00  0.00    +0.000 OA
ATOM     28  C   UNL     1      -2.874  10.472  15.248  0.00  0.00    +0.000 C 
ENDBRANCH  24  27
ENDBRANCH  18  21
ENDBRANCH   4  18
BRANCH   5  29
ATOM     29  O   UNL     1      -0.463  15.559  19.492  0.00  0.00    +0.000 OA
ATOM     30  C   UNL     1      -0.633  16.955  19.278  0.00  0.00    +0.000 C 
ENDBRANCH   5  29
BRANCH   6  31
ATOM     31  O   UNL     1       2.455  16.185  21.633  0.00  0.00    +0.000 OA
ATOM     32  C   UNL     1       1.573  16.486  22.709  0.00  0.00    +0.000 C 
ENDBRANCH   6  31
TORSDOF 8
ENDMDL
