MODEL 1
REMARK VINA RESULT:      -7.7      0.000      0.000
REMARK  Name = 
REMARK  8 active torsions:
REMARK  status: ('A' for Active; 'I' for Inactive)
REMARK    1  A    between atoms: C_1  and  O_2
REMARK    2  A    between atoms: O_2  and  C_3
REMARK    3  A    between atoms: C_6  and  C_7
REMARK    4  A    between atoms: C_7  and  C_9
REMARK    5  A    between atoms: C_9  and  N_10
REMARK    6  A    between atoms: C_14  and  C_15
REMARK    7  A    between atoms: C_14  and  C_16
REMARK    8  A    between atoms: C_19  and  C_20
REMARK                            x       y       z     vdW  Elec       q    Type
REMARK                         _______ _______ _______ _____ _____    ______ ____
ROOT
ATOM      1  N   UNL     1       3.781   4.104  18.174  0.00  0.00    +0.000 N 
ATOM      2  C   UNL     1       2.529   3.792  17.745  0.00  0.00    +0.000 C 
ATOM      3  O   UNL     1       2.202   2.842  17.053  0.00  0.00    +0.000 OA
ATOM      4  N   UNL     1       1.636   4.692  18.287  0.00  0.00    +0.000 N 
ATOM      5  C   UNL     1       2.226   5.432  19.385  0.00  0.00    +0.000 C 
ATOM      6  C   UNL     1       1.661   4.828  20.681  0.00  0.00    +0.000 C 
ATOM      7  C   UNL     1       3.708   5.015  19.194  0.00  0.00    +0.000 C 
ATOM      8  O   UNL     1       4.649   5.384  19.887  0.00  0.00    +0.000 OA
ATOM      9  H   UNL     1       0.643   4.547  18.167  0.00  0.00    +0.000 HD
ENDROOT
BRANCH   5  10
ATOM     10  C   UNL     1       2.060   6.945  19.261  0.00  0.00    +0.000 A 
ATOM     11  C   UNL     1       2.359   7.625  18.063  0.00  0.00    +0.000 A 
ATOM     12  C   UNL     1       2.139   9.002  17.929  0.00  0.00    +0.000 A 
ATOM     13  C   UNL     1       1.604   9.736  18.988  0.00  0.00    +0.000 A 
ATOM     14  C   UNL     1       1.292   9.079  20.181  0.00  0.00    +0.000 A 
ATOM     15  C   UNL     1       1.513   7.703  20.314  0.00  0.00    +0.000 A 
BRANCH  13  16
ATOM     16  C   UNL     1       1.365  11.140  18.844  0.00  0.00    +0.000 C 
ATOM     17  N   UNL     1       1.173  12.285  18.735  0.00  0.00    +0.000 NA
ENDBRANCH  13  16
ENDBRANCH   5  10
BRANCH   1  18
ATOM     18  C   UNL     1       5.001   3.498  17.667  0.00  0.00    +0.000 C 
BRANCH  18  19
ATOM     19  C   UNL     1       5.735   4.467  16.733  0.00  0.00    +0.000 C 
ATOM     20  O   UNL     1       5.617   4.416  15.507  0.00  0.00    +0.000 OA
BRANCH  19  24
ATOM     21  C   UNL     1       8.155   7.625  18.446  0.00  0.00    +0.000 A 
ATOM     22  C   UNL     1       7.340   7.858  17.340  0.00  0.00    +0.000 A 
ATOM     23  C   UNL     1       6.572   6.822  16.791  0.00  0.00    +0.000 A 
ATOM     24  C   UNL     1       6.620   5.529  17.331  0.00  0.00    +0.000 A 
ATOM     25  C   UNL     1       7.478   5.289  18.412  0.00  0.00    +0.000 A 
ATOM     26  C   UNL     1       8.240   6.333  18.967  0.00  0.00    +0.000 A 
BRANCH  21  28
ATOM     27  C   UNL     1       8.618   9.935  18.210  0.00  0.00    +0.000 C 
ATOM     28  O   UNL     1       8.848   8.712  18.903  0.00  0.00    +0.000 OA
ENDBRANCH  21  28
ENDBRANCH  19  24
ENDBRANCH  18  19
ENDBRANCH   1  18
TORSDOF 6
ENDMDL
MODEL 2
REMARK VINA RESULT:      -7.4      0.671      1.127
REMARK  Name = 
REMARK  8 active torsions:
REMARK  status: ('A' for Active; 'I' for Inactive)
REMARK    1  A    between atoms: C_1  and  O_2
REMARK    2  A    between atoms: O_2  and  C_3
REMARK    3  A    between atoms: C_6  and  C_7
REMARK    4  A    between atoms: C_7  and  C_9
REMARK    5  A    between atoms: C_9  and  N_10
REMARK    6  A    between atoms: C_14  and  C_15
REMARK    7  A    between atoms: C_14  and  C_16
REMARK    8  A    between atoms: C_19  and  C_20
REMARK                            x       y       z     vdW  Elec       q    Type
REMARK                         _______ _______ _______ _____ _____    ______ ____
ROOT
ATOM      1  N   UNL     1       3.567   3.650  18.149  0.00  0.00    +0.000 N 
ATOM      2  C   UNL     1       2.269   3.332  17.899  0.00  0.00    +0.000 C 
ATOM      3  O   UNL     1       1.854   2.412  17.215  0.00  0.00    +0.000 OA
ATOM      4  N   UNL     1       1.457   4.184  18.617  0.00  0.00    +0.000 N 
ATOM      5  C   UNL     1       2.197   4.880  19.651  0.00  0.00    +0.000 C 
ATOM      6  C   UNL     1       1.846   4.198  20.983  0.00  0.00    +0.000 C 
ATOM      7  C   UNL     1       3.639   4.506  19.215  0.00  0.00    +0.000 C 
ATOM      8  O   UNL     1       4.669   4.860  19.776  0.00  0.00    +0.000 OA
ATOM      9  H   UNL     1       0.460   4.024  18.642  0.00  0.00    +0.000 HD
ENDROOT
BRANCH   5  10
ATOM     10  C   UNL     1       1.993   6.394  19.635  0.00  0.00    +0.000 A 
ATOM     11  C   UNL     1       2.179   7.151  18.461  0.00  0.00    +0.000 A 
ATOM     12  C   UNL     1       1.923   8.528  18.430  0.00  0.00    +0.000 A 
ATOM     13  C   UNL     1       1.463   9.184  19.573  0.00  0.00    +0.000 A 
ATOM     14  C   UNL     1       1.264   8.449  20.745  0.00  0.00    +0.000 A 
ATOM     15  C   UNL     1       1.521   7.073  20.774  0.00  0.00    +0.000 A 
BRANCH  13  16
ATOM     16  C   UNL     1       1.187  10.588  19.536  0.00  0.00    +0.000 C 
ATOM     17  N   UNL     1       0.963  11.732  19.515  0.00  0.00    +0.000 NA
ENDBRANCH  13  16
ENDBRANCH   5  10
BRANCH   1  18
ATOM     18  C   UNL     1       4.704   3.097  17.431  0.00  0.00    +0.000 C 
BRANCH  18  19
ATOM     19  C   UNL     1       5.301   4.144  16.482  0.00  0.00    +0.000 C 
ATOM     20  O   UNL     1       5.141   4.091  15.261  0.00  0.00    +0.000 OA
BRANCH  19  24
ATOM     21  C   UNL     1       7.733   7.341  18.104  0.00  0.00    +0.000 A 
ATOM     22  C   UNL     1       8.019   6.004  18.377  0.00  0.00    +0.000 A 
ATOM     23  C   UNL     1       7.215   4.983  17.854  0.00  0.00    +0.000 A 
ATOM     24  C   UNL     1       6.098   5.283  17.060  0.00  0.00    +0.000 A 
ATOM     25  C   UNL     1       5.787   6.629  16.829  0.00  0.00    +0.000 A 
ATOM     26  C   UNL     1       6.602   7.652  17.347  0.00  0.00    +0.000 A 
BRANCH  21  28
ATOM     27  C   UNL     1       8.498   9.580  18.159  0.00  0.00    +0.000 C 
ATOM     28  O   UNL     1       8.593   8.249  18.656  0.00  0.00    +0.000 OA
ENDBRANCH  21  28
ENDBRANCH  19  24
ENDBRANCH  18  19
ENDBRANCH   1  18
TORSDOF 6
ENDMDL
MODEL 3
REMARK VINA RESULT:      -7.4      0.393      1.006
REMARK  Name = 
REMARK  8 active torsions:
REMARK  status: ('A' for Active; 'I' for Inactive)
REMARK    1  A    between atoms: C_1  and  O_2
REMARK    2  A    between atoms: O_2  and  C_3
REMARK    3  A    between atoms: C_6  and  C_7
REMARK    4  A    between atoms: C_7  and  C_9
REMARK    5  A    between atoms: C_9  and  N_10
REMARK    6  A    between atoms: C_14  and  C_15
REMARK    7  A    between atoms: C_14  and  C_16
REMARK    8  A    between atoms: C_19  and  C_20
REMARK                            x       y       z     vdW  Elec       q    Type
REMARK                         _______ _______ _______ _____ _____    ______ ____
ROOT
ATOM      1  N   UNL     1       3.651   3.796  18.202  0.00  0.00    +0.000 N 
ATOM      2  C   UNL     1       2.376   3.396  17.947  0.00  0.00    +0.000 C 
ATOM      3  O   UNL     1       2.024   2.397  17.343  0.00  0.00    +0.000 OA
ATOM      4  N   UNL     1       1.505   4.274  18.558  0.00  0.00    +0.000 N 
ATOM      5  C   UNL     1       2.180   5.098  19.541  0.00  0.00    +0.000 C 
ATOM      6  C   UNL     1       1.816   4.529  20.922  0.00  0.00    +0.000 C 
ATOM      7  C   UNL     1       3.650   4.751  19.184  0.00  0.00    +0.000 C 
ATOM      8  O   UNL     1       4.646   5.203  19.737  0.00  0.00    +0.000 OA
ATOM      9  H   UNL     1       0.516   4.070  18.570  0.00  0.00    +0.000 HD
ENDROOT
BRANCH   5  10
ATOM     10  C   UNL     1       1.912   6.592  19.375  0.00  0.00    +0.000 A 
ATOM     11  C   UNL     1       1.426   7.378  20.439  0.00  0.00    +0.000 A 
ATOM     12  C   UNL     1       1.247   8.760  20.305  0.00  0.00    +0.000 A 
ATOM     13  C   UNL     1       1.560   9.397  19.104  0.00  0.00    +0.000 A 
ATOM     14  C   UNL     1       2.052   8.638  18.039  0.00  0.00    +0.000 A 
ATOM     15  C   UNL     1       2.230   7.255  18.174  0.00  0.00    +0.000 A 
BRANCH  13  16
ATOM     16  C   UNL     1       1.392  10.813  18.973  0.00  0.00    +0.000 C 
ATOM     17  N   UNL     1       1.249  11.965  18.862  0.00  0.00    +0.000 NA
ENDBRANCH  13  16
ENDBRANCH   5  10
BRANCH   1  18
ATOM     18  C   UNL     1       4.833   3.231  17.573  0.00  0.00    +0.000 C 
BRANCH  18  19
ATOM     19  C   UNL     1       5.473   4.248  16.621  0.00  0.00    +0.000 C 
ATOM     20  O   UNL     1       5.266   4.232  15.406  0.00  0.00    +0.000 OA
BRANCH  19  24
ATOM     21  C   UNL     1       7.930   7.407  18.279  0.00  0.00    +0.000 A 
ATOM     22  C   UNL     1       6.916   7.684  17.364  0.00  0.00    +0.000 A 
ATOM     23  C   UNL     1       6.138   6.650  16.828  0.00  0.00    +0.000 A 
ATOM     24  C   UNL     1       6.373   5.314  17.188  0.00  0.00    +0.000 A 
ATOM     25  C   UNL     1       7.425   5.037  18.070  0.00  0.00    +0.000 A 
ATOM     26  C   UNL     1       8.198   6.079  18.614  0.00  0.00    +0.000 A 
BRANCH  21  28
ATOM     27  C   UNL     1       8.492   9.686  17.972  0.00  0.00    +0.000 C 
ATOM     28  O   UNL     1       8.614   8.496  18.744  0.00  0.00    +0.000 OA
ENDBRANCH  21  28
ENDBRANCH  19  24
ENDBRANCH  18  19
ENDBRANCH   1  18
TORSDOF 6
ENDMDL
MODEL 4
REMARK VINA RESULT:      -7.3      2.463      5.892
REMARK  Name = 
REMARK  8 active torsions:
REMARK  status: ('A' for Active; 'I' for Inactive)
REMARK    1  A    between atoms: C_1  and  O_2
REMARK    2  A    between atoms: O_2  and  C_3
REMARK    3  A    between atoms: C_6  and  C_7
REMARK    4  A    between atoms: C_7  and  C_9
REMARK    5  A    between atoms: C_9  and  N_10
REMARK    6  A    between atoms: C_14  and  C_15
REMARK    7  A    between atoms: C_14  and  C_16
REMARK    8  A    between atoms: C_19  and  C_20
REMARK                            x       y       z     vdW  Elec       q    Type
REMARK                         _______ _______ _______ _____ _____    ______ ____
ROOT
ATOM      1  N   UNL     1       4.305   4.802  18.203  0.00  0.00    +0.000 N 
ATOM      2  C   UNL     1       5.152   3.963  18.858  0.00  0.00    +0.000 C 
ATOM      3  O   UNL     1       4.856   2.966  19.494  0.00  0.00    +0.000 OA
ATOM      4  N   UNL     1       6.448   4.373  18.627  0.00  0.00    +0.000 N 
ATOM      5  C   UNL     1       6.524   5.300  17.516  0.00  0.00    +0.000 C 
ATOM      6  C   UNL     1       7.070   4.510  16.315  0.00  0.00    +0.000 C 
ATOM      7  C   UNL     1       5.010   5.587  17.331  0.00  0.00    +0.000 C 
ATOM      8  O   UNL     1       4.522   6.338  16.495  0.00  0.00    +0.000 OA
ATOM      9  H   UNL     1       7.218   3.800  18.943  0.00  0.00    +0.000 HD
ENDROOT
BRANCH   5  10
ATOM     10  C   UNL     1       7.291   6.581  17.840  0.00  0.00    +0.000 A 
ATOM     11  C   UNL     1       7.107   7.761  17.091  0.00  0.00    +0.000 A 
ATOM     12  C   UNL     1       7.758   8.953  17.434  0.00  0.00    +0.000 A 
ATOM     13  C   UNL     1       8.603   9.000  18.543  0.00  0.00    +0.000 A 
ATOM     14  C   UNL     1       8.792   7.843  19.304  0.00  0.00    +0.000 A 
ATOM     15  C   UNL     1       8.141   6.652  18.960  0.00  0.00    +0.000 A 
BRANCH  13  16
ATOM     16  C   UNL     1       9.255  10.223  18.901  0.00  0.00    +0.000 C 
ATOM     17  N   UNL     1       9.789  11.216  19.200  0.00  0.00    +0.000 NA
ENDBRANCH  13  16
ENDBRANCH   5  10
BRANCH   1  18
ATOM     18  C   UNL     1       2.860   4.802  18.361  0.00  0.00    +0.000 C 
BRANCH  18  19
ATOM     19  C   UNL     1       2.456   5.585  19.616  0.00  0.00    +0.000 C 
ATOM     20  O   UNL     1       2.462   5.077  20.739  0.00  0.00    +0.000 OA
BRANCH  19  24
ATOM     21  C   UNL     1       1.214   9.700  19.077  0.00  0.00    +0.000 A 
ATOM     22  C   UNL     1       1.729   8.955  18.017  0.00  0.00    +0.000 A 
ATOM     23  C   UNL     1       2.136   7.629  18.211  0.00  0.00    +0.000 A 
ATOM     24  C   UNL     1       2.052   7.029  19.477  0.00  0.00    +0.000 A 
ATOM     25  C   UNL     1       1.580   7.798  20.549  0.00  0.00    +0.000 A 
ATOM     26  C   UNL     1       1.162   9.126  20.348  0.00  0.00    +0.000 A 
BRANCH  21  28
ATOM     27  C   UNL     1       1.894  11.914  18.586  0.00  0.00    +0.000 C 
ATOM     28  O   UNL     1       0.837  10.977  18.767  0.00  0.00    +0.000 OA
ENDBRANCH  21  28
ENDBRANCH  19  24
ENDBRANCH  18  19
ENDBRANCH   1  18
TORSDOF 6
ENDMDL
MODEL 5
REMARK VINA RESULT:      -7.3      2.454      5.973
REMARK  Name = 
REMARK  8 active torsions:
REMARK  status: ('A' for Active; 'I' for Inactive)
REMARK    1  A    between atoms: C_1  and  O_2
REMARK    2  A    between atoms: O_2  and  C_3
REMARK    3  A    between atoms: C_6  and  C_7
REMARK    4  A    between atoms: C_7  and  C_9
REMARK    5  A    between atoms: C_9  and  N_10
REMARK    6  A    between atoms: C_14  and  C_15
REMARK    7  A    between atoms: C_14  and  C_16
REMARK    8  A    between atoms: C_19  and  C_20
REMARK                            x       y       z     vdW  Elec       q    Type
REMARK                         _______ _______ _______ _____ _____    ______ ____
ROOT
ATOM      1  N   UNL     1       4.278   4.680  18.289  0.00  0.00    +0.000 N 
ATOM      2  C   UNL     1       5.147   3.861  18.940  0.00  0.00    +0.000 C 
ATOM      3  O   UNL     1       4.875   2.872  19.599  0.00  0.00    +0.000 OA
ATOM      4  N   UNL     1       6.434   4.281  18.676  0.00  0.00    +0.000 N 
ATOM      5  C   UNL     1       6.478   5.190  17.548  0.00  0.00    +0.000 C 
ATOM      6  C   UNL     1       7.009   4.385  16.351  0.00  0.00    +0.000 C 
ATOM      7  C   UNL     1       4.958   5.457  17.390  0.00  0.00    +0.000 C 
ATOM      8  O   UNL     1       4.445   6.189  16.551  0.00  0.00    +0.000 OA
ATOM      9  H   UNL     1       7.216   3.722  18.987  0.00  0.00    +0.000 HD
ENDROOT
BRANCH   5  10
ATOM     10  C   UNL     1       7.237   6.484  17.836  0.00  0.00    +0.000 A 
ATOM     11  C   UNL     1       7.042   7.642  17.057  0.00  0.00    +0.000 A 
ATOM     12  C   UNL     1       7.686   8.847  17.365  0.00  0.00    +0.000 A 
ATOM     13  C   UNL     1       8.535   8.929  18.469  0.00  0.00    +0.000 A 
ATOM     14  C   UNL     1       8.735   7.795  19.260  0.00  0.00    +0.000 A 
ATOM     15  C   UNL     1       8.091   6.590  18.950  0.00  0.00    +0.000 A 
BRANCH  13  16
ATOM     16  C   UNL     1       9.180  10.166  18.793  0.00  0.00    +0.000 C 
ATOM     17  N   UNL     1       9.698  11.175  19.061  0.00  0.00    +0.000 NA
ENDBRANCH  13  16
ENDBRANCH   5  10
BRANCH   1  18
ATOM     18  C   UNL     1       2.836   4.667  18.476  0.00  0.00    +0.000 C 
BRANCH  18  19
ATOM     19  C   UNL     1       2.445   5.510  19.695  0.00  0.00    +0.000 C 
ATOM     20  O   UNL     1       2.479   5.062  20.843  0.00  0.00    +0.000 OA
BRANCH  19  24
ATOM     21  C   UNL     1       1.293   9.661  19.240  0.00  0.00    +0.000 A 
ATOM     22  C   UNL     1       1.170   9.006  20.464  0.00  0.00    +0.000 A 
ATOM     23  C   UNL     1       1.536   7.660  20.591  0.00  0.00    +0.000 A 
ATOM     24  C   UNL     1       2.018   6.940  19.488  0.00  0.00    +0.000 A 
ATOM     25  C   UNL     1       2.094   7.589  18.250  0.00  0.00    +0.000 A 
ATOM     26  C   UNL     1       1.734   8.944  18.127  0.00  0.00    +0.000 A 
BRANCH  21  28
ATOM     27  C   UNL     1       0.655  11.552  20.514  0.00  0.00    +0.000 C 
ATOM     28  O   UNL     1       0.918  10.976  19.239  0.00  0.00    +0.000 OA
ENDBRANCH  21  28
ENDBRANCH  19  24
ENDBRANCH  18  19
ENDBRANCH   1  18
TORSDOF 6
ENDMDL
MODEL 6
REMARK VINA RESULT:      -7.0      2.456      5.941
REMARK  Name = 
REMARK  8 active torsions:
REMARK  status: ('A' for Active; 'I' for Inactive)
REMARK    1  A    between atoms: C_1  and  O_2
REMARK    2  A    between atoms: O_2  and  C_3
REMARK    3  A    between atoms: C_6  and  C_7
REMARK    4  A    between atoms: C_7  and  C_9
REMARK    5  A    between atoms: C_9  and  N_10
REMARK    6  A    between atoms: C_14  and  C_15
REMARK    7  A    between atoms: C_14  and  C_16
REMARK    8  A    between atoms: C_19  and  C_20
REMARK                            x       y       z     vdW  Elec       q    Type
REMARK                         _______ _______ _______ _____ _____    ______ ____
ROOT
ATOM      1  N   UNL     1       4.276   4.640  18.308  0.00  0.00    +0.000 N 
ATOM      2  C   UNL     1       5.166   3.865  18.983  0.00  0.00    +0.000 C 
ATOM      3  O   UNL     1       4.925   2.863  19.636  0.00  0.00    +0.000 OA
ATOM      4  N   UNL     1       6.438   4.347  18.754  0.00  0.00    +0.000 N 
ATOM      5  C   UNL     1       6.467   5.257  17.626  0.00  0.00    +0.000 C 
ATOM      6  C   UNL     1       7.069   4.479  16.444  0.00  0.00    +0.000 C 
ATOM      7  C   UNL     1       4.941   5.449  17.426  0.00  0.00    +0.000 C 
ATOM      8  O   UNL     1       4.415   6.155  16.573  0.00  0.00    +0.000 OA
ATOM      9  H   UNL     1       7.238   3.826  19.086  0.00  0.00    +0.000 HD
ENDROOT
BRANCH   5  10
ATOM     10  C   UNL     1       7.154   6.586  17.932  0.00  0.00    +0.000 A 
ATOM     11  C   UNL     1       8.113   6.703  18.958  0.00  0.00    +0.000 A 
ATOM     12  C   UNL     1       8.793   7.905  19.191  0.00  0.00    +0.000 A 
ATOM     13  C   UNL     1       8.540   9.022  18.395  0.00  0.00    +0.000 A 
ATOM     14  C   UNL     1       7.600   8.925  17.365  0.00  0.00    +0.000 A 
ATOM     15  C   UNL     1       6.920   7.722  17.134  0.00  0.00    +0.000 A 
BRANCH  13  16
ATOM     16  C   UNL     1       9.248  10.246  18.623  0.00  0.00    +0.000 C 
ATOM     17  N   UNL     1       9.828  11.238  18.815  0.00  0.00    +0.000 NA
ENDBRANCH  13  16
ENDBRANCH   5  10
BRANCH   1  18
ATOM     18  C   UNL     1       2.832   4.557  18.456  0.00  0.00    +0.000 C 
BRANCH  18  19
ATOM     19  C   UNL     1       2.377   5.305  19.714  0.00  0.00    +0.000 C 
ATOM     20  O   UNL     1       2.303   4.756  20.815  0.00  0.00    +0.000 OA
BRANCH  19  24
ATOM     21  C   UNL     1       1.274   9.471  19.267  0.00  0.00    +0.000 A 
ATOM     22  C   UNL     1       1.768   8.733  18.192  0.00  0.00    +0.000 A 
ATOM     23  C   UNL     1       2.130   7.390  18.357  0.00  0.00    +0.000 A 
ATOM     24  C   UNL     1       2.022   6.765  19.608  0.00  0.00    +0.000 A 
ATOM     25  C   UNL     1       1.571   7.524  20.695  0.00  0.00    +0.000 A 
ATOM     26  C   UNL     1       1.198   8.870  20.525  0.00  0.00    +0.000 A 
BRANCH  21  28
ATOM     27  C   UNL     1       0.928  11.662  20.092  0.00  0.00    +0.000 C 
ATOM     28  O   UNL     1       0.941  10.766  18.986  0.00  0.00    +0.000 OA
ENDBRANCH  21  28
ENDBRANCH  19  24
ENDBRANCH  18  19
ENDBRANCH   1  18
TORSDOF 6
ENDMDL
MODEL 7
REMARK VINA RESULT:      -7.0      2.388      3.900
REMARK  Name = 
REMARK  8 active torsions:
REMARK  status: ('A' for Active; 'I' for Inactive)
REMARK    1  A    between atoms: C_1  and  O_2
REMARK    2  A    between atoms: O_2  and  C_3
REMARK    3  A    between atoms: C_6  and  C_7
REMARK    4  A    between atoms: C_7  and  C_9
REMARK    5  A    between atoms: C_9  and  N_10
REMARK    6  A    between atoms: C_14  and  C_15
REMARK    7  A    between atoms: C_14  and  C_16
REMARK    8  A    between atoms: C_19  and  C_20
REMARK                            x       y       z     vdW  Elec       q    Type
REMARK                         _______ _______ _______ _____ _____    ______ ____
ROOT
ATOM      1  N   UNL     1       4.275   4.741  17.981  0.00  0.00    +0.000 N 
ATOM      2  C   UNL     1       3.072   4.231  17.604  0.00  0.00    +0.000 C 
ATOM      3  O   UNL     1       2.873   3.278  16.871  0.00  0.00    +0.000 OA
ATOM      4  N   UNL     1       2.073   4.925  18.254  0.00  0.00    +0.000 N 
ATOM      5  C   UNL     1       2.596   5.698  19.364  0.00  0.00    +0.000 C 
ATOM      6  C   UNL     1       2.236   4.932  20.647  0.00  0.00    +0.000 C 
ATOM      7  C   UNL     1       4.112   5.566  19.061  0.00  0.00    +0.000 C 
ATOM      8  O   UNL     1       5.018   6.061  19.723  0.00  0.00    +0.000 OA
ATOM      9  H   UNL     1       1.116   4.610  18.182  0.00  0.00    +0.000 HD
ENDROOT
BRANCH   5  10
ATOM     10  C   UNL     1       2.157   7.161  19.349  0.00  0.00    +0.000 A 
ATOM     11  C   UNL     1       2.273   7.955  18.191  0.00  0.00    +0.000 A 
ATOM     12  C   UNL     1       1.805   9.275  18.159  0.00  0.00    +0.000 A 
ATOM     13  C   UNL     1       1.198   9.834  19.284  0.00  0.00    +0.000 A 
ATOM     14  C   UNL     1       1.065   9.061  20.440  0.00  0.00    +0.000 A 
ATOM     15  C   UNL     1       1.534   7.741  20.471  0.00  0.00    +0.000 A 
BRANCH  13  16
ATOM     16  C   UNL     1       0.706  11.178  19.245  0.00  0.00    +0.000 C 
ATOM     17  N   UNL     1       0.313  12.275  19.211  0.00  0.00    +0.000 NA
ENDBRANCH  13  16
ENDBRANCH   5  10
BRANCH   1  18
ATOM     18  C   UNL     1       5.546   4.394  17.367  0.00  0.00    +0.000 C 
BRANCH  18  19
ATOM     19  C   UNL     1       5.861   5.346  16.208  0.00  0.00    +0.000 C 
ATOM     20  O   UNL     1       5.942   6.566  16.363  0.00  0.00    +0.000 OA
BRANCH  19  24
ATOM     21  C   UNL     1       6.682   3.665  12.301  0.00  0.00    +0.000 A 
ATOM     22  C   UNL     1       7.581   4.533  12.919  0.00  0.00    +0.000 A 
ATOM     23  C   UNL     1       7.295   5.077  14.178  0.00  0.00    +0.000 A 
ATOM     24  C   UNL     1       6.093   4.774  14.834  0.00  0.00    +0.000 A 
ATOM     25  C   UNL     1       5.172   3.940  14.188  0.00  0.00    +0.000 A 
ATOM     26  C   UNL     1       5.466   3.388  12.928  0.00  0.00    +0.000 A 
BRANCH  21  28
ATOM     27  C   UNL     1       7.279   1.780  11.000  0.00  0.00    +0.000 C 
ATOM     28  O   UNL     1       7.074   3.186  11.081  0.00  0.00    +0.000 OA
ENDBRANCH  21  28
ENDBRANCH  19  24
ENDBRANCH  18  19
ENDBRANCH   1  18
TORSDOF 6
ENDMDL
MODEL 8
REMARK VINA RESULT:      -7.0      0.638      1.455
REMARK  Name = 
REMARK  8 active torsions:
REMARK  status: ('A' for Active; 'I' for Inactive)
REMARK    1  A    between atoms: C_1  and  O_2
REMARK    2  A    between atoms: O_2  and  C_3
REMARK    3  A    between atoms: C_6  and  C_7
REMARK    4  A    between atoms: C_7  and  C_9
REMARK    5  A    between atoms: C_9  and  N_10
REMARK    6  A    between atoms: C_14  and  C_15
REMARK    7  A    between atoms: C_14  and  C_16
REMARK    8  A    between atoms: C_19  and  C_20
REMARK                            x       y       z     vdW  Elec       q    Type
REMARK                         _______ _______ _______ _____ _____    ______ ____
ROOT
ATOM      1  N   UNL     1       3.822   3.825  18.361  0.00  0.00    +0.000 N 
ATOM      2  C   UNL     1       2.581   3.423  17.976  0.00  0.00    +0.000 C 
ATOM      3  O   UNL     1       2.294   2.416  17.350  0.00  0.00    +0.000 OA
ATOM      4  N   UNL     1       1.651   4.308  18.480  0.00  0.00    +0.000 N 
ATOM      5  C   UNL     1       2.219   5.143  19.519  0.00  0.00    +0.000 C 
ATOM      6  C   UNL     1       1.708   4.591  20.860  0.00  0.00    +0.000 C 
ATOM      7  C   UNL     1       3.718   4.792  19.325  0.00  0.00    +0.000 C 
ATOM      8  O   UNL     1       4.649   5.251  19.976  0.00  0.00    +0.000 OA
ATOM      9  H   UNL     1       0.665   4.104  18.388  0.00  0.00    +0.000 HD
ENDROOT
BRANCH   5  10
ATOM     10  C   UNL     1       1.972   6.635  19.307  0.00  0.00    +0.000 A 
ATOM     11  C   UNL     1       1.524   7.466  20.354  0.00  0.00    +0.000 A 
ATOM     12  C   UNL     1       1.366   8.846  20.177  0.00  0.00    +0.000 A 
ATOM     13  C   UNL     1       1.661   9.436  18.947  0.00  0.00    +0.000 A 
ATOM     14  C   UNL     1       2.115   8.632  17.898  0.00  0.00    +0.000 A 
ATOM     15  C   UNL     1       2.273   7.251  18.077  0.00  0.00    +0.000 A 
BRANCH  13  16
ATOM     16  C   UNL     1       1.515  10.849  18.771  0.00  0.00    +0.000 C 
ATOM     17  N   UNL     1       1.394  12.001  18.637  0.00  0.00    +0.000 NA
ENDBRANCH  13  16
ENDBRANCH   5  10
BRANCH   1  18
ATOM     18  C   UNL     1       5.064   3.252  17.868  0.00  0.00    +0.000 C 
BRANCH  18  19
ATOM     19  C   UNL     1       5.629   4.100  16.722  0.00  0.00    +0.000 C 
ATOM     20  O   UNL     1       5.682   3.686  15.563  0.00  0.00    +0.000 OA
BRANCH  19  24
ATOM     21  C   UNL     1       7.205   8.054  17.529  0.00  0.00    +0.000 A 
ATOM     22  C   UNL     1       7.867   6.908  17.966  0.00  0.00    +0.000 A 
ATOM     23  C   UNL     1       7.338   5.637  17.706  0.00  0.00    +0.000 A 
ATOM     24  C   UNL     1       6.124   5.491  17.018  0.00  0.00    +0.000 A 
ATOM     25  C   UNL     1       5.439   6.647  16.624  0.00  0.00    +0.000 A 
ATOM     26  C   UNL     1       5.978   7.922  16.877  0.00  0.00    +0.000 A 
BRANCH  21  28
ATOM     27  C   UNL     1       8.840   9.177  18.821  0.00  0.00    +0.000 C 
ATOM     28  O   UNL     1       7.822   9.237  17.827  0.00  0.00    +0.000 OA
ENDBRANCH  21  28
ENDBRANCH  19  24
ENDBRANCH  18  19
ENDBRANCH   1  18
TORSDOF 6
ENDMDL
MODEL 9
REMARK VINA RESULT:      -6.8      2.556      4.269
REMARK  Name = 
REMARK  8 active torsions:
REMARK  status: ('A' for Active; 'I' for Inactive)
REMARK    1  A    between atoms: C_1  and  O_2
REMARK    2  A    between atoms: O_2  and  C_3
REMARK    3  A    between atoms: C_6  and  C_7
REMARK    4  A    between atoms: C_7  and  C_9
REMARK    5  A    between atoms: C_9  and  N_10
REMARK    6  A    between atoms: C_14  and  C_15
REMARK    7  A    between atoms: C_14  and  C_16
REMARK    8  A    between atoms: C_19  and  C_20
REMARK                            x       y       z     vdW  Elec       q    Type
REMARK                         _______ _______ _______ _____ _____    ______ ____
ROOT
ATOM      1  N   UNL     1       5.322   6.472  17.738  0.00  0.00    +0.000 N 
ATOM      2  C   UNL     1       4.611   6.928  16.673  0.00  0.00    +0.000 C 
ATOM      3  O   UNL     1       5.028   7.151  15.549  0.00  0.00    +0.000 OA
ATOM      4  N   UNL     1       3.285   7.035  17.038  0.00  0.00    +0.000 N 
ATOM      5  C   UNL     1       3.010   6.314  18.265  0.00  0.00    +0.000 C 
ATOM      6  C   UNL     1       2.297   5.013  17.865  0.00  0.00    +0.000 C 
ATOM      7  C   UNL     1       4.468   6.018  18.707  0.00  0.00    +0.000 C 
ATOM      8  O   UNL     1       4.798   5.415  19.722  0.00  0.00    +0.000 OA
ATOM      9  H   UNL     1       2.589   7.253  16.338  0.00  0.00    +0.000 HD
ENDROOT
BRANCH   5  10
ATOM     10  C   UNL     1       2.276   7.149  19.312  0.00  0.00    +0.000 A 
ATOM     11  C   UNL     1       1.915   8.489  19.067  0.00  0.00    +0.000 A 
ATOM     12  C   UNL     1       1.180   9.231  20.001  0.00  0.00    +0.000 A 
ATOM     13  C   UNL     1       0.777   8.648  21.203  0.00  0.00    +0.000 A 
ATOM     14  C   UNL     1       1.117   7.318  21.461  0.00  0.00    +0.000 A 
ATOM     15  C   UNL     1       1.852   6.577  20.527  0.00  0.00    +0.000 A 
BRANCH  13  16
ATOM     16  C   UNL     1       0.012   9.402  22.149  0.00  0.00    +0.000 C 
ATOM     17  N   UNL     1      -0.612  10.009  22.925  0.00  0.00    +0.000 NA
ENDBRANCH  13  16
ENDBRANCH   5  10
BRANCH   1  18
ATOM     18  C   UNL     1       6.774   6.411  17.794  0.00  0.00    +0.000 C 
BRANCH  18  19
ATOM     19  C   UNL     1       7.275   5.057  17.277  0.00  0.00    +0.000 C 
ATOM     20  O   UNL     1       7.864   4.254  18.002  0.00  0.00    +0.000 OA
BRANCH  19  24
ATOM     21  C   UNL     1       6.401   4.007  13.166  0.00  0.00    +0.000 A 
ATOM     22  C   UNL     1       5.701   3.430  14.225  0.00  0.00    +0.000 A 
ATOM     23  C   UNL     1       6.004   3.772  15.549  0.00  0.00    +0.000 A 
ATOM     24  C   UNL     1       7.027   4.688  15.838  0.00  0.00    +0.000 A 
ATOM     25  C   UNL     1       7.759   5.228  14.773  0.00  0.00    +0.000 A 
ATOM     26  C   UNL     1       7.446   4.890  13.444  0.00  0.00    +0.000 A 
BRANCH  21  28
ATOM     27  C   UNL     1       5.684   2.229  11.778  0.00  0.00    +0.000 C 
ATOM     28  O   UNL     1       6.010   3.608  11.918  0.00  0.00    +0.000 OA
ENDBRANCH  21  28
ENDBRANCH  19  24
ENDBRANCH  18  19
ENDBRANCH   1  18
TORSDOF 6
ENDMDL
