MODEL 1
REMARK VINA RESULT:      -8.0      0.000      0.000
REMARK  Name = 
REMARK  12 active torsions:
REMARK  status: ('A' for Active; 'I' for Inactive)
REMARK    1  A    between atoms: C_1  and  O_2
REMARK    2  A    between atoms: O_2  and  C_3
REMARK    3  A    between atoms: C_6  and  C_7
REMARK    4  A    between atoms: C_7  and  C_8
REMARK    5  A    between atoms: N_12  and  C_13
REMARK    6  A    between atoms: C_14  and  C_15
REMARK    7  A    between atoms: C_15  and  C_16
REMARK    8  A    between atoms: C_18  and  O_19
REMARK    9  A    between atoms: O_19  and  C_20
REMARK   10  A    between atoms: C_21  and  O_22
REMARK   11  A    between atoms: C_23  and  O_24
REMARK   12  A    between atoms: O_24  and  C_25
REMARK                            x       y       z     vdW  Elec       q    Type
REMARK                         _______ _______ _______ _____ _____    ______ ____
ROOT
ATOM      1  C   UNL     1       2.248   4.358  20.056  0.00  0.00    +0.000 A 
ATOM      2  N   UNL     1       1.049   3.814  19.610  0.00  0.00    +0.000 N 
ATOM      3  C   UNL     1       1.251   2.660  18.881  0.00  0.00    +0.000 A 
ATOM      4  N   UNL     1       0.356   1.895  18.375  0.00  0.00    +0.000 NA
ATOM      5  N   UNL     1       2.635   2.529  18.840  0.00  0.00    +0.000 N 
ATOM      6  C   UNL     1       3.307   1.445  18.161  0.00  0.00    +0.000 C 
ATOM      7  C   UNL     1       3.243   3.568  19.581  0.00  0.00    +0.000 A 
ATOM      8  H   UNL     1       0.156   4.152  19.917  0.00  0.00    +0.000 HD
ATOM      9  H   UNL     1      -0.564   2.276  18.597  0.00  0.00    +0.000 HD
ENDROOT
BRANCH   1  10
ATOM     10  C   UNL     1       2.302   5.614  20.868  0.00  0.00    +0.000 C 
BRANCH  10  14
ATOM     11  C   UNL     1       1.632   9.233  18.583  0.00  0.00    +0.000 A 
ATOM     12  C   UNL     1       1.146   9.110  19.883  0.00  0.00    +0.000 A 
ATOM     13  C   UNL     1       1.377   7.948  20.623  0.00  0.00    +0.000 A 
ATOM     14  C   UNL     1       2.081   6.874  20.063  0.00  0.00    +0.000 A 
ATOM     15  C   UNL     1       2.553   6.997  18.749  0.00  0.00    +0.000 A 
ATOM     16  C   UNL     1       2.334   8.171  18.013  0.00  0.00    +0.000 A 
BRANCH  11  18
ATOM     17  C   UNL     1       1.736  11.600  18.630  0.00  0.00    +0.000 C 
ATOM     18  O   UNL     1       1.324  10.412  17.963  0.00  0.00    +0.000 OA
ENDBRANCH  11  18
ENDBRANCH  10  14
ENDBRANCH   1  10
BRANCH   7  19
ATOM     19  C   UNL     1       4.726   3.678  19.787  0.00  0.00    +0.000 C 
BRANCH  19  20
ATOM     20  C   UNL     1       5.476   4.515  18.760  0.00  0.00    +0.000 A 
ATOM     21  C   UNL     1       6.501   5.407  19.115  0.00  0.00    +0.000 A 
ATOM     22  C   UNL     1       7.200   6.135  18.150  0.00  0.00    +0.000 A 
ATOM     23  C   UNL     1       6.899   5.936  16.801  0.00  0.00    +0.000 A 
ATOM     24  C   UNL     1       5.847   5.092  16.413  0.00  0.00    +0.000 A 
ATOM     25  C   UNL     1       5.133   4.398  17.398  0.00  0.00    +0.000 A 
BRANCH  22  26
ATOM     26  O   UNL     1       8.206   6.926  18.634  0.00  0.00    +0.000 OA
ATOM     27  C   UNL     1       8.185   8.289  18.218  0.00  0.00    +0.000 C 
ENDBRANCH  22  26
BRANCH  23  28
ATOM     28  O   UNL     1       7.680   6.495  15.822  0.00  0.00    +0.000 OA
ATOM     29  H   UNL     1       7.057   6.938  15.220  0.00  0.00    +0.000 HD
ENDBRANCH  23  28
BRANCH  24  30
ATOM     30  O   UNL     1       5.647   4.979  15.062  0.00  0.00    +0.000 OA
ATOM     31  C   UNL     1       6.206   3.862  14.392  0.00  0.00    +0.000 C 
ENDBRANCH  24  30
ENDBRANCH  19  20
ENDBRANCH   7  19
TORSDOF 8
ENDMDL
MODEL 2
REMARK VINA RESULT:      -7.9      1.398      1.978
REMARK  Name = 
REMARK  12 active torsions:
REMARK  status: ('A' for Active; 'I' for Inactive)
REMARK    1  A    between atoms: C_1  and  O_2
REMARK    2  A    between atoms: O_2  and  C_3
REMARK    3  A    between atoms: C_6  and  C_7
REMARK    4  A    between atoms: C_7  and  C_8
REMARK    5  A    between atoms: N_12  and  C_13
REMARK    6  A    between atoms: C_14  and  C_15
REMARK    7  A    between atoms: C_15  and  C_16
REMARK    8  A    between atoms: C_18  and  O_19
REMARK    9  A    between atoms: O_19  and  C_20
REMARK   10  A    between atoms: C_21  and  O_22
REMARK   11  A    between atoms: C_23  and  O_24
REMARK   12  A    between atoms: O_24  and  C_25
REMARK                            x       y       z     vdW  Elec       q    Type
REMARK                         _______ _______ _______ _____ _____    ______ ____
ROOT
ATOM      1  C   UNL     1       2.621   4.970  18.102  0.00  0.00    +0.000 A 
ATOM      2  N   UNL     1       1.327   4.462  18.116  0.00  0.00    +0.000 N 
ATOM      3  C   UNL     1       1.308   3.122  18.443  0.00  0.00    +0.000 A 
ATOM      4  N   UNL     1       0.279   2.374  18.589  0.00  0.00    +0.000 NA
ATOM      5  N   UNL     1       2.652   2.793  18.584  0.00  0.00    +0.000 N 
ATOM      6  C   UNL     1       3.110   1.465  18.921  0.00  0.00    +0.000 C 
ATOM      7  C   UNL     1       3.456   3.940  18.390  0.00  0.00    +0.000 A 
ATOM      8  H   UNL     1       0.517   5.048  18.040  0.00  0.00    +0.000 HD
ATOM      9  H   UNL     1      -0.559   2.932  18.422  0.00  0.00    +0.000 HD
ENDROOT
BRANCH   1  10
ATOM     10  C   UNL     1       2.914   6.401  17.774  0.00  0.00    +0.000 C 
BRANCH  10  14
ATOM     11  C   UNL     1       0.970   9.205  20.444  0.00  0.00    +0.000 A 
ATOM     12  C   UNL     1       1.422   7.971  20.910  0.00  0.00    +0.000 A 
ATOM     13  C   UNL     1       2.063   7.076  20.050  0.00  0.00    +0.000 A 
ATOM     14  C   UNL     1       2.241   7.391  18.697  0.00  0.00    +0.000 A 
ATOM     15  C   UNL     1       1.768   8.625  18.230  0.00  0.00    +0.000 A 
ATOM     16  C   UNL     1       1.140   9.530  19.098  0.00  0.00    +0.000 A 
BRANCH  11  18
ATOM     17  C   UNL     1       0.358   9.486  22.715  0.00  0.00    +0.000 C 
ATOM     18  O   UNL     1       0.347   9.981  21.381  0.00  0.00    +0.000 OA
ENDBRANCH  11  18
ENDBRANCH  10  14
ENDBRANCH   1  10
BRANCH   7  19
ATOM     19  C   UNL     1       4.949   3.937  18.534  0.00  0.00    +0.000 C 
BRANCH  19  20
ATOM     20  C   UNL     1       5.730   4.471  17.342  0.00  0.00    +0.000 A 
ATOM     21  C   UNL     1       6.548   5.610  17.423  0.00  0.00    +0.000 A 
ATOM     22  C   UNL     1       7.285   6.058  16.325  0.00  0.00    +0.000 A 
ATOM     23  C   UNL     1       7.237   5.330  15.134  0.00  0.00    +0.000 A 
ATOM     24  C   UNL     1       6.392   4.218  15.002  0.00  0.00    +0.000 A 
ATOM     25  C   UNL     1       5.633   3.805  16.104  0.00  0.00    +0.000 A 
BRANCH  22  26
ATOM     26  O   UNL     1       8.077   7.149  16.561  0.00  0.00    +0.000 OA
ATOM     27  C   UNL     1       7.564   8.106  17.484  0.00  0.00    +0.000 C 
ENDBRANCH  22  26
BRANCH  23  28
ATOM     28  O   UNL     1       8.080   5.635  14.096  0.00  0.00    +0.000 OA
ATOM     29  H   UNL     1       7.871   6.554  13.858  0.00  0.00    +0.000 HD
ENDBRANCH  23  28
BRANCH  24  30
ATOM     30  O   UNL     1       6.432   3.586  13.786  0.00  0.00    +0.000 OA
ATOM     31  C   UNL     1       5.314   3.720  12.923  0.00  0.00    +0.000 C 
ENDBRANCH  24  30
ENDBRANCH  19  20
ENDBRANCH   7  19
TORSDOF 8
ENDMDL
MODEL 3
REMARK VINA RESULT:      -7.8      1.328      1.850
REMARK  Name = 
REMARK  12 active torsions:
REMARK  status: ('A' for Active; 'I' for Inactive)
REMARK    1  A    between atoms: C_1  and  O_2
REMARK    2  A    between atoms: O_2  and  C_3
REMARK    3  A    between atoms: C_6  and  C_7
REMARK    4  A    between atoms: C_7  and  C_8
REMARK    5  A    between atoms: N_12  and  C_13
REMARK    6  A    between atoms: C_14  and  C_15
REMARK    7  A    between atoms: C_15  and  C_16
REMARK    8  A    between atoms: C_18  and  O_19
REMARK    9  A    between atoms: O_19  and  C_20
REMARK   10  A    between atoms: C_21  and  O_22
REMARK   11  A    between atoms: C_23  and  O_24
REMARK   12  A    between atoms: O_24  and  C_25
REMARK                            x       y       z     vdW  Elec       q    Type
REMARK                         _______ _______ _______ _____ _____    ______ ____
ROOT
ATOM      1  C   UNL     1       2.655   4.957  18.090  0.00  0.00    +0.000 A 
ATOM      2  N   UNL     1       1.349   4.479  18.116  0.00  0.00    +0.000 N 
ATOM      3  C   UNL     1       1.301   3.141  18.447  0.00  0.00    +0.000 A 
ATOM      4  N   UNL     1       0.255   2.418  18.603  0.00  0.00    +0.000 NA
ATOM      5  N   UNL     1       2.638   2.780  18.576  0.00  0.00    +0.000 N 
ATOM      6  C   UNL     1       3.067   1.443  18.912  0.00  0.00    +0.000 C 
ATOM      7  C   UNL     1       3.467   3.908  18.372  0.00  0.00    +0.000 A 
ATOM      8  H   UNL     1       0.553   5.085  18.046  0.00  0.00    +0.000 HD
ATOM      9  H   UNL     1      -0.570   2.996  18.443  0.00  0.00    +0.000 HD
ENDROOT
BRANCH   1  10
ATOM     10  C   UNL     1       2.979   6.380  17.756  0.00  0.00    +0.000 C 
BRANCH  10  14
ATOM     11  C   UNL     1       0.999   9.307  20.263  0.00  0.00    +0.000 A 
ATOM     12  C   UNL     1       1.202   9.549  18.905  0.00  0.00    +0.000 A 
ATOM     13  C   UNL     1       1.826   8.597  18.096  0.00  0.00    +0.000 A 
ATOM     14  C   UNL     1       2.283   7.390  18.640  0.00  0.00    +0.000 A 
ATOM     15  C   UNL     1       2.094   7.158  20.009  0.00  0.00    +0.000 A 
ATOM     16  C   UNL     1       1.451   8.109  20.816  0.00  0.00    +0.000 A 
BRANCH  11  18
ATOM     17  C   UNL     1       0.895  11.632  20.702  0.00  0.00    +0.000 C 
ATOM     18  O   UNL     1       0.392  10.324  20.945  0.00  0.00    +0.000 OA
ENDBRANCH  11  18
ENDBRANCH  10  14
ENDBRANCH   1  10
BRANCH   7  19
ATOM     19  C   UNL     1       4.961   3.869  18.503  0.00  0.00    +0.000 C 
BRANCH  19  20
ATOM     20  C   UNL     1       5.743   4.419  17.320  0.00  0.00    +0.000 A 
ATOM     21  C   UNL     1       6.549   5.566  17.412  0.00  0.00    +0.000 A 
ATOM     22  C   UNL     1       7.287   6.029  16.321  0.00  0.00    +0.000 A 
ATOM     23  C   UNL     1       7.254   5.308  15.126  0.00  0.00    +0.000 A 
ATOM     24  C   UNL     1       6.422   4.187  14.981  0.00  0.00    +0.000 A 
ATOM     25  C   UNL     1       5.661   3.760  16.077  0.00  0.00    +0.000 A 
BRANCH  22  26
ATOM     26  O   UNL     1       8.066   7.126  16.569  0.00  0.00    +0.000 OA
ATOM     27  C   UNL     1       7.512   8.101  17.449  0.00  0.00    +0.000 C 
ENDBRANCH  22  26
BRANCH  23  28
ATOM     28  O   UNL     1       8.100   5.628  14.095  0.00  0.00    +0.000 OA
ATOM     29  H   UNL     1       7.596   6.240  13.531  0.00  0.00    +0.000 HD
ENDBRANCH  23  28
BRANCH  24  30
ATOM     30  O   UNL     1       6.476   3.564  13.762  0.00  0.00    +0.000 OA
ATOM     31  C   UNL     1       5.332   3.626  12.925  0.00  0.00    +0.000 C 
ENDBRANCH  24  30
ENDBRANCH  19  20
ENDBRANCH   7  19
TORSDOF 8
ENDMDL
MODEL 4
REMARK VINA RESULT:      -7.7      1.559      3.091
REMARK  Name = 
REMARK  12 active torsions:
REMARK  status: ('A' for Active; 'I' for Inactive)
REMARK    1  A    between atoms: C_1  and  O_2
REMARK    2  A    between atoms: O_2  and  C_3
REMARK    3  A    between atoms: C_6  and  C_7
REMARK    4  A    between atoms: C_7  and  C_8
REMARK    5  A    between atoms: N_12  and  C_13
REMARK    6  A    between atoms: C_14  and  C_15
REMARK    7  A    between atoms: C_15  and  C_16
REMARK    8  A    between atoms: C_18  and  O_19
REMARK    9  A    between atoms: O_19  and  C_20
REMARK   10  A    between atoms: C_21  and  O_22
REMARK   11  A    between atoms: C_23  and  O_24
REMARK   12  A    between atoms: O_24  and  C_25
REMARK                            x       y       z     vdW  Elec       q    Type
REMARK                         _______ _______ _______ _____ _____    ______ ____
ROOT
ATOM      1  C   UNL     1       2.702   5.315  19.932  0.00  0.00    +0.000 A 
ATOM      2  N   UNL     1       2.325   4.831  21.179  0.00  0.00    +0.000 N 
ATOM      3  C   UNL     1       1.804   3.557  21.097  0.00  0.00    +0.000 A 
ATOM      4  N   UNL     1       1.411   2.815  22.065  0.00  0.00    +0.000 NA
ATOM      5  N   UNL     1       1.819   3.277  19.734  0.00  0.00    +0.000 N 
ATOM      6  C   UNL     1       1.346   2.031  19.178  0.00  0.00    +0.000 C 
ATOM      7  C   UNL     1       2.390   4.357  19.023  0.00  0.00    +0.000 A 
ATOM      8  H   UNL     1       2.550   5.308  22.033  0.00  0.00    +0.000 HD
ATOM      9  H   UNL     1       1.545   3.321  22.941  0.00  0.00    +0.000 HD
ENDROOT
BRANCH   1  10
ATOM     10  C   UNL     1       3.295   6.677  19.749  0.00  0.00    +0.000 C 
BRANCH  10  14
ATOM     11  C   UNL     1       0.407   9.763  18.795  0.00  0.00    +0.000 A 
ATOM     12  C   UNL     1       1.232   9.228  17.808  0.00  0.00    +0.000 A 
ATOM     13  C   UNL     1       2.152   8.222  18.115  0.00  0.00    +0.000 A 
ATOM     14  C   UNL     1       2.278   7.749  19.428  0.00  0.00    +0.000 A 
ATOM     15  C   UNL     1       1.459   8.304  20.421  0.00  0.00    +0.000 A 
ATOM     16  C   UNL     1       0.525   9.302  20.107  0.00  0.00    +0.000 A 
BRANCH  11  18
ATOM     17  C   UNL     1      -1.825  10.443  18.387  0.00  0.00    +0.000 C 
ATOM     18  O   UNL     1      -0.436  10.751  18.368  0.00  0.00    +0.000 OA
ENDBRANCH  11  18
ENDBRANCH  10  14
ENDBRANCH   1  10
BRANCH   7  19
ATOM     19  C   UNL     1       2.609   4.346  17.539  0.00  0.00    +0.000 C 
BRANCH  19  20
ATOM     20  C   UNL     1       4.061   4.381  17.085  0.00  0.00    +0.000 A 
ATOM     21  C   UNL     1       4.428   4.483  15.732  0.00  0.00    +0.000 A 
ATOM     22  C   UNL     1       5.768   4.551  15.344  0.00  0.00    +0.000 A 
ATOM     23  C   UNL     1       6.759   4.561  16.327  0.00  0.00    +0.000 A 
ATOM     24  C   UNL     1       6.432   4.409  17.683  0.00  0.00    +0.000 A 
ATOM     25  C   UNL     1       5.084   4.305  18.051  0.00  0.00    +0.000 A 
BRANCH  22  26
ATOM     26  O   UNL     1       5.977   4.701  14.000  0.00  0.00    +0.000 OA
ATOM     27  C   UNL     1       6.085   3.496  13.246  0.00  0.00    +0.000 C 
ENDBRANCH  22  26
BRANCH  23  28
ATOM     28  O   UNL     1       8.067   4.806  15.996  0.00  0.00    +0.000 OA
ATOM     29  H   UNL     1       8.481   5.135  16.813  0.00  0.00    +0.000 HD
ENDBRANCH  23  28
BRANCH  24  30
ATOM     30  O   UNL     1       7.491   4.433  18.553  0.00  0.00    +0.000 OA
ATOM     31  C   UNL     1       7.676   5.589  19.353  0.00  0.00    +0.000 C 
ENDBRANCH  24  30
ENDBRANCH  19  20
ENDBRANCH   7  19
TORSDOF 8
ENDMDL
MODEL 5
REMARK VINA RESULT:      -7.6      1.576      2.211
REMARK  Name = 
REMARK  12 active torsions:
REMARK  status: ('A' for Active; 'I' for Inactive)
REMARK    1  A    between atoms: C_1  and  O_2
REMARK    2  A    between atoms: O_2  and  C_3
REMARK    3  A    between atoms: C_6  and  C_7
REMARK    4  A    between atoms: C_7  and  C_8
REMARK    5  A    between atoms: N_12  and  C_13
REMARK    6  A    between atoms: C_14  and  C_15
REMARK    7  A    between atoms: C_15  and  C_16
REMARK    8  A    between atoms: C_18  and  O_19
REMARK    9  A    between atoms: O_19  and  C_20
REMARK   10  A    between atoms: C_21  and  O_22
REMARK   11  A    between atoms: C_23  and  O_24
REMARK   12  A    between atoms: O_24  and  C_25
REMARK                            x       y       z     vdW  Elec       q    Type
REMARK                         _______ _______ _______ _____ _____    ______ ____
ROOT
ATOM      1  C   UNL     1       2.067   5.988  20.159  0.00  0.00    +0.000 A 
ATOM      2  N   UNL     1       1.507   5.108  21.078  0.00  0.00    +0.000 N 
ATOM      3  C   UNL     1       1.276   3.866  20.523  0.00  0.00    +0.000 A 
ATOM      4  N   UNL     1       0.817   2.826  21.112  0.00  0.00    +0.000 NA
ATOM      5  N   UNL     1       1.665   4.017  19.196  0.00  0.00    +0.000 N 
ATOM      6  C   UNL     1       1.587   2.951  18.224  0.00  0.00    +0.000 C 
ATOM      7  C   UNL     1       2.169   5.321  18.982  0.00  0.00    +0.000 A 
ATOM      8  H   UNL     1       1.428   5.326  22.054  0.00  0.00    +0.000 HD
ATOM      9  H   UNL     1       0.640   3.055  22.091  0.00  0.00    +0.000 HD
ENDROOT
BRANCH   1  10
ATOM     10  C   UNL     1       2.412   7.401  20.513  0.00  0.00    +0.000 C 
BRANCH  10  14
ATOM     11  C   UNL     1      -0.336  10.344  18.914  0.00  0.00    +0.000 A 
ATOM     12  C   UNL     1       0.696   9.831  18.130  0.00  0.00    +0.000 A 
ATOM     13  C   UNL     1       1.570   8.870  18.643  0.00  0.00    +0.000 A 
ATOM     14  C   UNL     1       1.442   8.423  19.965  0.00  0.00    +0.000 A 
ATOM     15  C   UNL     1       0.414   8.956  20.755  0.00  0.00    +0.000 A 
ATOM     16  C   UNL     1      -0.473   9.908  20.232  0.00  0.00    +0.000 A 
BRANCH  11  18
ATOM     17  C   UNL     1      -1.538  12.376  19.112  0.00  0.00    +0.000 C 
ATOM     18  O   UNL     1      -1.111  11.288  18.300  0.00  0.00    +0.000 OA
ENDBRANCH  11  18
ENDBRANCH  10  14
ENDBRANCH   1  10
BRANCH   7  19
ATOM     19  C   UNL     1       2.730   5.785  17.671  0.00  0.00    +0.000 C 
BRANCH  19  20
ATOM     20  C   UNL     1       4.188   5.435  17.414  0.00  0.00    +0.000 A 
ATOM     21  C   UNL     1       5.231   5.881  18.243  0.00  0.00    +0.000 A 
ATOM     22  C   UNL     1       6.557   5.514  18.008  0.00  0.00    +0.000 A 
ATOM     23  C   UNL     1       6.844   4.650  16.949  0.00  0.00    +0.000 A 
ATOM     24  C   UNL     1       5.836   4.227  16.070  0.00  0.00    +0.000 A 
ATOM     25  C   UNL     1       4.516   4.634  16.301  0.00  0.00    +0.000 A 
BRANCH  22  26
ATOM     26  O   UNL     1       7.461   5.979  18.925  0.00  0.00    +0.000 OA
ATOM     27  C   UNL     1       8.123   7.195  18.589  0.00  0.00    +0.000 C 
ENDBRANCH  22  26
BRANCH  23  28
ATOM     28  O   UNL     1       8.103   4.128  16.796  0.00  0.00    +0.000 OA
ATOM     29  H   UNL     1       8.705   4.891  16.851  0.00  0.00    +0.000 HD
ENDBRANCH  23  28
BRANCH  24  30
ATOM     30  O   UNL     1       6.240   3.382  15.069  0.00  0.00    +0.000 OA
ATOM     31  C   UNL     1       6.267   3.878  13.741  0.00  0.00    +0.000 C 
ENDBRANCH  24  30
ENDBRANCH  19  20
ENDBRANCH   7  19
TORSDOF 8
ENDMDL
MODEL 6
REMARK VINA RESULT:      -7.6      0.215      2.279
REMARK  Name = 
REMARK  12 active torsions:
REMARK  status: ('A' for Active; 'I' for Inactive)
REMARK    1  A    between atoms: C_1  and  O_2
REMARK    2  A    between atoms: O_2  and  C_3
REMARK    3  A    between atoms: C_6  and  C_7
REMARK    4  A    between atoms: C_7  and  C_8
REMARK    5  A    between atoms: N_12  and  C_13
REMARK    6  A    between atoms: C_14  and  C_15
REMARK    7  A    between atoms: C_15  and  C_16
REMARK    8  A    between atoms: C_18  and  O_19
REMARK    9  A    between atoms: O_19  and  C_20
REMARK   10  A    between atoms: C_21  and  O_22
REMARK   11  A    between atoms: C_23  and  O_24
REMARK   12  A    between atoms: O_24  and  C_25
REMARK                            x       y       z     vdW  Elec       q    Type
REMARK                         _______ _______ _______ _____ _____    ______ ____
ROOT
ATOM      1  C   UNL     1       2.150   4.294  20.039  0.00  0.00    +0.000 A 
ATOM      2  N   UNL     1       0.990   3.721  19.530  0.00  0.00    +0.000 N 
ATOM      3  C   UNL     1       1.258   2.573  18.813  0.00  0.00    +0.000 A 
ATOM      4  N   UNL     1       0.410   1.788  18.260  0.00  0.00    +0.000 NA
ATOM      5  N   UNL     1       2.645   2.475  18.847  0.00  0.00    +0.000 N 
ATOM      6  C   UNL     1       3.377   1.408  18.206  0.00  0.00    +0.000 C 
ATOM      7  C   UNL     1       3.188   3.528  19.619  0.00  0.00    +0.000 A 
ATOM      8  H   UNL     1       0.074   4.039  19.788  0.00  0.00    +0.000 HD
ATOM      9  H   UNL     1      -0.529   2.147  18.432  0.00  0.00    +0.000 HD
ENDROOT
BRANCH   1  10
ATOM     10  C   UNL     1       2.131   5.549  20.853  0.00  0.00    +0.000 C 
BRANCH  10  14
ATOM     11  C   UNL     1       1.897   9.184  18.506  0.00  0.00    +0.000 A 
ATOM     12  C   UNL     1       1.363   9.129  19.793  0.00  0.00    +0.000 A 
ATOM     13  C   UNL     1       1.454   7.961  20.553  0.00  0.00    +0.000 A 
ATOM     14  C   UNL     1       2.062   6.813  20.027  0.00  0.00    +0.000 A 
ATOM     15  C   UNL     1       2.580   6.868  18.726  0.00  0.00    +0.000 A 
ATOM     16  C   UNL     1       2.503   8.047  17.970  0.00  0.00    +0.000 A 
BRANCH  11  18
ATOM     17  C   UNL     1       1.178  11.437  18.639  0.00  0.00    +0.000 C 
ATOM     18  O   UNL     1       1.728  10.378  17.863  0.00  0.00    +0.000 OA
ENDBRANCH  11  18
ENDBRANCH  10  14
ENDBRANCH   1  10
BRANCH   7  19
ATOM     19  C   UNL     1       4.654   3.673  19.904  0.00  0.00    +0.000 C 
BRANCH  19  20
ATOM     20  C   UNL     1       5.463   4.413  18.850  0.00  0.00    +0.000 A 
ATOM     21  C   UNL     1       5.192   4.306  17.475  0.00  0.00    +0.000 A 
ATOM     22  C   UNL     1       5.925   5.026  16.529  0.00  0.00    +0.000 A 
ATOM     23  C   UNL     1       6.919   5.904  16.967  0.00  0.00    +0.000 A 
ATOM     24  C   UNL     1       7.251   5.998  18.327  0.00  0.00    +0.000 A 
ATOM     25  C   UNL     1       6.528   5.240  19.258  0.00  0.00    +0.000 A 
BRANCH  22  26
ATOM     26  O   UNL     1       5.519   4.863  15.232  0.00  0.00    +0.000 OA
ATOM     27  C   UNL     1       6.228   3.887  14.474  0.00  0.00    +0.000 C 
ENDBRANCH  22  26
BRANCH  23  28
ATOM     28  O   UNL     1       7.534   6.755  16.086  0.00  0.00    +0.000 OA
ATOM     29  H   UNL     1       8.335   6.287  15.793  0.00  0.00    +0.000 HD
ENDBRANCH  23  28
BRANCH  24  30
ATOM     30  O   UNL     1       8.243   6.892  18.633  0.00  0.00    +0.000 OA
ATOM     31  C   UNL     1       8.087   8.238  18.213  0.00  0.00    +0.000 C 
ENDBRANCH  24  30
ENDBRANCH  19  20
ENDBRANCH   7  19
TORSDOF 8
ENDMDL
MODEL 7
REMARK VINA RESULT:      -7.4      1.348      2.874
REMARK  Name = 
REMARK  12 active torsions:
REMARK  status: ('A' for Active; 'I' for Inactive)
REMARK    1  A    between atoms: C_1  and  O_2
REMARK    2  A    between atoms: O_2  and  C_3
REMARK    3  A    between atoms: C_6  and  C_7
REMARK    4  A    between atoms: C_7  and  C_8
REMARK    5  A    between atoms: N_12  and  C_13
REMARK    6  A    between atoms: C_14  and  C_15
REMARK    7  A    between atoms: C_15  and  C_16
REMARK    8  A    between atoms: C_18  and  O_19
REMARK    9  A    between atoms: O_19  and  C_20
REMARK   10  A    between atoms: C_21  and  O_22
REMARK   11  A    between atoms: C_23  and  O_24
REMARK   12  A    between atoms: O_24  and  C_25
REMARK                            x       y       z     vdW  Elec       q    Type
REMARK                         _______ _______ _______ _____ _____    ______ ____
ROOT
ATOM      1  C   UNL     1       2.359   5.305  18.471  0.00  0.00    +0.000 A 
ATOM      2  N   UNL     1       1.154   4.612  18.475  0.00  0.00    +0.000 N 
ATOM      3  C   UNL     1       1.268   3.390  19.106  0.00  0.00    +0.000 A 
ATOM      4  N   UNL     1       0.337   2.538  19.321  0.00  0.00    +0.000 NA
ATOM      5  N   UNL     1       2.613   3.319  19.454  0.00  0.00    +0.000 N 
ATOM      6  C   UNL     1       3.193   2.188  20.139  0.00  0.00    +0.000 C 
ATOM      7  C   UNL     1       3.276   4.510  19.076  0.00  0.00    +0.000 A 
ATOM      8  H   UNL     1       0.291   5.030  18.182  0.00  0.00    +0.000 HD
ATOM      9  H   UNL     1      -0.537   2.905  18.943  0.00  0.00    +0.000 HD
ENDROOT
BRANCH   1  10
ATOM     10  C   UNL     1       2.501   6.657  17.846  0.00  0.00    +0.000 C 
BRANCH  10  14
ATOM     11  C   UNL     1       0.970   9.863  20.327  0.00  0.00    +0.000 A 
ATOM     12  C   UNL     1       1.356   8.647  20.889  0.00  0.00    +0.000 A 
ATOM     13  C   UNL     1       1.864   7.621  20.088  0.00  0.00    +0.000 A 
ATOM     14  C   UNL     1       1.972   7.786  18.701  0.00  0.00    +0.000 A 
ATOM     15  C   UNL     1       1.565   9.004  18.139  0.00  0.00    +0.000 A 
ATOM     16  C   UNL     1       1.071  10.039  18.947  0.00  0.00    +0.000 A 
BRANCH  11  18
ATOM     17  C   UNL     1      -0.259  10.250  22.314  0.00  0.00    +0.000 C 
ATOM     18  O   UNL     1       0.476  10.776  21.215  0.00  0.00    +0.000 OA
ENDBRANCH  11  18
ENDBRANCH  10  14
ENDBRANCH   1  10
BRANCH   7  19
ATOM     19  C   UNL     1       4.724   4.777  19.366  0.00  0.00    +0.000 C 
BRANCH  19  20
ATOM     20  C   UNL     1       5.616   4.976  18.150  0.00  0.00    +0.000 A 
ATOM     21  C   UNL     1       5.618   4.091  17.059  0.00  0.00    +0.000 A 
ATOM     22  C   UNL     1       6.418   4.317  15.938  0.00  0.00    +0.000 A 
ATOM     23  C   UNL     1       7.201   5.472  15.885  0.00  0.00    +0.000 A 
ATOM     24  C   UNL     1       7.264   6.351  16.977  0.00  0.00    +0.000 A 
ATOM     25  C   UNL     1       6.480   6.089  18.108  0.00  0.00    +0.000 A 
BRANCH  22  26
ATOM     26  O   UNL     1       6.280   3.401  14.930  0.00  0.00    +0.000 OA
ATOM     27  C   UNL     1       5.567   3.842  13.778  0.00  0.00    +0.000 C 
ENDBRANCH  22  26
BRANCH  23  28
ATOM     28  O   UNL     1       7.859   5.816  14.733  0.00  0.00    +0.000 OA
ATOM     29  H   UNL     1       8.423   6.571  14.975  0.00  0.00    +0.000 HD
ENDBRANCH  23  28
BRANCH  24  30
ATOM     30  O   UNL     1       8.067   7.449  16.807  0.00  0.00    +0.000 OA
ATOM     31  C   UNL     1       7.952   8.515  17.735  0.00  0.00    +0.000 C 
ENDBRANCH  24  30
ENDBRANCH  19  20
ENDBRANCH   7  19
TORSDOF 8
ENDMDL
MODEL 8
REMARK VINA RESULT:      -7.4      1.587      2.052
REMARK  Name = 
REMARK  12 active torsions:
REMARK  status: ('A' for Active; 'I' for Inactive)
REMARK    1  A    between atoms: C_1  and  O_2
REMARK    2  A    between atoms: O_2  and  C_3
REMARK    3  A    between atoms: C_6  and  C_7
REMARK    4  A    between atoms: C_7  and  C_8
REMARK    5  A    between atoms: N_12  and  C_13
REMARK    6  A    between atoms: C_14  and  C_15
REMARK    7  A    between atoms: C_15  and  C_16
REMARK    8  A    between atoms: C_18  and  O_19
REMARK    9  A    between atoms: O_19  and  C_20
REMARK   10  A    between atoms: C_21  and  O_22
REMARK   11  A    between atoms: C_23  and  O_24
REMARK   12  A    between atoms: O_24  and  C_25
REMARK                            x       y       z     vdW  Elec       q    Type
REMARK                         _______ _______ _______ _____ _____    ______ ____
ROOT
ATOM      1  C   UNL     1       2.373   5.614  19.949  0.00  0.00    +0.000 A 
ATOM      2  N   UNL     1       1.884   4.987  21.089  0.00  0.00    +0.000 N 
ATOM      3  C   UNL     1       1.447   3.706  20.820  0.00  0.00    +0.000 A 
ATOM      4  N   UNL     1       0.989   2.852  21.657  0.00  0.00    +0.000 NA
ATOM      5  N   UNL     1       1.632   3.571  19.448  0.00  0.00    +0.000 N 
ATOM      6  C   UNL     1       1.295   2.370  18.720  0.00  0.00    +0.000 C 
ATOM      7  C   UNL     1       2.220   4.744  18.920  0.00  0.00    +0.000 A 
ATOM      8  H   UNL     1       1.984   5.381  22.006  0.00  0.00    +0.000 HD
ATOM      9  H   UNL     1       0.994   3.269  22.588  0.00  0.00    +0.000 HD
ENDROOT
BRANCH   1  10
ATOM     10  C   UNL     1       2.907   7.012  19.972  0.00  0.00    +0.000 C 
BRANCH  10  14
ATOM     11  C   UNL     1      -0.142  10.037  19.400  0.00  0.00    +0.000 A 
ATOM     12  C   UNL     1       0.039   9.431  20.642  0.00  0.00    +0.000 A 
ATOM     13  C   UNL     1       1.033   8.468  20.827  0.00  0.00    +0.000 A 
ATOM     14  C   UNL     1       1.852   8.074  19.761  0.00  0.00    +0.000 A 
ATOM     15  C   UNL     1       1.654   8.673  18.509  0.00  0.00    +0.000 A 
ATOM     16  C   UNL     1       0.666   9.652  18.329  0.00  0.00    +0.000 A 
BRANCH  11  18
ATOM     17  C   UNL     1      -1.016  11.993  18.388  0.00  0.00    +0.000 C 
ATOM     18  O   UNL     1      -1.157  10.950  19.346  0.00  0.00    +0.000 OA
ENDBRANCH  11  18
ENDBRANCH  10  14
ENDBRANCH   1  10
BRANCH   7  19
ATOM     19  C   UNL     1       2.606   4.896  17.478  0.00  0.00    +0.000 C 
BRANCH  19  20
ATOM     20  C   UNL     1       4.099   4.852  17.185  0.00  0.00    +0.000 A 
ATOM     21  C   UNL     1       5.068   4.814  18.201  0.00  0.00    +0.000 A 
ATOM     22  C   UNL     1       6.431   4.735  17.906  0.00  0.00    +0.000 A 
ATOM     23  C   UNL     1       6.831   4.649  16.571  0.00  0.00    +0.000 A 
ATOM     24  C   UNL     1       5.895   4.737  15.530  0.00  0.00    +0.000 A 
ATOM     25  C   UNL     1       4.535   4.852  15.845  0.00  0.00    +0.000 A 
BRANCH  22  26
ATOM     26  O   UNL     1       7.258   4.654  18.993  0.00  0.00    +0.000 OA
ATOM     27  C   UNL     1       7.864   5.874  19.411  0.00  0.00    +0.000 C 
ENDBRANCH  22  26
BRANCH  23  28
ATOM     28  O   UNL     1       8.140   4.392  16.251  0.00  0.00    +0.000 OA
ATOM     29  H   UNL     1       8.652   5.102  16.676  0.00  0.00    +0.000 HD
ENDBRANCH  23  28
BRANCH  24  30
ATOM     30  O   UNL     1       6.409   4.641  14.263  0.00  0.00    +0.000 OA
ATOM     31  C   UNL     1       5.837   3.693  13.376  0.00  0.00    +0.000 C 
ENDBRANCH  24  30
ENDBRANCH  19  20
ENDBRANCH   7  19
TORSDOF 8
ENDMDL
MODEL 9
REMARK VINA RESULT:      -7.4      1.305      2.807
REMARK  Name = 
REMARK  12 active torsions:
REMARK  status: ('A' for Active; 'I' for Inactive)
REMARK    1  A    between atoms: C_1  and  O_2
REMARK    2  A    between atoms: O_2  and  C_3
REMARK    3  A    between atoms: C_6  and  C_7
REMARK    4  A    between atoms: C_7  and  C_8
REMARK    5  A    between atoms: N_12  and  C_13
REMARK    6  A    between atoms: C_14  and  C_15
REMARK    7  A    between atoms: C_15  and  C_16
REMARK    8  A    between atoms: C_18  and  O_19
REMARK    9  A    between atoms: O_19  and  C_20
REMARK   10  A    between atoms: C_21  and  O_22
REMARK   11  A    between atoms: C_23  and  O_24
REMARK   12  A    between atoms: O_24  and  C_25
REMARK                            x       y       z     vdW  Elec       q    Type
REMARK                         _______ _______ _______ _____ _____    ______ ____
ROOT
ATOM      1  C   UNL     1       2.395   5.239  18.458  0.00  0.00    +0.000 A 
ATOM      2  N   UNL     1       1.172   4.578  18.470  0.00  0.00    +0.000 N 
ATOM      3  C   UNL     1       1.257   3.356  19.104  0.00  0.00    +0.000 A 
ATOM      4  N   UNL     1       0.304   2.529  19.325  0.00  0.00    +0.000 NA
ATOM      5  N   UNL     1       2.601   3.250  19.446  0.00  0.00    +0.000 N 
ATOM      6  C   UNL     1       3.154   2.106  20.132  0.00  0.00    +0.000 C 
ATOM      7  C   UNL     1       3.294   4.421  19.061  0.00  0.00    +0.000 A 
ATOM      8  H   UNL     1       0.319   5.018  18.179  0.00  0.00    +0.000 HD
ATOM      9  H   UNL     1      -0.562   2.918  18.951  0.00  0.00    +0.000 HD
ENDROOT
BRANCH   1  10
ATOM     10  C   UNL     1       2.570   6.585  17.827  0.00  0.00    +0.000 C 
BRANCH  10  14
ATOM     11  C   UNL     1       0.967   9.875  20.146  0.00  0.00    +0.000 A 
ATOM     12  C   UNL     1       1.130   9.987  18.766  0.00  0.00    +0.000 A 
ATOM     13  C   UNL     1       1.633   8.919  18.019  0.00  0.00    +0.000 A 
ATOM     14  C   UNL     1       2.005   7.723  18.647  0.00  0.00    +0.000 A 
ATOM     15  C   UNL     1       1.856   7.622  20.037  0.00  0.00    +0.000 A 
ATOM     16  C   UNL     1       1.335   8.690  20.783  0.00  0.00    +0.000 A 
BRANCH  11  18
ATOM     17  C   UNL     1       0.736  12.232  20.104  0.00  0.00    +0.000 C 
ATOM     18  O   UNL     1       0.482  10.995  20.761  0.00  0.00    +0.000 OA
ENDBRANCH  11  18
ENDBRANCH  10  14
ENDBRANCH   1  10
BRANCH   7  19
ATOM     19  C   UNL     1       4.749   4.650  19.343  0.00  0.00    +0.000 C 
BRANCH  19  20
ATOM     20  C   UNL     1       5.630   4.888  18.126  0.00  0.00    +0.000 A 
ATOM     21  C   UNL     1       5.632   4.030  17.014  0.00  0.00    +0.000 A 
ATOM     22  C   UNL     1       6.421   4.291  15.892  0.00  0.00    +0.000 A 
ATOM     23  C   UNL     1       7.192   5.455  15.862  0.00  0.00    +0.000 A 
ATOM     24  C   UNL     1       7.255   6.308  16.974  0.00  0.00    +0.000 A 
ATOM     25  C   UNL     1       6.483   6.010  18.104  0.00  0.00    +0.000 A 
BRANCH  22  26
ATOM     26  O   UNL     1       6.284   3.398  14.864  0.00  0.00    +0.000 OA
ATOM     27  C   UNL     1       5.500   3.836  13.756  0.00  0.00    +0.000 C 
ENDBRANCH  22  26
BRANCH  23  28
ATOM     28  O   UNL     1       7.837   5.834  14.713  0.00  0.00    +0.000 OA
ATOM     29  H   UNL     1       7.144   5.875  14.031  0.00  0.00    +0.000 HD
ENDBRANCH  23  28
BRANCH  24  30
ATOM     30  O   UNL     1       8.045   7.417  16.825  0.00  0.00    +0.000 OA
ATOM     31  C   UNL     1       7.963   8.438  17.806  0.00  0.00    +0.000 C 
ENDBRANCH  24  30
ENDBRANCH  19  20
ENDBRANCH   7  19
TORSDOF 8
ENDMDL
