MODEL 1
REMARK VINA RESULT:      -9.4      0.000      0.000
REMARK  Name = 
REMARK  7 active torsions:
REMARK  status: ('A' for Active; 'I' for Inactive)
REMARK    1  A    between atoms: C_1  and  C_2
REMARK    2  A    between atoms: C_2  and  C_3
REMARK    3  A    between atoms: C_2  and  N_4
REMARK    4  A    between atoms: C_5  and  C_7
REMARK    5  A    between atoms: C_9  and  C_10
REMARK    6  A    between atoms: C_16  and  C_18
REMARK    7  A    between atoms: C_21  and  C_22
REMARK                            x       y       z     vdW  Elec       q    Type
REMARK                         _______ _______ _______ _____ _____    ______ ____
ROOT
ATOM      1  C   UNL     1       3.932   3.930  18.948  0.00  0.00    +0.000 C 
ATOM      2  C   UNL     1       3.013   2.701  18.750  0.00  0.00    +0.000 C 
ATOM      3  C   UNL     1       2.013   2.505  19.889  0.00  0.00    +0.000 C 
ATOM      4  C   UNL     1       1.280   3.806  20.204  0.00  0.00    +0.000 C 
ATOM      5  C   UNL     1       2.295   4.909  20.479  0.00  0.00    +0.000 C 
ATOM      6  N   UNL     1       3.117   5.124  19.281  0.00  0.00    +0.000 N 
ATOM      7  C   UNL     1       3.325   6.376  18.688  0.00  0.00    +0.000 C 
ATOM      8  O   UNL     1       4.265   6.629  17.936  0.00  0.00    +0.000 OA
ENDROOT
BRANCH   7   9
ATOM      9  C   UNL     1       2.402   7.520  18.950  0.00  0.00    +0.000 A 
ATOM     10  C   UNL     1       2.029   8.318  17.857  0.00  0.00    +0.000 A 
ATOM     11  C   UNL     1       1.199   9.428  18.036  0.00  0.00    +0.000 A 
ATOM     12  C   UNL     1       0.742   9.756  19.312  0.00  0.00    +0.000 A 
ATOM     13  C   UNL     1       1.066   8.937  20.398  0.00  0.00    +0.000 A 
ATOM     14  C   UNL     1       1.850   7.797  20.206  0.00  0.00    +0.000 A 
BRANCH  12  15
ATOM     15  C   UNL     1      -0.061  10.926  19.511  0.00  0.00    +0.000 C 
ATOM     16  N   UNL     1      -0.702  11.876  19.658  0.00  0.00    +0.000 NA
ENDBRANCH  12  15
ENDBRANCH   7   9
BRANCH   1  19
ATOM     17  C   UNL     1       5.915   4.272  15.862  0.00  0.00    +0.000 A 
ATOM     18  C   UNL     1       4.653   3.961  16.424  0.00  0.00    +0.000 A 
ATOM     19  C   UNL     1       4.851   4.034  17.780  0.00  0.00    +0.000 A 
ATOM     20  O   UNL     1       6.156   4.335  18.024  0.00  0.00    +0.000 OA
ATOM     21  N   UNL     1       6.830   4.488  16.823  0.00  0.00    +0.000 NA
BRANCH  17  23
ATOM     22  N   UNL     1       5.484   3.607  13.610  0.00  0.00    +0.000 N 
ATOM     23  C   UNL     1       6.225   4.420  14.439  0.00  0.00    +0.000 C 
ATOM     24  O   UNL     1       7.100   5.181  14.035  0.00  0.00    +0.000 OA
ATOM     25  H   UNL     1       4.714   3.099  14.041  0.00  0.00    +0.000 HD
BRANCH  22  27
ATOM     26  C   UNL     1       6.756   2.550  11.813  0.00  0.00    +0.000 C 
ATOM     27  C   UNL     1       5.684   3.571  12.174  0.00  0.00    +0.000 C 
ATOM     28  C   UNL     1       4.375   3.274  11.446  0.00  0.00    +0.000 C 
ENDBRANCH  22  27
ENDBRANCH  17  23
ENDBRANCH   1  19
TORSDOF 5
ENDMDL
MODEL 2
REMARK VINA RESULT:      -9.0      0.613      1.255
REMARK  Name = 
REMARK  7 active torsions:
REMARK  status: ('A' for Active; 'I' for Inactive)
REMARK    1  A    between atoms: C_1  and  C_2
REMARK    2  A    between atoms: C_2  and  C_3
REMARK    3  A    between atoms: C_2  and  N_4
REMARK    4  A    between atoms: C_5  and  C_7
REMARK    5  A    between atoms: C_9  and  C_10
REMARK    6  A    between atoms: C_16  and  C_18
REMARK    7  A    between atoms: C_21  and  C_22
REMARK                            x       y       z     vdW  Elec       q    Type
REMARK                         _______ _______ _______ _____ _____    ______ ____
ROOT
ATOM      1  C   UNL     1       3.817   3.990  19.165  0.00  0.00    +0.000 C 
ATOM      2  C   UNL     1       2.918   2.775  18.836  0.00  0.00    +0.000 C 
ATOM      3  C   UNL     1       1.759   2.598  19.818  0.00  0.00    +0.000 C 
ATOM      4  C   UNL     1       1.009   3.910  20.022  0.00  0.00    +0.000 C 
ATOM      5  C   UNL     1       1.990   4.999  20.441  0.00  0.00    +0.000 C 
ATOM      6  N   UNL     1       2.981   5.198  19.375  0.00  0.00    +0.000 N 
ATOM      7  C   UNL     1       3.293   6.445  18.818  0.00  0.00    +0.000 C 
ATOM      8  O   UNL     1       4.336   6.682  18.211  0.00  0.00    +0.000 OA
ENDROOT
BRANCH   7   9
ATOM      9  C   UNL     1       2.359   7.603  18.943  0.00  0.00    +0.000 A 
ATOM     10  C   UNL     1       1.878   7.917  20.224  0.00  0.00    +0.000 A 
ATOM     11  C   UNL     1       0.971   8.963  20.409  0.00  0.00    +0.000 A 
ATOM     12  C   UNL     1       0.528   9.701  19.311  0.00  0.00    +0.000 A 
ATOM     13  C   UNL     1       1.041   9.430  18.039  0.00  0.00    +0.000 A 
ATOM     14  C   UNL     1       1.990   8.420  17.868  0.00  0.00    +0.000 A 
BRANCH  12  15
ATOM     15  C   UNL     1      -0.446  10.737  19.486  0.00  0.00    +0.000 C 
ATOM     16  N   UNL     1      -1.228  11.579  19.611  0.00  0.00    +0.000 NA
ENDBRANCH  12  15
ENDBRANCH   7   9
BRANCH   1  19
ATOM     17  C   UNL     1       6.232   4.288  16.399  0.00  0.00    +0.000 A 
ATOM     18  C   UNL     1       4.900   3.988  16.774  0.00  0.00    +0.000 A 
ATOM     19  C   UNL     1       4.898   4.077  18.143  0.00  0.00    +0.000 A 
ATOM     20  O   UNL     1       6.155   4.378  18.572  0.00  0.00    +0.000 OA
ATOM     21  N   UNL     1       6.998   4.513  17.481  0.00  0.00    +0.000 NA
BRANCH  17  23
ATOM     22  N   UNL     1       6.143   3.585  14.119  0.00  0.00    +0.000 N 
ATOM     23  C   UNL     1       6.747   4.417  15.035  0.00  0.00    +0.000 C 
ATOM     24  O   UNL     1       7.667   5.180  14.752  0.00  0.00    +0.000 OA
ATOM     25  H   UNL     1       5.321   3.076  14.440  0.00  0.00    +0.000 HD
BRANCH  22  27
ATOM     26  C   UNL     1       5.370   3.161  11.842  0.00  0.00    +0.000 C 
ATOM     27  C   UNL     1       6.552   3.529  12.729  0.00  0.00    +0.000 C 
ATOM     28  C   UNL     1       7.179   4.849  12.288  0.00  0.00    +0.000 C 
ENDBRANCH  22  27
ENDBRANCH  17  23
ENDBRANCH   1  19
TORSDOF 5
ENDMDL
MODEL 3
REMARK VINA RESULT:      -8.1      1.069      1.284
REMARK  Name = 
REMARK  7 active torsions:
REMARK  status: ('A' for Active; 'I' for Inactive)
REMARK    1  A    between atoms: C_1  and  C_2
REMARK    2  A    between atoms: C_2  and  C_3
REMARK    3  A    between atoms: C_2  and  N_4
REMARK    4  A    between atoms: C_5  and  C_7
REMARK    5  A    between atoms: C_9  and  C_10
REMARK    6  A    between atoms: C_16  and  C_18
REMARK    7  A    between atoms: C_21  and  C_22
REMARK                            x       y       z     vdW  Elec       q    Type
REMARK                         _______ _______ _______ _____ _____    ______ ____
ROOT
ATOM      1  C   UNL     1       3.699   3.991  19.106  0.00  0.00    +0.000 C 
ATOM      2  C   UNL     1       2.751   2.775  18.976  0.00  0.00    +0.000 C 
ATOM      3  C   UNL     1       1.794   2.627  20.159  0.00  0.00    +0.000 C 
ATOM      4  C   UNL     1       1.099   3.948  20.470  0.00  0.00    +0.000 C 
ATOM      5  C   UNL     1       2.143   5.039  20.676  0.00  0.00    +0.000 C 
ATOM      6  N   UNL     1       2.920   5.208  19.441  0.00  0.00    +0.000 N 
ATOM      7  C   UNL     1       3.126   6.441  18.809  0.00  0.00    +0.000 C 
ATOM      8  O   UNL     1       4.039   6.659  18.014  0.00  0.00    +0.000 OA
ENDROOT
BRANCH   7   9
ATOM      9  C   UNL     1       2.234   7.608  19.079  0.00  0.00    +0.000 A 
ATOM     10  C   UNL     1       1.877   8.420  17.990  0.00  0.00    +0.000 A 
ATOM     11  C   UNL     1       1.078   9.551  18.176  0.00  0.00    +0.000 A 
ATOM     12  C   UNL     1       0.636   9.887  19.456  0.00  0.00    +0.000 A 
ATOM     13  C   UNL     1       0.943   9.056  20.538  0.00  0.00    +0.000 A 
ATOM     14  C   UNL     1       1.696   7.896  20.338  0.00  0.00    +0.000 A 
BRANCH  12  15
ATOM     15  C   UNL     1      -0.135  11.077  19.662  0.00  0.00    +0.000 C 
ATOM     16  N   UNL     1      -0.746  12.045  19.820  0.00  0.00    +0.000 NA
ENDBRANCH  12  15
ENDBRANCH   7   9
BRANCH   1  19
ATOM     17  C   UNL     1       5.563   4.228  15.938  0.00  0.00    +0.000 A 
ATOM     18  C   UNL     1       4.315   3.969  16.554  0.00  0.00    +0.000 A 
ATOM     19  C   UNL     1       4.572   4.050  17.900  0.00  0.00    +0.000 A 
ATOM     20  O   UNL     1       5.896   4.308  18.087  0.00  0.00    +0.000 OA
ATOM     21  N   UNL     1       6.524   4.423  16.857  0.00  0.00    +0.000 NA
BRANCH  17  23
ATOM     22  N   UNL     1       7.003   4.974  14.186  0.00  0.00    +0.000 N 
ATOM     23  C   UNL     1       5.818   4.348  14.501  0.00  0.00    +0.000 C 
ATOM     24  O   UNL     1       5.017   3.953  13.658  0.00  0.00    +0.000 OA
ATOM     25  H   UNL     1       7.639   5.162  14.960  0.00  0.00    +0.000 HD
BRANCH  22  27
ATOM     26  C   UNL     1       8.784   5.886  12.785  0.00  0.00    +0.000 C 
ATOM     27  C   UNL     1       7.407   5.235  12.818  0.00  0.00    +0.000 C 
ATOM     28  C   UNL     1       7.385   3.955  11.986  0.00  0.00    +0.000 C 
ENDBRANCH  22  27
ENDBRANCH  17  23
ENDBRANCH   1  19
TORSDOF 5
ENDMDL
MODEL 4
REMARK VINA RESULT:      -7.7      1.332      1.573
REMARK  Name = 
REMARK  7 active torsions:
REMARK  status: ('A' for Active; 'I' for Inactive)
REMARK    1  A    between atoms: C_1  and  C_2
REMARK    2  A    between atoms: C_2  and  C_3
REMARK    3  A    between atoms: C_2  and  N_4
REMARK    4  A    between atoms: C_5  and  C_7
REMARK    5  A    between atoms: C_9  and  C_10
REMARK    6  A    between atoms: C_16  and  C_18
REMARK    7  A    between atoms: C_21  and  C_22
REMARK                            x       y       z     vdW  Elec       q    Type
REMARK                         _______ _______ _______ _____ _____    ______ ____
ROOT
ATOM      1  C   UNL     1       3.516   3.972  19.238  0.00  0.00    +0.000 C 
ATOM      2  C   UNL     1       2.575   2.749  19.135  0.00  0.00    +0.000 C 
ATOM      3  C   UNL     1       1.791   2.481  20.420  0.00  0.00    +0.000 C 
ATOM      4  C   UNL     1       1.128   3.756  20.932  0.00  0.00    +0.000 C 
ATOM      5  C   UNL     1       2.177   4.850  21.087  0.00  0.00    +0.000 C 
ATOM      6  N   UNL     1       2.776   5.139  19.777  0.00  0.00    +0.000 N 
ATOM      7  C   UNL     1       2.879   6.424  19.228  0.00  0.00    +0.000 C 
ATOM      8  O   UNL     1       3.671   6.727  18.339  0.00  0.00    +0.000 OA
ENDROOT
BRANCH   7   9
ATOM      9  C   UNL     1       2.019   7.544  19.714  0.00  0.00    +0.000 A 
ATOM     10  C   UNL     1       1.696   8.560  18.801  0.00  0.00    +0.000 A 
ATOM     11  C   UNL     1       0.928   9.657  19.197  0.00  0.00    +0.000 A 
ATOM     12  C   UNL     1       0.483   9.755  20.515  0.00  0.00    +0.000 A 
ATOM     13  C   UNL     1       0.755   8.722  21.419  0.00  0.00    +0.000 A 
ATOM     14  C   UNL     1       1.476   7.600  21.003  0.00  0.00    +0.000 A 
BRANCH  12  15
ATOM     15  C   UNL     1      -0.255  10.905  20.943  0.00  0.00    +0.000 C 
ATOM     16  N   UNL     1      -0.861  11.833  21.275  0.00  0.00    +0.000 NA
ENDBRANCH  12  15
ENDBRANCH   7   9
BRANCH   1  19
ATOM     17  C   UNL     1       5.548   4.312  16.184  0.00  0.00    +0.000 A 
ATOM     18  C   UNL     1       5.528   4.369  17.598  0.00  0.00    +0.000 A 
ATOM     19  C   UNL     1       4.215   4.149  17.934  0.00  0.00    +0.000 A 
ATOM     20  O   UNL     1       3.483   4.002  16.795  0.00  0.00    +0.000 OA
ATOM     21  N   UNL     1       4.315   4.101  15.692  0.00  0.00    +0.000 NA
BRANCH  17  23
ATOM     22  N   UNL     1       6.460   4.293  13.978  0.00  0.00    +0.000 N 
ATOM     23  C   UNL     1       6.730   4.395  15.324  0.00  0.00    +0.000 C 
ATOM     24  O   UNL     1       7.865   4.508  15.780  0.00  0.00    +0.000 OA
ATOM     25  H   UNL     1       5.479   4.312  13.708  0.00  0.00    +0.000 HD
BRANCH  22  27
ATOM     26  C   UNL     1       7.034   3.579  11.714  0.00  0.00    +0.000 C 
ATOM     27  C   UNL     1       7.505   4.300  12.971  0.00  0.00    +0.000 C 
ATOM     28  C   UNL     1       7.951   5.724  12.653  0.00  0.00    +0.000 C 
ENDBRANCH  22  27
ENDBRANCH  17  23
ENDBRANCH   1  19
TORSDOF 5
ENDMDL
MODEL 5
REMARK VINA RESULT:      -7.3      1.313      1.493
REMARK  Name = 
REMARK  7 active torsions:
REMARK  status: ('A' for Active; 'I' for Inactive)
REMARK    1  A    between atoms: C_1  and  C_2
REMARK    2  A    between atoms: C_2  and  C_3
REMARK    3  A    between atoms: C_2  and  N_4
REMARK    4  A    between atoms: C_5  and  C_7
REMARK    5  A    between atoms: C_9  and  C_10
REMARK    6  A    between atoms: C_16  and  C_18
REMARK    7  A    between atoms: C_21  and  C_22
REMARK                            x       y       z     vdW  Elec       q    Type
REMARK                         _______ _______ _______ _____ _____    ______ ____
ROOT
ATOM      1  C   UNL     1       5.062   4.508  18.338  0.00  0.00    +0.000 C 
ATOM      2  C   UNL     1       4.351   3.161  18.610  0.00  0.00    +0.000 C 
ATOM      3  C   UNL     1       3.588   3.138  19.935  0.00  0.00    +0.000 C 
ATOM      4  C   UNL     1       2.700   4.369  20.076  0.00  0.00    +0.000 C 
ATOM      5  C   UNL     1       3.537   5.628  19.889  0.00  0.00    +0.000 C 
ATOM      6  N   UNL     1       4.114   5.632  18.538  0.00  0.00    +0.000 N 
ATOM      7  C   UNL     1       4.008   6.705  17.643  0.00  0.00    +0.000 C 
ATOM      8  O   UNL     1       4.761   6.876  16.687  0.00  0.00    +0.000 OA
ENDROOT
BRANCH   7   9
ATOM      9  C   UNL     1       2.952   7.748  17.808  0.00  0.00    +0.000 A 
ATOM     10  C   UNL     1       1.628   7.313  17.972  0.00  0.00    +0.000 A 
ATOM     11  C   UNL     1       0.584   8.234  18.093  0.00  0.00    +0.000 A 
ATOM     12  C   UNL     1       0.855   9.601  18.040  0.00  0.00    +0.000 A 
ATOM     13  C   UNL     1       2.176  10.045  17.929  0.00  0.00    +0.000 A 
ATOM     14  C   UNL     1       3.222   9.120  17.865  0.00  0.00    +0.000 A 
BRANCH  12  15
ATOM     15  C   UNL     1      -0.217  10.551  18.104  0.00  0.00    +0.000 C 
ATOM     16  N   UNL     1      -1.073  11.324  18.168  0.00  0.00    +0.000 NA
ENDBRANCH  12  15
ENDBRANCH   7   9
BRANCH   1  19
ATOM     17  C   UNL     1       6.454   4.300  14.934  0.00  0.00    +0.000 A 
ATOM     18  C   UNL     1       5.365   3.987  15.783  0.00  0.00    +0.000 A 
ATOM     19  C   UNL     1       5.757   4.426  17.023  0.00  0.00    +0.000 A 
ATOM     20  O   UNL     1       7.015   4.941  16.936  0.00  0.00    +0.000 OA
ATOM     21  N   UNL     1       7.457   4.867  15.625  0.00  0.00    +0.000 NA
BRANCH  17  23
ATOM     22  N   UNL     1       5.541   3.279  12.979  0.00  0.00    +0.000 N 
ATOM     23  C   UNL     1       6.508   4.119  13.482  0.00  0.00    +0.000 C 
ATOM     24  O   UNL     1       7.373   4.647  12.788  0.00  0.00    +0.000 OA
ATOM     25  H   UNL     1       4.812   2.984  13.626  0.00  0.00    +0.000 HD
BRANCH  22  27
ATOM     26  C   UNL     1       5.968   1.512  11.348  0.00  0.00    +0.000 C 
ATOM     27  C   UNL     1       5.465   2.933  11.572  0.00  0.00    +0.000 C 
ATOM     28  C   UNL     1       4.043   3.102  11.042  0.00  0.00    +0.000 C 
ENDBRANCH  22  27
ENDBRANCH  17  23
ENDBRANCH   1  19
TORSDOF 5
ENDMDL
MODEL 6
REMARK VINA RESULT:      -7.2      3.663      7.474
REMARK  Name = 
REMARK  7 active torsions:
REMARK  status: ('A' for Active; 'I' for Inactive)
REMARK    1  A    between atoms: C_1  and  C_2
REMARK    2  A    between atoms: C_2  and  C_3
REMARK    3  A    between atoms: C_2  and  N_4
REMARK    4  A    between atoms: C_5  and  C_7
REMARK    5  A    between atoms: C_9  and  C_10
REMARK    6  A    between atoms: C_16  and  C_18
REMARK    7  A    between atoms: C_21  and  C_22
REMARK                            x       y       z     vdW  Elec       q    Type
REMARK                         _______ _______ _______ _____ _____    ______ ____
ROOT
ATOM      1  C   UNL     1       1.123  11.731  18.706  0.00  0.00    +0.000 C 
ATOM      2  C   UNL     1       1.743  12.428  19.940  0.00  0.00    +0.000 C 
ATOM      3  C   UNL     1       1.456  13.928  19.995  0.00  0.00    +0.000 C 
ATOM      4  C   UNL     1      -0.028  14.209  19.780  0.00  0.00    +0.000 C 
ATOM      5  C   UNL     1      -0.490  13.556  18.483  0.00  0.00    +0.000 C 
ATOM      6  N   UNL     1      -0.307  12.102  18.579  0.00  0.00    +0.000 N 
ATOM      7  C   UNL     1      -1.314  11.167  18.305  0.00  0.00    +0.000 C 
ATOM      8  O   UNL     1      -1.097   9.988  18.030  0.00  0.00    +0.000 OA
ENDROOT
BRANCH   7   9
ATOM      9  C   UNL     1      -2.756  11.556  18.315  0.00  0.00    +0.000 A 
ATOM     10  C   UNL     1      -3.493  11.351  17.139  0.00  0.00    +0.000 A 
ATOM     11  C   UNL     1      -4.837  11.728  17.065  0.00  0.00    +0.000 A 
ATOM     12  C   UNL     1      -5.453  12.324  18.165  0.00  0.00    +0.000 A 
ATOM     13  C   UNL     1      -4.741  12.485  19.358  0.00  0.00    +0.000 A 
ATOM     14  C   UNL     1      -3.415  12.055  19.445  0.00  0.00    +0.000 A 
BRANCH  12  15
ATOM     15  C   UNL     1      -6.813  12.766  18.077  0.00  0.00    +0.000 C 
ATOM     16  N   UNL     1      -7.914  13.108  17.999  0.00  0.00    +0.000 NA
ENDBRANCH  12  15
ENDBRANCH   7   9
BRANCH   1  19
ATOM     17  C   UNL     1       2.174   8.203  18.583  0.00  0.00    +0.000 A 
ATOM     18  C   UNL     1       2.035   9.417  17.867  0.00  0.00    +0.000 A 
ATOM     19  C   UNL     1       1.450  10.278  18.761  0.00  0.00    +0.000 A 
ATOM     20  O   UNL     1       1.220   9.620  19.930  0.00  0.00    +0.000 OA
ATOM     21  N   UNL     1       1.674   8.315  19.825  0.00  0.00    +0.000 NA
BRANCH  17  23
ATOM     22  N   UNL     1       2.254   5.817  18.568  0.00  0.00    +0.000 N 
ATOM     23  C   UNL     1       2.828   6.981  18.109  0.00  0.00    +0.000 C 
ATOM     24  O   UNL     1       3.825   7.007  17.394  0.00  0.00    +0.000 OA
ATOM     25  H   UNL     1       1.369   5.910  19.064  0.00  0.00    +0.000 HD
BRANCH  22  27
ATOM     26  C   UNL     1       3.734   4.041  19.354  0.00  0.00    +0.000 C 
ATOM     27  C   UNL     1       2.790   4.507  18.253  0.00  0.00    +0.000 C 
ATOM     28  C   UNL     1       1.670   3.495  18.025  0.00  0.00    +0.000 C 
ENDBRANCH  22  27
ENDBRANCH  17  23
ENDBRANCH   1  19
TORSDOF 5
ENDMDL
MODEL 7
REMARK VINA RESULT:      -7.1      3.618      7.532
REMARK  Name = 
REMARK  7 active torsions:
REMARK  status: ('A' for Active; 'I' for Inactive)
REMARK    1  A    between atoms: C_1  and  C_2
REMARK    2  A    between atoms: C_2  and  C_3
REMARK    3  A    between atoms: C_2  and  N_4
REMARK    4  A    between atoms: C_5  and  C_7
REMARK    5  A    between atoms: C_9  and  C_10
REMARK    6  A    between atoms: C_16  and  C_18
REMARK    7  A    between atoms: C_21  and  C_22
REMARK                            x       y       z     vdW  Elec       q    Type
REMARK                         _______ _______ _______ _____ _____    ______ ____
ROOT
ATOM      1  C   UNL     1       1.199  11.668  18.598  0.00  0.00    +0.000 C 
ATOM      2  C   UNL     1       1.860  12.439  19.766  0.00  0.00    +0.000 C 
ATOM      3  C   UNL     1       1.603  13.945  19.717  0.00  0.00    +0.000 C 
ATOM      4  C   UNL     1       0.120  14.241  19.513  0.00  0.00    +0.000 C 
ATOM      5  C   UNL     1      -0.382  13.506  18.276  0.00  0.00    +0.000 C 
ATOM      6  N   UNL     1      -0.226  12.059  18.474  0.00  0.00    +0.000 N 
ATOM      7  C   UNL     1      -1.257  11.128  18.290  0.00  0.00    +0.000 C 
ATOM      8  O   UNL     1      -1.069   9.928  18.097  0.00  0.00    +0.000 OA
ENDROOT
BRANCH   7   9
ATOM      9  C   UNL     1      -2.690  11.547  18.301  0.00  0.00    +0.000 A 
ATOM     10  C   UNL     1      -3.191  12.121  19.481  0.00  0.00    +0.000 A 
ATOM     11  C   UNL     1      -4.532  12.500  19.576  0.00  0.00    +0.000 A 
ATOM     12  C   UNL     1      -5.389  12.300  18.494  0.00  0.00    +0.000 A 
ATOM     13  C   UNL     1      -4.888  11.778  17.297  0.00  0.00    +0.000 A 
ATOM     14  C   UNL     1      -3.534  11.452  17.189  0.00  0.00    +0.000 A 
BRANCH  12  15
ATOM     15  C   UNL     1      -6.778  12.633  18.604  0.00  0.00    +0.000 C 
ATOM     16  N   UNL     1      -7.895  12.918  18.693  0.00  0.00    +0.000 NA
ENDBRANCH  12  15
ENDBRANCH   7   9
BRANCH   1  19
ATOM     17  C   UNL     1       2.181   8.120  18.712  0.00  0.00    +0.000 A 
ATOM     18  C   UNL     1       2.057   9.283  17.915  0.00  0.00    +0.000 A 
ATOM     19  C   UNL     1       1.499  10.217  18.752  0.00  0.00    +0.000 A 
ATOM     20  O   UNL     1       1.270   9.646  19.967  0.00  0.00    +0.000 OA
ATOM     21  N   UNL     1       1.698   8.328  19.948  0.00  0.00    +0.000 NA
BRANCH  17  23
ATOM     22  N   UNL     1       2.281   5.746  18.943  0.00  0.00    +0.000 N 
ATOM     23  C   UNL     1       2.805   6.855  18.319  0.00  0.00    +0.000 C 
ATOM     24  O   UNL     1       3.742   6.806  17.526  0.00  0.00    +0.000 OA
ATOM     25  H   UNL     1       1.438   5.890  19.496  0.00  0.00    +0.000 HD
BRANCH  22  27
ATOM     26  C   UNL     1       2.715   3.590  20.006  0.00  0.00    +0.000 C 
ATOM     27  C   UNL     1       2.803   4.410  18.725  0.00  0.00    +0.000 C 
ATOM     28  C   UNL     1       2.071   3.716  17.579  0.00  0.00    +0.000 C 
ENDBRANCH  22  27
ENDBRANCH  17  23
ENDBRANCH   1  19
TORSDOF 5
ENDMDL
MODEL 8
REMARK VINA RESULT:      -7.1      4.909     11.088
REMARK  Name = 
REMARK  7 active torsions:
REMARK  status: ('A' for Active; 'I' for Inactive)
REMARK    1  A    between atoms: C_1  and  C_2
REMARK    2  A    between atoms: C_2  and  C_3
REMARK    3  A    between atoms: C_2  and  N_4
REMARK    4  A    between atoms: C_5  and  C_7
REMARK    5  A    between atoms: C_9  and  C_10
REMARK    6  A    between atoms: C_16  and  C_18
REMARK    7  A    between atoms: C_21  and  C_22
REMARK                            x       y       z     vdW  Elec       q    Type
REMARK                         _______ _______ _______ _____ _____    ______ ____
ROOT
ATOM      1  C   UNL     1      -0.240  13.504  20.454  0.00  0.00    +0.000 C 
ATOM      2  C   UNL     1      -0.245  14.582  19.345  0.00  0.00    +0.000 C 
ATOM      3  C   UNL     1       1.148  14.890  18.796  0.00  0.00    +0.000 C 
ATOM      4  C   UNL     1       1.891  13.608  18.437  0.00  0.00    +0.000 C 
ATOM      5  C   UNL     1       1.914  12.676  19.643  0.00  0.00    +0.000 C 
ATOM      6  N   UNL     1       0.536  12.321  20.010  0.00  0.00    +0.000 N 
ATOM      7  C   UNL     1       0.087  11.006  20.188  0.00  0.00    +0.000 C 
ATOM      8  O   UNL     1      -0.920  10.708  20.827  0.00  0.00    +0.000 OA
ENDROOT
BRANCH   7   9
ATOM      9  C   UNL     1       0.833   9.849  19.610  0.00  0.00    +0.000 A 
ATOM     10  C   UNL     1       1.207   8.815  20.482  0.00  0.00    +0.000 A 
ATOM     11  C   UNL     1       1.940   7.720  20.017  0.00  0.00    +0.000 A 
ATOM     12  C   UNL     1       2.315   7.654  18.675  0.00  0.00    +0.000 A 
ATOM     13  C   UNL     1       1.902   8.653  17.788  0.00  0.00    +0.000 A 
ATOM     14  C   UNL     1       1.122   9.717  18.247  0.00  0.00    +0.000 A 
BRANCH  12  15
ATOM     15  C   UNL     1       3.117   6.564  18.204  0.00  0.00    +0.000 C 
ATOM     16  N   UNL     1       3.751   5.680  17.814  0.00  0.00    +0.000 NA
ENDBRANCH  12  15
ENDBRANCH   7   9
BRANCH   1  19
ATOM     17  C   UNL     1      -3.762  12.772  21.246  0.00  0.00    +0.000 A 
ATOM     18  C   UNL     1      -2.813  13.036  20.229  0.00  0.00    +0.000 A 
ATOM     19  C   UNL     1      -1.642  13.272  20.903  0.00  0.00    +0.000 A 
ATOM     20  O   UNL     1      -1.874  13.190  22.243  0.00  0.00    +0.000 OA
ATOM     21  N   UNL     1      -3.205  12.874  22.464  0.00  0.00    +0.000 NA
BRANCH  17  23
ATOM     22  N   UNL     1      -5.510  12.152  19.742  0.00  0.00    +0.000 N 
ATOM     23  C   UNL     1      -5.157  12.370  21.055  0.00  0.00    +0.000 C 
ATOM     24  O   UNL     1      -5.945  12.275  21.992  0.00  0.00    +0.000 OA
ATOM     25  H   UNL     1      -4.753  12.153  19.061  0.00  0.00    +0.000 HD
BRANCH  22  27
ATOM     26  C   UNL     1      -7.386  12.788  18.314  0.00  0.00    +0.000 C 
ATOM     27  C   UNL     1      -6.860  11.799  19.347  0.00  0.00    +0.000 C 
ATOM     28  C   UNL     1      -6.921  10.369  18.817  0.00  0.00    +0.000 C 
ENDBRANCH  22  27
ENDBRANCH  17  23
ENDBRANCH   1  19
TORSDOF 5
ENDMDL
MODEL 9
REMARK VINA RESULT:      -7.1      4.782     10.865
REMARK  Name = 
REMARK  7 active torsions:
REMARK  status: ('A' for Active; 'I' for Inactive)
REMARK    1  A    between atoms: C_1  and  C_2
REMARK    2  A    between atoms: C_2  and  C_3
REMARK    3  A    between atoms: C_2  and  N_4
REMARK    4  A    between atoms: C_5  and  C_7
REMARK    5  A    between atoms: C_9  and  C_10
REMARK    6  A    between atoms: C_16  and  C_18
REMARK    7  A    between atoms: C_21  and  C_22
REMARK                            x       y       z     vdW  Elec       q    Type
REMARK                         _______ _______ _______ _____ _____    ______ ____
ROOT
ATOM      1  C   UNL     1      -0.733  12.650  19.363  0.00  0.00    +0.000 C 
ATOM      2  C   UNL     1      -0.289  13.790  18.416  0.00  0.00    +0.000 C 
ATOM      3  C   UNL     1       1.154  14.239  18.647  0.00  0.00    +0.000 C 
ATOM      4  C   UNL     1       2.099  13.043  18.693  0.00  0.00    +0.000 C 
ATOM      5  C   UNL     1       1.607  12.043  19.734  0.00  0.00    +0.000 C 
ATOM      6  N   UNL     1       0.273  11.561  19.352  0.00  0.00    +0.000 N 
ATOM      7  C   UNL     1      -0.073  10.206  19.262  0.00  0.00    +0.000 C 
ATOM      8  O   UNL     1      -1.230   9.791  19.303  0.00  0.00    +0.000 OA
ENDROOT
BRANCH   7   9
ATOM      9  C   UNL     1       0.971   9.148  19.121  0.00  0.00    +0.000 A 
ATOM     10  C   UNL     1       1.633   9.046  17.887  0.00  0.00    +0.000 A 
ATOM     11  C   UNL     1       2.593   8.055  17.672  0.00  0.00    +0.000 A 
ATOM     12  C   UNL     1       2.894   7.147  18.687  0.00  0.00    +0.000 A 
ATOM     13  C   UNL     1       2.279   7.273  19.937  0.00  0.00    +0.000 A 
ATOM     14  C   UNL     1       1.360   8.300  20.165  0.00  0.00    +0.000 A 
BRANCH  12  15
ATOM     15  C   UNL     1       3.835   6.092  18.455  0.00  0.00    +0.000 C 
ATOM     16  N   UNL     1       4.585   5.236  18.254  0.00  0.00    +0.000 NA
ENDBRANCH  12  15
ENDBRANCH   7   9
BRANCH   1  19
ATOM     17  C   UNL     1      -4.313  11.956  18.845  0.00  0.00    +0.000 A 
ATOM     18  C   UNL     1      -3.303  12.305  19.773  0.00  0.00    +0.000 A 
ATOM     19  C   UNL     1      -2.141  12.283  19.042  0.00  0.00    +0.000 A 
ATOM     20  O   UNL     1      -2.425  11.911  17.763  0.00  0.00    +0.000 OA
ATOM     21  N   UNL     1      -3.790  11.706  17.632  0.00  0.00    +0.000 NA
BRANCH  17  23
ATOM     22  N   UNL     1      -6.123  11.171  20.190  0.00  0.00    +0.000 N 
ATOM     23  C   UNL     1      -5.755  11.922  19.096  0.00  0.00    +0.000 C 
ATOM     24  O   UNL     1      -6.561  12.489  18.363  0.00  0.00    +0.000 OA
ATOM     25  H   UNL     1      -5.369  10.837  20.786  0.00  0.00    +0.000 HD
BRANCH  22  27
ATOM     26  C   UNL     1      -7.785   9.496  20.818  0.00  0.00    +0.000 C 
ATOM     27  C   UNL     1      -7.509  10.973  20.568  0.00  0.00    +0.000 C 
ATOM     28  C   UNL     1      -7.869  11.813  21.791  0.00  0.00    +0.000 C 
ENDBRANCH  22  27
ENDBRANCH  17  23
ENDBRANCH   1  19
TORSDOF 5
ENDMDL
