MODEL 1
REMARK VINA RESULT:      -8.1      0.000      0.000
REMARK  Name = 
REMARK  4 active torsions:
REMARK  status: ('A' for Active; 'I' for Inactive)
REMARK    1  A    between atoms: C_1  and  S_2
REMARK    2  A    between atoms: S_2  and  C_3
REMARK    3  A    between atoms: C_8  and  C_9
REMARK    4  A    between atoms: N_11  and  C_12
REMARK                            x       y       z     vdW  Elec       q    Type
REMARK                         _______ _______ _______ _____ _____    ______ ____
ROOT
ATOM      1  C   UNL     1       4.488   4.754  16.945  0.00  0.00    +0.000 C 
ATOM      2  O   UNL     1       3.998   5.820  17.315  0.00  0.00    +0.000 OA
ATOM      3  N   UNL     1       4.113   3.512  17.422  0.00  0.00    +0.000 N 
ATOM      4  H   UNL     1       4.678   2.710  17.148  0.00  0.00    +0.000 HD
ENDROOT
BRANCH   3   5
ATOM      5  C   UNL     1       3.160   3.253  18.437  0.00  0.00    +0.000 A 
ATOM      6  C   UNL     1       1.781   3.398  18.260  0.00  0.00    +0.000 A 
ATOM      7  C   UNL     1       0.902   3.186  19.327  0.00  0.00    +0.000 A 
ATOM      8  C   UNL     1       1.405   2.826  20.574  0.00  0.00    +0.000 A 
ATOM      9  F   UNL     1       0.552   2.651  21.594  0.00  0.00    +0.000 F 
ATOM     10  C   UNL     1       2.765   2.646  20.757  0.00  0.00    +0.000 A 
ATOM     11  F   UNL     1       3.240   2.294  21.960  0.00  0.00    +0.000 F 
ATOM     12  C   UNL     1       3.636   2.845  19.692  0.00  0.00    +0.000 A 
ATOM     13  F   UNL     1       4.956   2.674  19.876  0.00  0.00    +0.000 F 
ENDBRANCH   3   5
BRANCH   1  19
ATOM     14  C   UNL     1       6.746   5.545  15.964  0.00  0.00    +0.000 A 
ATOM     15  N   UNL     1       7.645   5.553  14.941  0.00  0.00    +0.000 NA
ATOM     16  C   UNL     1       7.361   4.845  13.827  0.00  0.00    +0.000 A 
ATOM     17  C   UNL     1       6.210   4.104  13.672  0.00  0.00    +0.000 A 
ATOM     18  C   UNL     1       5.301   4.092  14.722  0.00  0.00    +0.000 A 
ATOM     19  C   UNL     1       5.553   4.819  15.901  0.00  0.00    +0.000 A 
BRANCH  14  21
ATOM     20  C   UNL     1       7.665   5.361  18.568  0.00  0.00    +0.000 C 
ATOM     21  S   UNL     1       7.193   6.603  17.338  0.00  0.00    +0.000 S 
ENDBRANCH  14  21
ENDBRANCH   1  19
TORSDOF 3
ENDMDL
MODEL 2
REMARK VINA RESULT:      -8.0      1.139      1.740
REMARK  Name = 
REMARK  4 active torsions:
REMARK  status: ('A' for Active; 'I' for Inactive)
REMARK    1  A    between atoms: C_1  and  S_2
REMARK    2  A    between atoms: S_2  and  C_3
REMARK    3  A    between atoms: C_8  and  C_9
REMARK    4  A    between atoms: N_11  and  C_12
REMARK                            x       y       z     vdW  Elec       q    Type
REMARK                         _______ _______ _______ _____ _____    ______ ____
ROOT
ATOM      1  C   UNL     1       4.590   4.721  17.212  0.00  0.00    +0.000 C 
ATOM      2  O   UNL     1       3.955   5.744  17.463  0.00  0.00    +0.000 OA
ATOM      3  N   UNL     1       4.419   3.514  17.862  0.00  0.00    +0.000 N 
ATOM      4  H   UNL     1       5.091   2.773  17.669  0.00  0.00    +0.000 HD
ENDROOT
BRANCH   3   5
ATOM      5  C   UNL     1       3.542   3.258  18.944  0.00  0.00    +0.000 A 
ATOM      6  C   UNL     1       3.969   3.082  20.264  0.00  0.00    +0.000 A 
ATOM      7  C   UNL     1       3.052   2.768  21.271  0.00  0.00    +0.000 A 
ATOM      8  C   UNL     1       1.703   2.631  20.958  0.00  0.00    +0.000 A 
ATOM      9  F   UNL     1       0.839   2.305  21.930  0.00  0.00    +0.000 F 
ATOM     10  C   UNL     1       1.259   2.835  19.663  0.00  0.00    +0.000 A 
ATOM     11  F   UNL     1      -0.043   2.707  19.371  0.00  0.00    +0.000 F 
ATOM     12  C   UNL     1       2.171   3.159  18.665  0.00  0.00    +0.000 A 
ATOM     13  F   UNL     1       1.735   3.351  17.409  0.00  0.00    +0.000 F 
ENDBRANCH   3   5
BRANCH   1  19
ATOM     14  C   UNL     1       6.771   5.573  16.114  0.00  0.00    +0.000 A 
ATOM     15  N   UNL     1       7.625   5.589  15.053  0.00  0.00    +0.000 NA
ATOM     16  C   UNL     1       7.321   4.841  13.970  0.00  0.00    +0.000 A 
ATOM     17  C   UNL     1       6.196   4.051  13.884  0.00  0.00    +0.000 A 
ATOM     18  C   UNL     1       5.333   4.032  14.973  0.00  0.00    +0.000 A 
ATOM     19  C   UNL     1       5.606   4.800  16.121  0.00  0.00    +0.000 A 
BRANCH  14  21
ATOM     20  C   UNL     1       7.747   5.492  18.702  0.00  0.00    +0.000 C 
ATOM     21  S   UNL     1       7.233   6.684  17.440  0.00  0.00    +0.000 S 
ENDBRANCH  14  21
ENDBRANCH   1  19
TORSDOF 3
ENDMDL
MODEL 3
REMARK VINA RESULT:      -7.3      1.565      1.951
REMARK  Name = 
REMARK  4 active torsions:
REMARK  status: ('A' for Active; 'I' for Inactive)
REMARK    1  A    between atoms: C_1  and  S_2
REMARK    2  A    between atoms: S_2  and  C_3
REMARK    3  A    between atoms: C_8  and  C_9
REMARK    4  A    between atoms: N_11  and  C_12
REMARK                            x       y       z     vdW  Elec       q    Type
REMARK                         _______ _______ _______ _____ _____    ______ ____
ROOT
ATOM      1  C   UNL     1       4.493   3.961  17.082  0.00  0.00    +0.000 C 
ATOM      2  O   UNL     1       3.429   3.593  16.586  0.00  0.00    +0.000 OA
ATOM      3  N   UNL     1       4.755   3.995  18.438  0.00  0.00    +0.000 N 
ATOM      4  H   UNL     1       5.617   4.445  18.742  0.00  0.00    +0.000 HD
ENDROOT
BRANCH   3   5
ATOM      5  C   UNL     1       3.850   3.673  19.478  0.00  0.00    +0.000 A 
ATOM      6  C   UNL     1       3.968   2.536  20.284  0.00  0.00    +0.000 A 
ATOM      7  C   UNL     1       3.000   2.247  21.251  0.00  0.00    +0.000 A 
ATOM      8  C   UNL     1       1.912   3.099  21.413  0.00  0.00    +0.000 A 
ATOM      9  F   UNL     1       0.978   2.796  22.327  0.00  0.00    +0.000 F 
ATOM     10  C   UNL     1       1.797   4.246  20.646  0.00  0.00    +0.000 A 
ATOM     11  F   UNL     1       0.748   5.064  20.813  0.00  0.00    +0.000 F 
ATOM     12  C   UNL     1       2.767   4.538  19.694  0.00  0.00    +0.000 A 
ATOM     13  F   UNL     1       2.649   5.649  18.949  0.00  0.00    +0.000 F 
ENDBRANCH   3   5
BRANCH   1  19
ATOM     14  C   UNL     1       6.638   5.247  16.423  0.00  0.00    +0.000 A 
ATOM     15  N   UNL     1       7.560   5.591  15.481  0.00  0.00    +0.000 NA
ATOM     16  C   UNL     1       7.424   5.093  14.233  0.00  0.00    +0.000 A 
ATOM     17  C   UNL     1       6.405   4.244  13.861  0.00  0.00    +0.000 A 
ATOM     18  C   UNL     1       5.473   3.890  14.829  0.00  0.00    +0.000 A 
ATOM     19  C   UNL     1       5.571   4.389  16.142  0.00  0.00    +0.000 A 
BRANCH  14  21
ATOM     20  C   UNL     1       7.584   7.630  17.465  0.00  0.00    +0.000 C 
ATOM     21  S   UNL     1       6.873   6.054  18.004  0.00  0.00    +0.000 S 
ENDBRANCH  14  21
ENDBRANCH   1  19
TORSDOF 3
ENDMDL
MODEL 4
REMARK VINA RESULT:      -7.1      1.486      1.705
REMARK  Name = 
REMARK  4 active torsions:
REMARK  status: ('A' for Active; 'I' for Inactive)
REMARK    1  A    between atoms: C_1  and  S_2
REMARK    2  A    between atoms: S_2  and  C_3
REMARK    3  A    between atoms: C_8  and  C_9
REMARK    4  A    between atoms: N_11  and  C_12
REMARK                            x       y       z     vdW  Elec       q    Type
REMARK                         _______ _______ _______ _____ _____    ______ ____
ROOT
ATOM      1  C   UNL     1       5.310   4.166  17.745  0.00  0.00    +0.000 C 
ATOM      2  O   UNL     1       5.976   3.678  18.657  0.00  0.00    +0.000 OA
ATOM      3  N   UNL     1       3.946   4.382  17.800  0.00  0.00    +0.000 N 
ATOM      4  H   UNL     1       3.477   4.662  16.941  0.00  0.00    +0.000 HD
ENDROOT
BRANCH   3   5
ATOM      5  C   UNL     1       3.083   4.039  18.869  0.00  0.00    +0.000 A 
ATOM      6  C   UNL     1       2.930   4.817  20.021  0.00  0.00    +0.000 A 
ATOM      7  C   UNL     1       2.107   4.384  21.066  0.00  0.00    +0.000 A 
ATOM      8  C   UNL     1       1.434   3.171  20.957  0.00  0.00    +0.000 A 
ATOM      9  F   UNL     1       0.669   2.756  21.976  0.00  0.00    +0.000 F 
ATOM     10  C   UNL     1       1.549   2.405  19.809  0.00  0.00    +0.000 A 
ATOM     11  F   UNL     1       0.892   1.240  19.710  0.00  0.00    +0.000 F 
ATOM     12  C   UNL     1       2.358   2.843  18.766  0.00  0.00    +0.000 A 
ATOM     13  F   UNL     1       2.469   2.094  17.657  0.00  0.00    +0.000 F 
ENDBRANCH   3   5
BRANCH   1  19
ATOM     14  C   UNL     1       6.803   5.709  16.303  0.00  0.00    +0.000 A 
ATOM     15  N   UNL     1       7.412   5.980  15.115  0.00  0.00    +0.000 NA
ATOM     16  C   UNL     1       7.257   5.107  14.097  0.00  0.00    +0.000 A 
ATOM     17  C   UNL     1       6.521   3.947  14.197  0.00  0.00    +0.000 A 
ATOM     18  C   UNL     1       5.909   3.672  15.413  0.00  0.00    +0.000 A 
ATOM     19  C   UNL     1       6.039   4.555  16.502  0.00  0.00    +0.000 A 
BRANCH  14  21
ATOM     20  C   UNL     1       8.015   6.121  18.756  0.00  0.00    +0.000 C 
ATOM     21  S   UNL     1       7.001   6.993  17.536  0.00  0.00    +0.000 S 
ENDBRANCH  14  21
ENDBRANCH   1  19
TORSDOF 3
ENDMDL
MODEL 5
REMARK VINA RESULT:      -7.0      1.571      1.773
REMARK  Name = 
REMARK  4 active torsions:
REMARK  status: ('A' for Active; 'I' for Inactive)
REMARK    1  A    between atoms: C_1  and  S_2
REMARK    2  A    between atoms: S_2  and  C_3
REMARK    3  A    between atoms: C_8  and  C_9
REMARK    4  A    between atoms: N_11  and  C_12
REMARK                            x       y       z     vdW  Elec       q    Type
REMARK                         _______ _______ _______ _____ _____    ______ ____
ROOT
ATOM      1  C   UNL     1       5.347   4.041  17.459  0.00  0.00    +0.000 C 
ATOM      2  O   UNL     1       6.035   3.949  18.475  0.00  0.00    +0.000 OA
ATOM      3  N   UNL     1       3.975   3.876  17.425  0.00  0.00    +0.000 N 
ATOM      4  H   UNL     1       3.527   3.838  16.511  0.00  0.00    +0.000 HD
ENDROOT
BRANCH   3   5
ATOM      5  C   UNL     1       3.142   3.528  18.516  0.00  0.00    +0.000 A 
ATOM      6  C   UNL     1       2.775   2.214  18.822  0.00  0.00    +0.000 A 
ATOM      7  C   UNL     1       1.896   1.950  19.877  0.00  0.00    +0.000 A 
ATOM      8  C   UNL     1       1.385   3.003  20.629  0.00  0.00    +0.000 A 
ATOM      9  F   UNL     1       0.524   2.737  21.622  0.00  0.00    +0.000 F 
ATOM     10  C   UNL     1       1.765   4.307  20.360  0.00  0.00    +0.000 A 
ATOM     11  F   UNL     1       1.272   5.315  21.094  0.00  0.00    +0.000 F 
ATOM     12  C   UNL     1       2.648   4.567  19.319  0.00  0.00    +0.000 A 
ATOM     13  F   UNL     1       3.010   5.834  19.059  0.00  0.00    +0.000 F 
ENDBRANCH   3   5
BRANCH   1  19
ATOM     14  C   UNL     1       6.998   5.371  15.979  0.00  0.00    +0.000 A 
ATOM     15  N   UNL     1       7.571   5.593  14.763  0.00  0.00    +0.000 NA
ATOM     16  C   UNL     1       7.198   4.816  13.723  0.00  0.00    +0.000 A 
ATOM     17  C   UNL     1       6.273   3.800  13.828  0.00  0.00    +0.000 A 
ATOM     18  C   UNL     1       5.700   3.573  15.072  0.00  0.00    +0.000 A 
ATOM     19  C   UNL     1       6.054   4.361  16.184  0.00  0.00    +0.000 A 
BRANCH  14  21
ATOM     20  C   UNL     1       5.999   7.536  17.385  0.00  0.00    +0.000 C 
ATOM     21  S   UNL     1       7.501   6.533  17.246  0.00  0.00    +0.000 S 
ENDBRANCH  14  21
ENDBRANCH   1  19
TORSDOF 3
ENDMDL
MODEL 6
REMARK VINA RESULT:      -7.0      1.153      1.153
REMARK  Name = 
REMARK  4 active torsions:
REMARK  status: ('A' for Active; 'I' for Inactive)
REMARK    1  A    between atoms: C_1  and  S_2
REMARK    2  A    between atoms: S_2  and  C_3
REMARK    3  A    between atoms: C_8  and  C_9
REMARK    4  A    between atoms: N_11  and  C_12
REMARK                            x       y       z     vdW  Elec       q    Type
REMARK                         _______ _______ _______ _____ _____    ______ ____
ROOT
ATOM      1  C   UNL     1       4.731   3.408  16.936  0.00  0.00    +0.000 C 
ATOM      2  O   UNL     1       4.530   2.197  16.851  0.00  0.00    +0.000 OA
ATOM      3  N   UNL     1       4.151   4.233  17.882  0.00  0.00    +0.000 N 
ATOM      4  H   UNL     1       4.281   5.238  17.775  0.00  0.00    +0.000 HD
ENDROOT
BRANCH   3   5
ATOM      5  C   UNL     1       3.205   3.853  18.864  0.00  0.00    +0.000 A 
ATOM      6  C   UNL     1       1.852   4.204  18.813  0.00  0.00    +0.000 A 
ATOM      7  C   UNL     1       0.987   3.848  19.852  0.00  0.00    +0.000 A 
ATOM      8  C   UNL     1       1.476   3.136  20.943  0.00  0.00    +0.000 A 
ATOM      9  F   UNL     1       0.640   2.822  21.944  0.00  0.00    +0.000 F 
ATOM     10  C   UNL     1       2.805   2.751  20.992  0.00  0.00    +0.000 A 
ATOM     11  F   UNL     1       3.266   2.060  22.045  0.00  0.00    +0.000 F 
ATOM     12  C   UNL     1       3.661   3.096  19.953  0.00  0.00    +0.000 A 
ATOM     13  F   UNL     1       4.950   2.724  20.007  0.00  0.00    +0.000 F 
ENDBRANCH   3   5
BRANCH   1  19
ATOM     14  C   UNL     1       6.832   4.745  16.236  0.00  0.00    +0.000 A 
ATOM     15  N   UNL     1       7.615   5.274  15.256  0.00  0.00    +0.000 NA
ATOM     16  C   UNL     1       7.248   5.095  13.969  0.00  0.00    +0.000 A 
ATOM     17  C   UNL     1       6.124   4.393  13.591  0.00  0.00    +0.000 A 
ATOM     18  C   UNL     1       5.334   3.848  14.595  0.00  0.00    +0.000 A 
ATOM     19  C   UNL     1       5.674   4.013  15.951  0.00  0.00    +0.000 A 
BRANCH  14  21
ATOM     20  C   UNL     1       7.529   6.940  17.770  0.00  0.00    +0.000 C 
ATOM     21  S   UNL     1       7.371   5.141  17.897  0.00  0.00    +0.000 S 
ENDBRANCH  14  21
ENDBRANCH   1  19
TORSDOF 3
ENDMDL
MODEL 7
REMARK VINA RESULT:      -6.8      1.724      2.047
REMARK  Name = 
REMARK  4 active torsions:
REMARK  status: ('A' for Active; 'I' for Inactive)
REMARK    1  A    between atoms: C_1  and  S_2
REMARK    2  A    between atoms: S_2  and  C_3
REMARK    3  A    between atoms: C_8  and  C_9
REMARK    4  A    between atoms: N_11  and  C_12
REMARK                            x       y       z     vdW  Elec       q    Type
REMARK                         _______ _______ _______ _____ _____    ______ ____
ROOT
ATOM      1  C   UNL     1       5.001   3.817  16.601  0.00  0.00    +0.000 C 
ATOM      2  O   UNL     1       5.092   2.648  16.973  0.00  0.00    +0.000 OA
ATOM      3  N   UNL     1       4.137   4.747  17.148  0.00  0.00    +0.000 N 
ATOM      4  H   UNL     1       4.046   5.644  16.673  0.00  0.00    +0.000 HD
ENDROOT
BRANCH   3   5
ATOM      5  C   UNL     1       3.187   4.514  18.172  0.00  0.00    +0.000 A 
ATOM      6  C   UNL     1       3.232   5.132  19.425  0.00  0.00    +0.000 A 
ATOM      7  C   UNL     1       2.297   4.805  20.412  0.00  0.00    +0.000 A 
ATOM      8  C   UNL     1       1.313   3.858  20.144  0.00  0.00    +0.000 A 
ATOM      9  F   UNL     1       0.439   3.535  21.108  0.00  0.00    +0.000 F 
ATOM     10  C   UNL     1       1.235   3.261  18.897  0.00  0.00    +0.000 A 
ATOM     11  F   UNL     1       0.281   2.353  18.645  0.00  0.00    +0.000 F 
ATOM     12  C   UNL     1       2.158   3.596  17.913  0.00  0.00    +0.000 A 
ATOM     13  F   UNL     1       2.081   3.011  16.707  0.00  0.00    +0.000 F 
ENDBRANCH   3   5
BRANCH   1  19
ATOM     14  C   UNL     1       6.904   5.217  15.549  0.00  0.00    +0.000 A 
ATOM     15  N   UNL     1       7.653   5.554  14.463  0.00  0.00    +0.000 NA
ATOM     16  C   UNL     1       7.398   4.939  13.288  0.00  0.00    +0.000 A 
ATOM     17  C   UNL     1       6.424   3.978  13.130  0.00  0.00    +0.000 A 
ATOM     18  C   UNL     1       5.669   3.632  14.243  0.00  0.00    +0.000 A 
ATOM     19  C   UNL     1       5.896   4.250  15.488  0.00  0.00    +0.000 A 
BRANCH  14  21
ATOM     20  C   UNL     1       7.801   4.860  18.143  0.00  0.00    +0.000 C 
ATOM     21  S   UNL     1       7.272   6.176  17.017  0.00  0.00    +0.000 S 
ENDBRANCH  14  21
ENDBRANCH   1  19
TORSDOF 3
ENDMDL
MODEL 8
REMARK VINA RESULT:      -6.8      1.619      1.626
REMARK  Name = 
REMARK  4 active torsions:
REMARK  status: ('A' for Active; 'I' for Inactive)
REMARK    1  A    between atoms: C_1  and  S_2
REMARK    2  A    between atoms: S_2  and  C_3
REMARK    3  A    between atoms: C_8  and  C_9
REMARK    4  A    between atoms: N_11  and  C_12
REMARK                            x       y       z     vdW  Elec       q    Type
REMARK                         _______ _______ _______ _____ _____    ______ ____
ROOT
ATOM      1  C   UNL     1       5.028   3.745  16.318  0.00  0.00    +0.000 C 
ATOM      2  O   UNL     1       5.088   2.553  16.615  0.00  0.00    +0.000 OA
ATOM      3  N   UNL     1       4.151   4.651  16.883  0.00  0.00    +0.000 N 
ATOM      4  H   UNL     1       4.094   5.578  16.466  0.00  0.00    +0.000 HD
ENDROOT
BRANCH   3   5
ATOM      5  C   UNL     1       3.151   4.365  17.845  0.00  0.00    +0.000 A 
ATOM      6  C   UNL     1       1.965   3.686  17.552  0.00  0.00    +0.000 A 
ATOM      7  C   UNL     1       0.993   3.496  18.539  0.00  0.00    +0.000 A 
ATOM      8  C   UNL     1       1.209   3.985  19.823  0.00  0.00    +0.000 A 
ATOM      9  F   UNL     1       0.258   3.818  20.753  0.00  0.00    +0.000 F 
ATOM     10  C   UNL     1       2.393   4.631  20.139  0.00  0.00    +0.000 A 
ATOM     11  F   UNL     1       2.595   5.095  21.380  0.00  0.00    +0.000 F 
ATOM     12  C   UNL     1       3.363   4.809  19.159  0.00  0.00    +0.000 A 
ATOM     13  F   UNL     1       4.508   5.440  19.469  0.00  0.00    +0.000 F 
ENDBRANCH   3   5
BRANCH   1  19
ATOM     14  C   UNL     1       6.980   5.200  15.444  0.00  0.00    +0.000 A 
ATOM     15  N   UNL     1       7.786   5.593  14.419  0.00  0.00    +0.000 NA
ATOM     16  C   UNL     1       7.597   5.040  13.202  0.00  0.00    +0.000 A 
ATOM     17  C   UNL     1       6.637   4.088  12.941  0.00  0.00    +0.000 A 
ATOM     18  C   UNL     1       5.824   3.683  13.993  0.00  0.00    +0.000 A 
ATOM     19  C   UNL     1       5.980   4.236  15.278  0.00  0.00    +0.000 A 
BRANCH  14  21
ATOM     20  C   UNL     1       7.779   4.717  18.049  0.00  0.00    +0.000 C 
ATOM     21  S   UNL     1       7.264   6.082  16.977  0.00  0.00    +0.000 S 
ENDBRANCH  14  21
ENDBRANCH   1  19
TORSDOF 3
ENDMDL
MODEL 9
REMARK VINA RESULT:      -6.7      4.706      6.281
REMARK  Name = 
REMARK  4 active torsions:
REMARK  status: ('A' for Active; 'I' for Inactive)
REMARK    1  A    between atoms: C_1  and  S_2
REMARK    2  A    between atoms: S_2  and  C_3
REMARK    3  A    between atoms: C_8  and  C_9
REMARK    4  A    between atoms: N_11  and  C_12
REMARK                            x       y       z     vdW  Elec       q    Type
REMARK                         _______ _______ _______ _____ _____    ______ ____
ROOT
ATOM      1  C   UNL     1       2.510   5.584  19.069  0.00  0.00    +0.000 C 
ATOM      2  O   UNL     1       1.930   5.457  17.992  0.00  0.00    +0.000 OA
ATOM      3  N   UNL     1       2.563   6.759  19.796  0.00  0.00    +0.000 N 
ATOM      4  H   UNL     1       3.184   6.788  20.603  0.00  0.00    +0.000 HD
ENDROOT
BRANCH   3   5
ATOM      5  C   UNL     1       2.017   8.009  19.416  0.00  0.00    +0.000 A 
ATOM      6  C   UNL     1       2.281   8.630  18.191  0.00  0.00    +0.000 A 
ATOM      7  C   UNL     1       1.758   9.896  17.910  0.00  0.00    +0.000 A 
ATOM      8  C   UNL     1       0.967  10.541  18.855  0.00  0.00    +0.000 A 
ATOM      9  F   UNL     1       0.493  11.765  18.581  0.00  0.00    +0.000 F 
ATOM     10  C   UNL     1       0.668   9.925  20.058  0.00  0.00    +0.000 A 
ATOM     11  F   UNL     1      -0.100  10.552  20.961  0.00  0.00    +0.000 F 
ATOM     12  C   UNL     1       1.179   8.662  20.332  0.00  0.00    +0.000 A 
ATOM     13  F   UNL     1       0.890   8.071  21.503  0.00  0.00    +0.000 F 
ENDBRANCH   3   5
BRANCH   1  19
ATOM     14  C   UNL     1       4.465   3.904  19.283  0.00  0.00    +0.000 A 
ATOM     15  N   UNL     1       4.989   2.775  19.835  0.00  0.00    +0.000 NA
ATOM     16  C   UNL     1       4.244   2.088  20.728  0.00  0.00    +0.000 A 
ATOM     17  C   UNL     1       2.982   2.474  21.121  0.00  0.00    +0.000 A 
ATOM     18  C   UNL     1       2.456   3.632  20.561  0.00  0.00    +0.000 A 
ATOM     19  C   UNL     1       3.193   4.378  19.622  0.00  0.00    +0.000 A 
BRANCH  14  21
ATOM     20  C   UNL     1       4.816   3.926  16.538  0.00  0.00    +0.000 C 
ATOM     21  S   UNL     1       5.508   4.663  18.041  0.00  0.00    +0.000 S 
ENDBRANCH  14  21
ENDBRANCH   1  19
TORSDOF 3
ENDMDL
