MODEL 1
REMARK VINA RESULT:      -7.2      0.000      0.000
REMARK  Name = 
REMARK  2 active torsions:
REMARK  status: ('A' for Active; 'I' for Inactive)
REMARK    1  A    between atoms: C_1  and  C_2
REMARK    2  A    between atoms: C_13  and  C_14
REMARK                            x       y       z     vdW  Elec       q    Type
REMARK                         _______ _______ _______ _____ _____    ______ ____
ROOT
ATOM      1  C   UNL     1       2.394   2.513  21.490  0.00  0.00    +0.000 C 
ATOM      2  C   UNL     1       3.006   3.227  20.322  0.00  0.00    +0.000 C 
ATOM      3  C   UNL     1       3.858   2.606  19.499  0.00  0.00    +0.000 C 
ATOM      4  O   UNL     1       4.465   3.168  18.412  0.00  0.00    +0.000 OA
ATOM      5  C   UNL     1       4.223   4.497  18.069  0.00  0.00    +0.000 C 
ATOM      6  C   UNL     1       4.839   5.009  16.993  0.00  0.00    +0.000 C 
ATOM      7 BR   UNL     1       6.018   4.014  15.924  0.00  0.00    +0.000 Br
ATOM      8  C   UNL     1       4.605   6.414  16.603  0.00  0.00    +0.000 C 
ATOM      9  O   UNL     1       5.141   6.926  15.628  0.00  0.00    +0.000 OA
ATOM     10  C   UNL     1       3.664   7.242  17.448  0.00  0.00    +0.000 C 
ATOM     11  O   UNL     1       3.492   8.405  17.113  0.00  0.00    +0.000 OA
ATOM     12  C   UNL     1       2.999   6.632  18.633  0.00  0.00    +0.000 A 
ATOM     13  C   UNL     1       2.105   7.355  19.458  0.00  0.00    +0.000 A 
ATOM     14  C   UNL     1       1.687   8.793  19.289  0.00  0.00    +0.000 C 
ATOM     15  C   UNL     1       1.528   6.698  20.558  0.00  0.00    +0.000 A 
ATOM     16  C   UNL     1       1.816   5.366  20.839  0.00  0.00    +0.000 A 
ATOM     17  C   UNL     1       2.695   4.641  20.030  0.00  0.00    +0.000 A 
ATOM     18  C   UNL     1       3.294   5.277  18.916  0.00  0.00    +0.000 A 
ENDROOT
TORSDOF 0
ENDMDL
MODEL 2
REMARK VINA RESULT:      -6.9      2.395      4.670
REMARK  Name = 
REMARK  2 active torsions:
REMARK  status: ('A' for Active; 'I' for Inactive)
REMARK    1  A    between atoms: C_1  and  C_2
REMARK    2  A    between atoms: C_13  and  C_14
REMARK                            x       y       z     vdW  Elec       q    Type
REMARK                         _______ _______ _______ _____ _____    ______ ____
ROOT
ATOM      1  C   UNL     1       1.280   9.297  19.795  0.00  0.00    +0.000 C 
ATOM      2  C   UNL     1       1.706   7.860  19.850  0.00  0.00    +0.000 C 
ATOM      3  C   UNL     1       1.269   7.045  20.816  0.00  0.00    +0.000 C 
ATOM      4  O   UNL     1       1.598   5.725  20.951  0.00  0.00    +0.000 OA
ATOM      5  C   UNL     1       2.454   5.108  20.042  0.00  0.00    +0.000 C 
ATOM      6  C   UNL     1       2.750   3.811  20.210  0.00  0.00    +0.000 C 
ATOM      7 BR   UNL     1       2.061   2.784  21.622  0.00  0.00    +0.000 Br
ATOM      8  C   UNL     1       3.655   3.127  19.264  0.00  0.00    +0.000 C 
ATOM      9  O   UNL     1       3.953   1.944  19.374  0.00  0.00    +0.000 OA
ATOM     10  C   UNL     1       4.230   3.930  18.119  0.00  0.00    +0.000 C 
ATOM     11  O   UNL     1       4.984   3.347  17.353  0.00  0.00    +0.000 OA
ATOM     12  C   UNL     1       3.872   5.368  17.968  0.00  0.00    +0.000 A 
ATOM     13  C   UNL     1       4.374   6.169  16.915  0.00  0.00    +0.000 A 
ATOM     14  C   UNL     1       5.306   5.729  15.815  0.00  0.00    +0.000 C 
ATOM     15  C   UNL     1       3.985   7.518  16.855  0.00  0.00    +0.000 A 
ATOM     16  C   UNL     1       3.124   8.067  17.800  0.00  0.00    +0.000 A 
ATOM     17  C   UNL     1       2.620   7.285  18.843  0.00  0.00    +0.000 A 
ATOM     18  C   UNL     1       2.995   5.923  18.931  0.00  0.00    +0.000 A 
ENDROOT
TORSDOF 0
ENDMDL
MODEL 3
REMARK VINA RESULT:      -6.8      1.080      3.982
REMARK  Name = 
REMARK  2 active torsions:
REMARK  status: ('A' for Active; 'I' for Inactive)
REMARK    1  A    between atoms: C_1  and  C_2
REMARK    2  A    between atoms: C_13  and  C_14
REMARK                            x       y       z     vdW  Elec       q    Type
REMARK                         _______ _______ _______ _____ _____    ______ ____
ROOT
ATOM      1  C   UNL     1       1.350   9.041  19.687  0.00  0.00    +0.000 C 
ATOM      2  C   UNL     1       2.185   8.012  18.987  0.00  0.00    +0.000 C 
ATOM      3  C   UNL     1       2.874   8.314  17.881  0.00  0.00    +0.000 C 
ATOM      4  O   UNL     1       3.662   7.449  17.173  0.00  0.00    +0.000 OA
ATOM      5  C   UNL     1       3.809   6.125  17.580  0.00  0.00    +0.000 C 
ATOM      6  C   UNL     1       4.592   5.310  16.857  0.00  0.00    +0.000 C 
ATOM      7 BR   UNL     1       5.503   5.875  15.317  0.00  0.00    +0.000 Br
ATOM      8  C   UNL     1       4.768   3.901  17.261  0.00  0.00    +0.000 C 
ATOM      9  O   UNL     1       5.474   3.119  16.636  0.00  0.00    +0.000 OA
ATOM     10  C   UNL     1       4.042   3.415  18.495  0.00  0.00    +0.000 C 
ATOM     11  O   UNL     1       4.195   2.242  18.806  0.00  0.00    +0.000 OA
ATOM     12  C   UNL     1       3.185   4.356  19.270  0.00  0.00    +0.000 A 
ATOM     13  C   UNL     1       2.486   3.961  20.435  0.00  0.00    +0.000 A 
ATOM     14  C   UNL     1       2.490   2.593  21.068  0.00  0.00    +0.000 C 
ATOM     15  C   UNL     1       1.697   4.916  21.099  0.00  0.00    +0.000 A 
ATOM     16  C   UNL     1       1.598   6.224  20.634  0.00  0.00    +0.000 A 
ATOM     17  C   UNL     1       2.285   6.625  19.486  0.00  0.00    +0.000 A 
ATOM     18  C   UNL     1       3.087   5.685  18.795  0.00  0.00    +0.000 A 
ENDROOT
TORSDOF 0
ENDMDL
MODEL 4
REMARK VINA RESULT:      -6.4      2.083      4.216
REMARK  Name = 
REMARK  2 active torsions:
REMARK  status: ('A' for Active; 'I' for Inactive)
REMARK    1  A    between atoms: C_1  and  C_2
REMARK    2  A    between atoms: C_13  and  C_14
REMARK                            x       y       z     vdW  Elec       q    Type
REMARK                         _______ _______ _______ _____ _____    ______ ____
ROOT
ATOM      1  C   UNL     1       5.490   6.493  15.129  0.00  0.00    +0.000 C 
ATOM      2  C   UNL     1       4.903   5.593  16.174  0.00  0.00    +0.000 C 
ATOM      3  C   UNL     1       5.140   4.277  16.168  0.00  0.00    +0.000 C 
ATOM      4  O   UNL     1       4.653   3.377  17.074  0.00  0.00    +0.000 OA
ATOM      5  C   UNL     1       3.835   3.794  18.122  0.00  0.00    +0.000 C 
ATOM      6  C   UNL     1       3.380   2.879  18.990  0.00  0.00    +0.000 C 
ATOM      7 BR   UNL     1       3.795   1.054  18.857  0.00  0.00    +0.000 Br
ATOM      8  C   UNL     1       2.510   3.288  20.111  0.00  0.00    +0.000 C 
ATOM      9  O   UNL     1       2.072   2.490  20.931  0.00  0.00    +0.000 OA
ATOM     10  C   UNL     1       2.154   4.751  20.242  0.00  0.00    +0.000 C 
ATOM     11  O   UNL     1       1.426   5.067  21.172  0.00  0.00    +0.000 OA
ATOM     12  C   UNL     1       2.685   5.735  19.257  0.00  0.00    +0.000 A 
ATOM     13  C   UNL     1       2.391   7.117  19.330  0.00  0.00    +0.000 A 
ATOM     14  C   UNL     1       1.537   7.802  20.367  0.00  0.00    +0.000 C 
ATOM     15  C   UNL     1       2.932   7.970  18.354  0.00  0.00    +0.000 A 
ATOM     16  C   UNL     1       3.743   7.482  17.334  0.00  0.00    +0.000 A 
ATOM     17  C   UNL     1       4.043   6.119  17.253  0.00  0.00    +0.000 A 
ATOM     18  C   UNL     1       3.510   5.235  18.222  0.00  0.00    +0.000 A 
ENDROOT
TORSDOF 0
ENDMDL
MODEL 5
REMARK VINA RESULT:      -6.4      2.307      4.677
REMARK  Name = 
REMARK  2 active torsions:
REMARK  status: ('A' for Active; 'I' for Inactive)
REMARK    1  A    between atoms: C_1  and  C_2
REMARK    2  A    between atoms: C_13  and  C_14
REMARK                            x       y       z     vdW  Elec       q    Type
REMARK                         _______ _______ _______ _____ _____    ______ ____
ROOT
ATOM      1  C   UNL     1       6.025   3.995  15.528  0.00  0.00    +0.000 C 
ATOM      2  C   UNL     1       5.147   4.888  16.352  0.00  0.00    +0.000 C 
ATOM      3  C   UNL     1       4.936   6.163  16.007  0.00  0.00    +0.000 C 
ATOM      4  O   UNL     1       4.154   7.052  16.690  0.00  0.00    +0.000 OA
ATOM      5  C   UNL     1       3.489   6.669  17.852  0.00  0.00    +0.000 C 
ATOM      6  C   UNL     1       2.731   7.573  18.491  0.00  0.00    +0.000 C 
ATOM      7 BR   UNL     1       2.525   9.338  17.888  0.00  0.00    +0.000 Br
ATOM      8  C   UNL     1       2.014   7.199  19.726  0.00  0.00    +0.000 C 
ATOM      9  O   UNL     1       1.308   7.987  20.343  0.00  0.00    +0.000 OA
ATOM     10  C   UNL     1       2.164   5.785  20.239  0.00  0.00    +0.000 C 
ATOM     11  O   UNL     1       1.568   5.500  21.269  0.00  0.00    +0.000 OA
ATOM     12  C   UNL     1       3.013   4.813  19.496  0.00  0.00    +0.000 A 
ATOM     13  C   UNL     1       3.188   3.475  19.924  0.00  0.00    +0.000 A 
ATOM     14  C   UNL     1       2.573   2.832  21.141  0.00  0.00    +0.000 C 
ATOM     15  C   UNL     1       4.012   2.630  19.162  0.00  0.00    +0.000 A 
ATOM     16  C   UNL     1       4.645   3.082  18.009  0.00  0.00    +0.000 A 
ATOM     17  C   UNL     1       4.478   4.400  17.575  0.00  0.00    +0.000 A 
ATOM     18  C   UNL     1       3.655   5.276  18.324  0.00  0.00    +0.000 A 
ENDROOT
TORSDOF 0
ENDMDL
MODEL 6
REMARK VINA RESULT:      -6.4      2.397      3.806
REMARK  Name = 
REMARK  2 active torsions:
REMARK  status: ('A' for Active; 'I' for Inactive)
REMARK    1  A    between atoms: C_1  and  C_2
REMARK    2  A    between atoms: C_13  and  C_14
REMARK                            x       y       z     vdW  Elec       q    Type
REMARK                         _______ _______ _______ _____ _____    ______ ____
ROOT
ATOM      1  C   UNL     1       2.690   2.411  21.214  0.00  0.00    +0.000 C 
ATOM      2  C   UNL     1       2.583   3.787  20.630  0.00  0.00    +0.000 C 
ATOM      3  C   UNL     1       1.863   4.740  21.231  0.00  0.00    +0.000 C 
ATOM      4  O   UNL     1       1.704   6.021  20.780  0.00  0.00    +0.000 OA
ATOM      5  C   UNL     1       2.317   6.441  19.601  0.00  0.00    +0.000 C 
ATOM      6  C   UNL     1       2.136   7.706  19.194  0.00  0.00    +0.000 C 
ATOM      7 BR   UNL     1       1.092   8.943  20.144  0.00  0.00    +0.000 Br
ATOM      8  C   UNL     1       2.771   8.183  17.949  0.00  0.00    +0.000 C 
ATOM      9  O   UNL     1       2.639   9.329  17.538  0.00  0.00    +0.000 OA
ATOM     10  C   UNL     1       3.614   7.208  17.159  0.00  0.00    +0.000 C 
ATOM     11  O   UNL     1       4.123   7.621  16.126  0.00  0.00    +0.000 OA
ATOM     12  C   UNL     1       3.791   5.812  17.649  0.00  0.00    +0.000 A 
ATOM     13  C   UNL     1       4.572   4.857  16.957  0.00  0.00    +0.000 A 
ATOM     14  C   UNL     1       5.329   5.075  15.671  0.00  0.00    +0.000 C 
ATOM     15  C   UNL     1       4.678   3.563  17.492  0.00  0.00    +0.000 A 
ATOM     16  C   UNL     1       4.037   3.214  18.677  0.00  0.00    +0.000 A 
ATOM     17  C   UNL     1       3.265   4.149  19.371  0.00  0.00    +0.000 A 
ATOM     18  C   UNL     1       3.139   5.462  18.855  0.00  0.00    +0.000 A 
ENDROOT
TORSDOF 0
ENDMDL
MODEL 7
REMARK VINA RESULT:      -6.3      2.453      5.069
REMARK  Name = 
REMARK  2 active torsions:
REMARK  status: ('A' for Active; 'I' for Inactive)
REMARK    1  A    between atoms: C_1  and  C_2
REMARK    2  A    between atoms: C_13  and  C_14
REMARK                            x       y       z     vdW  Elec       q    Type
REMARK                         _______ _______ _______ _____ _____    ______ ____
ROOT
ATOM      1  C   UNL     1       2.474   9.293  18.352  0.00  0.00    +0.000 C 
ATOM      2  C   UNL     1       2.518   7.822  18.635  0.00  0.00    +0.000 C 
ATOM      3  C   UNL     1       1.803   7.285  19.630  0.00  0.00    +0.000 C 
ATOM      4  O   UNL     1       1.776   5.960  19.965  0.00  0.00    +0.000 OA
ATOM      5  C   UNL     1       2.530   5.030  19.253  0.00  0.00    +0.000 C 
ATOM      6  C   UNL     1       2.473   3.740  19.615  0.00  0.00    +0.000 C 
ATOM      7 BR   UNL     1       1.420   3.127  21.042  0.00  0.00    +0.000 Br
ATOM      8  C   UNL     1       3.262   2.729  18.881  0.00  0.00    +0.000 C 
ATOM      9  O   UNL     1       3.241   1.539  19.170  0.00  0.00    +0.000 OA
ATOM     10  C   UNL     1       4.123   3.194  17.729  0.00  0.00    +0.000 C 
ATOM     11  O   UNL     1       4.774   2.342  17.141  0.00  0.00    +0.000 OA
ATOM     12  C   UNL     1       4.154   4.637  17.360  0.00  0.00    +0.000 A 
ATOM     13  C   UNL     1       4.936   5.130  16.289  0.00  0.00    +0.000 A 
ATOM     14  C   UNL     1       5.826   4.324  15.378  0.00  0.00    +0.000 C 
ATOM     15  C   UNL     1       4.906   6.508  16.017  0.00  0.00    +0.000 A 
ATOM     16  C   UNL     1       4.127   7.380  16.772  0.00  0.00    +0.000 A 
ATOM     17  C   UNL     1       3.348   6.903  17.829  0.00  0.00    +0.000 A 
ATOM     18  C   UNL     1       3.359   5.520  18.129  0.00  0.00    +0.000 A 
ENDROOT
TORSDOF 0
ENDMDL
MODEL 8
REMARK VINA RESULT:      -6.1      6.574      9.245
REMARK  Name = 
REMARK  2 active torsions:
REMARK  status: ('A' for Active; 'I' for Inactive)
REMARK    1  A    between atoms: C_1  and  C_2
REMARK    2  A    between atoms: C_13  and  C_14
REMARK                            x       y       z     vdW  Elec       q    Type
REMARK                         _______ _______ _______ _____ _____    ______ ____
ROOT
ATOM      1  C   UNL     1       1.224   9.257  17.937  0.00  0.00    +0.000 C 
ATOM      2  C   UNL     1       0.341  10.118  18.790  0.00  0.00    +0.000 C 
ATOM      3  C   UNL     1       0.765  10.594  19.966  0.00  0.00    +0.000 C 
ATOM      4  O   UNL     1       0.038  11.385  20.811  0.00  0.00    +0.000 OA
ATOM      5  C   UNL     1      -1.261  11.770  20.486  0.00  0.00    +0.000 C 
ATOM      6  C   UNL     1      -1.938  12.548  21.344  0.00  0.00    +0.000 C 
ATOM      7 BR   UNL     1      -1.213  13.143  22.969  0.00  0.00    +0.000 Br
ATOM      8  C   UNL     1      -3.317  12.973  21.029  0.00  0.00    +0.000 C 
ATOM      9  O   UNL     1      -3.975  13.684  21.778  0.00  0.00    +0.000 OA
ATOM     10  C   UNL     1      -3.929  12.504  19.729  0.00  0.00    +0.000 C 
ATOM     11  O   UNL     1      -5.075  12.861  19.492  0.00  0.00    +0.000 OA
ATOM     12  C   UNL     1      -3.140  11.644  18.804  0.00  0.00    +0.000 A 
ATOM     13  C   UNL     1      -3.657  11.180  17.571  0.00  0.00    +0.000 A 
ATOM     14  C   UNL     1      -5.025  11.463  17.005  0.00  0.00    +0.000 C 
ATOM     15  C   UNL     1      -2.841  10.368  16.765  0.00  0.00    +0.000 A 
ATOM     16  C   UNL     1      -1.550  10.024  17.155  0.00  0.00    +0.000 A 
ATOM     17  C   UNL     1      -1.028  10.479  18.369  0.00  0.00    +0.000 A 
ATOM     18  C   UNL     1      -1.827  11.297  19.203  0.00  0.00    +0.000 A 
ENDROOT
TORSDOF 0
ENDMDL
MODEL 9
REMARK VINA RESULT:      -6.0      2.506      3.912
REMARK  Name = 
REMARK  2 active torsions:
REMARK  status: ('A' for Active; 'I' for Inactive)
REMARK    1  A    between atoms: C_1  and  C_2
REMARK    2  A    between atoms: C_13  and  C_14
REMARK                            x       y       z     vdW  Elec       q    Type
REMARK                         _______ _______ _______ _____ _____    ______ ____
ROOT
ATOM      1  C   UNL     1       3.821   2.114  20.329  0.00  0.00    +0.000 C 
ATOM      2  C   UNL     1       3.298   3.512  20.191  0.00  0.00    +0.000 C 
ATOM      3  C   UNL     1       2.450   4.027  21.088  0.00  0.00    +0.000 C 
ATOM      4  O   UNL     1       1.920   5.286  21.050  0.00  0.00    +0.000 OA
ATOM      5  C   UNL     1       2.248   6.166  20.021  0.00  0.00    +0.000 C 
ATOM      6  C   UNL     1       1.707   7.393  20.022  0.00  0.00    +0.000 C 
ATOM      7 BR   UNL     1       0.523   7.983  21.354  0.00  0.00    +0.000 Br
ATOM      8  C   UNL     1       2.033   8.349  18.945  0.00  0.00    +0.000 C 
ATOM      9  O   UNL     1       1.567   9.481  18.904  0.00  0.00    +0.000 OA
ATOM     10  C   UNL     1       2.980   7.901  17.855  0.00  0.00    +0.000 C 
ATOM     11  O   UNL     1       3.229   8.705  16.968  0.00  0.00    +0.000 OA
ATOM     12  C   UNL     1       3.560   6.529  17.894  0.00  0.00    +0.000 A 
ATOM     13  C   UNL     1       4.456   6.056  16.906  0.00  0.00    +0.000 A 
ATOM     14  C   UNL     1       4.958   6.817  15.706  0.00  0.00    +0.000 C 
ATOM     15  C   UNL     1       4.950   4.745  17.023  0.00  0.00    +0.000 A 
ATOM     16  C   UNL     1       4.579   3.922  18.081  0.00  0.00    +0.000 A 
ATOM     17  C   UNL     1       3.697   4.380  19.064  0.00  0.00    +0.000 A 
ATOM     18  C   UNL     1       3.181   5.695  18.973  0.00  0.00    +0.000 A 
ENDROOT
TORSDOF 0
ENDMDL
