MODEL 1
REMARK VINA RESULT:      -6.5      0.000      0.000
REMARK  Name = 
REMARK  12 active torsions:
REMARK  status: ('A' for Active; 'I' for Inactive)
REMARK    1  A    between atoms: C_1  and  N_2
REMARK    2  A    between atoms: N_2  and  C_3
REMARK    3  A    between atoms: N_2  and  C_4
REMARK    4  A    between atoms: C_4  and  C_5
REMARK    5  A    between atoms: C_5  and  O_6
REMARK    6  A    between atoms: O_6  and  N_7
REMARK    7  A    between atoms: N_7  and  C_8
REMARK    8  A    between atoms: C_8  and  C_9
REMARK    9  A    between atoms: C_12  and  O_13
REMARK   10  A    between atoms: C_19  and  O_20
REMARK   11  A    between atoms: C_23  and  C_24
REMARK   12  A    between atoms: C_28  and  C_29
REMARK                            x       y       z     vdW  Elec       q    Type
REMARK                         _______ _______ _______ _____ _____    ______ ____
ROOT
ATOM      1  C   UNL     1       0.020  10.321  19.349  0.00  0.00    +0.000 C 
ATOM      2  C   UNL     1      -0.174   9.579  20.687  0.00  0.00    +0.000 C 
ATOM      3  C   UNL     1      -0.558  10.618  21.748  0.00  0.00    +0.000 C 
ATOM      4  C   UNL     1      -0.374  11.996  21.090  0.00  0.00    +0.000 C 
ATOM      5  C   UNL     1      -1.260  13.134  21.676  0.00  0.00    +0.000 C 
ATOM      6  C   UNL     1      -1.063  13.296  23.197  0.00  0.00    +0.000 C 
ATOM      7  C   UNL     1      -1.927  14.401  23.796  0.00  0.00    +0.000 C 
ATOM      8  C   UNL     1      -3.418  14.274  23.442  0.00  0.00    +0.000 C 
ATOM      9  C   UNL     1      -4.056  13.101  24.225  0.00  0.00    +0.000 C 
ATOM     10  C   UNL     1      -5.529  12.871  23.890  0.00  0.00    +0.000 C 
ATOM     11  C   UNL     1      -5.769  12.775  22.388  0.00  0.00    +0.000 C 
ATOM     12  C   UNL     1      -5.164  13.960  21.637  0.00  0.00    +0.000 C 
ATOM     13  C   UNL     1      -3.644  14.166  21.900  0.00  0.00    +0.000 C 
ATOM     14  C   UNL     1      -3.275  15.517  21.230  0.00  0.00    +0.000 C 
ATOM     15  C   UNL     1      -2.770  12.987  21.325  0.00  0.00    +0.000 C 
ATOM     16  C   UNL     1      -2.963  12.773  19.814  0.00  0.00    +0.000 C 
ATOM     17  C   UNL     1      -2.150  11.591  19.302  0.00  0.00    +0.000 C 
ATOM     18  C   UNL     1      -0.632  11.724  19.583  0.00  0.00    +0.000 C 
ATOM     19  C   UNL     1      -0.050  12.823  18.672  0.00  0.00    +0.000 C 
ENDROOT
BRANCH   4  20
ATOM     20  O   UNL     1       1.000  12.378  21.257  0.00  0.00    +0.000 OA
ATOM     21  H   UNL     1       1.060  13.349  21.225  0.00  0.00    +0.000 HD
ENDBRANCH   4  20
BRANCH  10  22
ATOM     22  O   UNL     1      -6.327  13.910  24.452  0.00  0.00    +0.000 OA
ATOM     23  H   UNL     1      -7.062  14.101  23.847  0.00  0.00    +0.000 HD
ENDBRANCH  10  22
BRANCH   1  24
ATOM     24  C   UNL     1       1.491  10.341  18.897  0.00  0.00    +0.000 C 
BRANCH  24  25
ATOM     25  N   UNL     1       1.706   9.829  17.534  0.00  0.00    +0.000 NA
ATOM     26  H   UNL     1       0.866  10.062  17.000  0.00  0.00    +0.000 HD
BRANCH  25  27
ATOM     27  O   UNL     1       1.608   8.373  17.628  0.00  0.00    +0.000 OA
BRANCH  27  28
ATOM     28  C   UNL     1       2.832   7.887  18.195  0.00  0.00    +0.000 C 
BRANCH  28  29
ATOM     29  C   UNL     1       2.611   6.481  18.774  0.00  0.00    +0.000 C 
BRANCH  29  31
ATOM     30  C   UNL     1       4.005   4.815  17.725  0.00  0.00    +0.000 C 
ATOM     31  N   UNL     1       2.661   5.397  17.769  0.00  0.00    +0.000 NA
ATOM     32  C   UNL     1       1.679   4.346  18.040  0.00  0.00    +0.000 C 
ENDBRANCH  29  31
ENDBRANCH  28  29
ENDBRANCH  27  28
ENDBRANCH  25  27
ENDBRANCH  24  25
ENDBRANCH   1  24
TORSDOF 8
ENDMDL
MODEL 2
REMARK VINA RESULT:      -6.3      7.901     10.312
REMARK  Name = 
REMARK  12 active torsions:
REMARK  status: ('A' for Active; 'I' for Inactive)
REMARK    1  A    between atoms: C_1  and  N_2
REMARK    2  A    between atoms: N_2  and  C_3
REMARK    3  A    between atoms: N_2  and  C_4
REMARK    4  A    between atoms: C_4  and  C_5
REMARK    5  A    between atoms: C_5  and  O_6
REMARK    6  A    between atoms: O_6  and  N_7
REMARK    7  A    between atoms: N_7  and  C_8
REMARK    8  A    between atoms: C_8  and  C_9
REMARK    9  A    between atoms: C_12  and  O_13
REMARK   10  A    between atoms: C_19  and  O_20
REMARK   11  A    between atoms: C_23  and  C_24
REMARK   12  A    between atoms: C_28  and  C_29
REMARK                            x       y       z     vdW  Elec       q    Type
REMARK                         _______ _______ _______ _____ _____    ______ ____
ROOT
ATOM      1  C   UNL     1       7.053   4.748  16.168  0.00  0.00    +0.000 C 
ATOM      2  C   UNL     1       7.538   4.929  17.621  0.00  0.00    +0.000 C 
ATOM      3  C   UNL     1       6.335   5.369  18.464  0.00  0.00    +0.000 C 
ATOM      4  C   UNL     1       5.195   5.661  17.473  0.00  0.00    +0.000 C 
ATOM      5  C   UNL     1       3.758   5.499  18.049  0.00  0.00    +0.000 C 
ATOM      6  C   UNL     1       3.538   6.365  19.306  0.00  0.00    +0.000 C 
ATOM      7  C   UNL     1       2.137   6.218  19.893  0.00  0.00    +0.000 C 
ATOM      8  C   UNL     1       1.730   4.758  20.149  0.00  0.00    +0.000 C 
ATOM      9  C   UNL     1       2.499   4.193  21.369  0.00  0.00    +0.000 C 
ATOM     10  C   UNL     1       2.191   2.726  21.661  0.00  0.00    +0.000 C 
ATOM     11  C   UNL     1       2.333   1.851  20.421  0.00  0.00    +0.000 C 
ATOM     12  C   UNL     1       1.538   2.404  19.239  0.00  0.00    +0.000 C 
ATOM     13  C   UNL     1       1.892   3.874  18.872  0.00  0.00    +0.000 C 
ATOM     14  C   UNL     1       0.848   4.310  17.809  0.00  0.00    +0.000 C 
ATOM     15  C   UNL     1       3.362   4.017  18.320  0.00  0.00    +0.000 C 
ATOM     16  C   UNL     1       3.631   3.143  17.083  0.00  0.00    +0.000 C 
ATOM     17  C   UNL     1       5.074   3.262  16.611  0.00  0.00    +0.000 C 
ATOM     18  C   UNL     1       5.494   4.715  16.278  0.00  0.00    +0.000 C 
ATOM     19  C   UNL     1       4.784   5.154  14.981  0.00  0.00    +0.000 C 
ENDROOT
BRANCH   4  20
ATOM     20  O   UNL     1       5.341   7.018  17.030  0.00  0.00    +0.000 OA
ATOM     21  H   UNL     1       4.985   7.092  16.127  0.00  0.00    +0.000 HD
ENDBRANCH   4  20
BRANCH  10  22
ATOM     22  O   UNL     1       0.880   2.599  22.207  0.00  0.00    +0.000 OA
ATOM     23  H   UNL     1       0.939   2.127  23.053  0.00  0.00    +0.000 HD
ENDBRANCH  10  22
BRANCH   1  24
ATOM     24  C   UNL     1       7.630   5.815  15.220  0.00  0.00    +0.000 C 
BRANCH  24  25
ATOM     25  N   UNL     1       8.243   5.265  14.001  0.00  0.00    +0.000 NA
ATOM     26  H   UNL     1       8.987   5.912  13.730  0.00  0.00    +0.000 HD
BRANCH  25  27
ATOM     27  O   UNL     1       7.267   5.464  12.930  0.00  0.00    +0.000 OA
BRANCH  27  28
ATOM     28  C   UNL     1       7.187   4.245  12.179  0.00  0.00    +0.000 C 
BRANCH  28  29
ATOM     29  C   UNL     1       6.234   3.266  12.882  0.00  0.00    +0.000 C 
BRANCH  29  31
ATOM     30  C   UNL     1       4.465   3.162  11.246  0.00  0.00    +0.000 C 
ATOM     31  N   UNL     1       5.481   2.386  11.962  0.00  0.00    +0.000 NA
ATOM     32  C   UNL     1       6.355   1.716  10.998  0.00  0.00    +0.000 C 
ENDBRANCH  29  31
ENDBRANCH  28  29
ENDBRANCH  27  28
ENDBRANCH  25  27
ENDBRANCH  24  25
ENDBRANCH   1  24
TORSDOF 8
ENDMDL
MODEL 3
REMARK VINA RESULT:      -6.1      7.741     10.178
REMARK  Name = 
REMARK  12 active torsions:
REMARK  status: ('A' for Active; 'I' for Inactive)
REMARK    1  A    between atoms: C_1  and  N_2
REMARK    2  A    between atoms: N_2  and  C_3
REMARK    3  A    between atoms: N_2  and  C_4
REMARK    4  A    between atoms: C_4  and  C_5
REMARK    5  A    between atoms: C_5  and  O_6
REMARK    6  A    between atoms: O_6  and  N_7
REMARK    7  A    between atoms: N_7  and  C_8
REMARK    8  A    between atoms: C_8  and  C_9
REMARK    9  A    between atoms: C_12  and  O_13
REMARK   10  A    between atoms: C_19  and  O_20
REMARK   11  A    between atoms: C_23  and  C_24
REMARK   12  A    between atoms: C_28  and  C_29
REMARK                            x       y       z     vdW  Elec       q    Type
REMARK                         _______ _______ _______ _____ _____    ______ ____
ROOT
ATOM      1  C   UNL     1       7.109   5.256  16.951  0.00  0.00    +0.000 C 
ATOM      2  C   UNL     1       7.406   5.482  18.448  0.00  0.00    +0.000 C 
ATOM      3  C   UNL     1       6.071   5.744  19.156  0.00  0.00    +0.000 C 
ATOM      4  C   UNL     1       5.015   5.892  18.048  0.00  0.00    +0.000 C 
ATOM      5  C   UNL     1       3.560   5.528  18.466  0.00  0.00    +0.000 C 
ATOM      6  C   UNL     1       3.091   6.340  19.690  0.00  0.00    +0.000 C 
ATOM      7  C   UNL     1       1.669   5.996  20.124  0.00  0.00    +0.000 C 
ATOM      8  C   UNL     1       1.439   4.491  20.337  0.00  0.00    +0.000 C 
ATOM      9  C   UNL     1       2.143   4.020  21.633  0.00  0.00    +0.000 C 
ATOM     10  C   UNL     1       2.009   2.520  21.891  0.00  0.00    +0.000 C 
ATOM     11  C   UNL     1       2.401   1.689  20.675  0.00  0.00    +0.000 C 
ATOM     12  C   UNL     1       1.669   2.145  19.414  0.00  0.00    +0.000 C 
ATOM     13  C   UNL     1       1.856   3.655  19.085  0.00  0.00    +0.000 C 
ATOM     14  C   UNL     1       0.882   3.960  17.915  0.00  0.00    +0.000 C 
ATOM     15  C   UNL     1       3.343   4.003  18.694  0.00  0.00    +0.000 C 
ATOM     16  C   UNL     1       3.859   3.191  17.494  0.00  0.00    +0.000 C 
ATOM     17  C   UNL     1       5.315   3.510  17.180  0.00  0.00    +0.000 C 
ATOM     18  C   UNL     1       5.565   5.012  16.893  0.00  0.00    +0.000 C 
ATOM     19  C   UNL     1       4.945   5.368  15.527  0.00  0.00    +0.000 C 
ENDROOT
BRANCH   4  20
ATOM     20  O   UNL     1       5.022   7.262  17.621  0.00  0.00    +0.000 OA
ATOM     21  H   UNL     1       5.761   7.393  17.001  0.00  0.00    +0.000 HD
ENDBRANCH   4  20
BRANCH  10  22
ATOM     22  O   UNL     1       0.677   2.209  22.294  0.00  0.00    +0.000 OA
ATOM     23  H   UNL     1       0.620   1.257  22.477  0.00  0.00    +0.000 HD
ENDBRANCH  10  22
BRANCH   1  24
ATOM     24  C   UNL     1       7.632   6.405  16.069  0.00  0.00    +0.000 C 
BRANCH  24  25
ATOM     25  N   UNL     1       8.350   7.452  16.812  0.00  0.00    +0.000 NA
ATOM     26  H   UNL     1       8.603   7.047  17.716  0.00  0.00    +0.000 HD
BRANCH  25  27
ATOM     27  O   UNL     1       7.341   8.439  17.198  0.00  0.00    +0.000 OA
BRANCH  27  28
ATOM     28  C   UNL     1       8.027   9.638  17.585  0.00  0.00    +0.000 C 
BRANCH  28  29
ATOM     29  C   UNL     1       8.819   9.386  18.877  0.00  0.00    +0.000 C 
BRANCH  29  31
ATOM     30  C   UNL     1       9.546  11.623  18.338  0.00  0.00    +0.000 C 
ATOM     31  N   UNL     1       9.668  10.522  19.298  0.00  0.00    +0.000 NA
ATOM     32  C   UNL     1       9.327  10.999  20.639  0.00  0.00    +0.000 C 
ENDBRANCH  29  31
ENDBRANCH  28  29
ENDBRANCH  27  28
ENDBRANCH  25  27
ENDBRANCH  24  25
ENDBRANCH   1  24
TORSDOF 8
ENDMDL
MODEL 4
REMARK VINA RESULT:      -6.1      0.977      1.129
REMARK  Name = 
REMARK  12 active torsions:
REMARK  status: ('A' for Active; 'I' for Inactive)
REMARK    1  A    between atoms: C_1  and  N_2
REMARK    2  A    between atoms: N_2  and  C_3
REMARK    3  A    between atoms: N_2  and  C_4
REMARK    4  A    between atoms: C_4  and  C_5
REMARK    5  A    between atoms: C_5  and  O_6
REMARK    6  A    between atoms: O_6  and  N_7
REMARK    7  A    between atoms: N_7  and  C_8
REMARK    8  A    between atoms: C_8  and  C_9
REMARK    9  A    between atoms: C_12  and  O_13
REMARK   10  A    between atoms: C_19  and  O_20
REMARK   11  A    between atoms: C_23  and  C_24
REMARK   12  A    between atoms: C_28  and  C_29
REMARK                            x       y       z     vdW  Elec       q    Type
REMARK                         _______ _______ _______ _____ _____    ______ ____
ROOT
ATOM      1  C   UNL     1       0.026  10.002  19.589  0.00  0.00    +0.000 C 
ATOM      2  C   UNL     1      -0.221   9.361  20.970  0.00  0.00    +0.000 C 
ATOM      3  C   UNL     1      -0.592  10.484  21.946  0.00  0.00    +0.000 C 
ATOM      4  C   UNL     1      -0.347  11.806  21.199  0.00  0.00    +0.000 C 
ATOM      5  C   UNL     1      -1.207  13.010  21.684  0.00  0.00    +0.000 C 
ATOM      6  C   UNL     1      -1.037  13.272  23.194  0.00  0.00    +0.000 C 
ATOM      7  C   UNL     1      -1.876  14.444  23.694  0.00  0.00    +0.000 C 
ATOM      8  C   UNL     1      -3.362  14.341  23.315  0.00  0.00    +0.000 C 
ATOM      9  C   UNL     1      -4.057  13.246  24.161  0.00  0.00    +0.000 C 
ATOM     10  C   UNL     1      -5.529  13.041  23.808  0.00  0.00    +0.000 C 
ATOM     11  C   UNL     1      -5.739  12.848  22.311  0.00  0.00    +0.000 C 
ATOM     12  C   UNL     1      -5.079  13.957  21.494  0.00  0.00    +0.000 C 
ATOM     13  C   UNL     1      -3.559  14.132  21.779  0.00  0.00    +0.000 C 
ATOM     14  C   UNL     1      -3.130  15.420  21.026  0.00  0.00    +0.000 C 
ATOM     15  C   UNL     1      -2.713  12.888  21.308  0.00  0.00    +0.000 C 
ATOM     16  C   UNL     1      -2.881  12.575  19.811  0.00  0.00    +0.000 C 
ATOM     17  C   UNL     1      -2.097  11.335  19.402  0.00  0.00    +0.000 C 
ATOM     18  C   UNL     1      -0.582  11.437  19.710  0.00  0.00    +0.000 C 
ATOM     19  C   UNL     1       0.056  12.451  18.739  0.00  0.00    +0.000 C 
ENDROOT
BRANCH   4  20
ATOM     20  O   UNL     1       1.035  12.154  21.372  0.00  0.00    +0.000 OA
ATOM     21  H   UNL     1       1.194  12.341  22.314  0.00  0.00    +0.000 HD
ENDBRANCH   4  20
BRANCH  10  22
ATOM     22  O   UNL     1      -6.303  14.142  24.278  0.00  0.00    +0.000 OA
ATOM     23  H   UNL     1      -6.405  14.064  25.240  0.00  0.00    +0.000 HD
ENDBRANCH  10  22
BRANCH   1  24
ATOM     24  C   UNL     1       1.507   9.942  19.171  0.00  0.00    +0.000 C 
BRANCH  24  25
ATOM     25  N   UNL     1       1.885   8.699  18.481  0.00  0.00    +0.000 NA
ATOM     26  H   UNL     1       1.019   8.286  18.128  0.00  0.00    +0.000 HD
BRANCH  25  27
ATOM     27  O   UNL     1       2.264   7.752  19.529  0.00  0.00    +0.000 OA
BRANCH  27  28
ATOM     28  C   UNL     1       2.617   6.515  18.894  0.00  0.00    +0.000 C 
BRANCH  28  29
ATOM     29  C   UNL     1       2.671   5.393  19.943  0.00  0.00    +0.000 C 
BRANCH  29  31
ATOM     30  C   UNL     1       1.666   3.621  18.650  0.00  0.00    +0.000 C 
ATOM     31  N   UNL     1       1.547   4.435  19.863  0.00  0.00    +0.000 NA
ATOM     32  C   UNL     1       1.481   3.561  21.035  0.00  0.00    +0.000 C 
ENDBRANCH  29  31
ENDBRANCH  28  29
ENDBRANCH  27  28
ENDBRANCH  25  27
ENDBRANCH  24  25
ENDBRANCH   1  24
TORSDOF 8
ENDMDL
MODEL 5
REMARK VINA RESULT:      -6.1      1.623      1.972
REMARK  Name = 
REMARK  12 active torsions:
REMARK  status: ('A' for Active; 'I' for Inactive)
REMARK    1  A    between atoms: C_1  and  N_2
REMARK    2  A    between atoms: N_2  and  C_3
REMARK    3  A    between atoms: N_2  and  C_4
REMARK    4  A    between atoms: C_4  and  C_5
REMARK    5  A    between atoms: C_5  and  O_6
REMARK    6  A    between atoms: O_6  and  N_7
REMARK    7  A    between atoms: N_7  and  C_8
REMARK    8  A    between atoms: C_8  and  C_9
REMARK    9  A    between atoms: C_12  and  O_13
REMARK   10  A    between atoms: C_19  and  O_20
REMARK   11  A    between atoms: C_23  and  C_24
REMARK   12  A    between atoms: C_28  and  C_29
REMARK                            x       y       z     vdW  Elec       q    Type
REMARK                         _______ _______ _______ _____ _____    ______ ____
ROOT
ATOM      1  C   UNL     1       0.383   8.776  20.063  0.00  0.00    +0.000 C 
ATOM      2  C   UNL     1      -0.262   8.325  21.390  0.00  0.00    +0.000 C 
ATOM      3  C   UNL     1      -0.641   9.585  22.177  0.00  0.00    +0.000 C 
ATOM      4  C   UNL     1      -0.022  10.772  21.420  0.00  0.00    +0.000 C 
ATOM      5  C   UNL     1      -0.752  12.133  21.613  0.00  0.00    +0.000 C 
ATOM      6  C   UNL     1      -0.871  12.521  23.100  0.00  0.00    +0.000 C 
ATOM      7  C   UNL     1      -1.590  13.850  23.315  0.00  0.00    +0.000 C 
ATOM      8  C   UNL     1      -2.954  13.930  22.612  0.00  0.00    +0.000 C 
ATOM      9  C   UNL     1      -3.989  13.043  23.347  0.00  0.00    +0.000 C 
ATOM     10  C   UNL     1      -5.363  13.024  22.679  0.00  0.00    +0.000 C 
ATOM     11  C   UNL     1      -5.274  12.711  21.190  0.00  0.00    +0.000 C 
ATOM     12  C   UNL     1      -4.276  13.620  20.475  0.00  0.00    +0.000 C 
ATOM     13  C   UNL     1      -2.846  13.596  21.090  0.00  0.00    +0.000 C 
ATOM     14  C   UNL     1      -2.055  14.722  20.371  0.00  0.00    +0.000 C 
ATOM     15  C   UNL     1      -2.140  12.198  20.909  0.00  0.00    +0.000 C 
ATOM     16  C   UNL     1      -2.030  11.761  19.438  0.00  0.00    +0.000 C 
ATOM     17  C   UNL     1      -1.396  10.383  19.304  0.00  0.00    +0.000 C 
ATOM     18  C   UNL     1       0.012  10.291  19.944  0.00  0.00    +0.000 C 
ATOM     19  C   UNL     1       1.006  11.094  19.081  0.00  0.00    +0.000 C 
ENDROOT
BRANCH   4  20
ATOM     20  O   UNL     1       1.328  10.927  21.882  0.00  0.00    +0.000 OA
ATOM     21  H   UNL     1       1.859  11.322  21.168  0.00  0.00    +0.000 HD
ENDBRANCH   4  20
BRANCH  10  22
ATOM     22  O   UNL     1      -6.024  14.270  22.884  0.00  0.00    +0.000 OA
ATOM     23  H   UNL     1      -5.849  14.845  22.121  0.00  0.00    +0.000 HD
ENDBRANCH  10  22
BRANCH   1  24
ATOM     24  C   UNL     1       1.887   8.455  20.002  0.00  0.00    +0.000 C 
BRANCH  24  25
ATOM     25  N   UNL     1       2.229   7.098  20.458  0.00  0.00    +0.000 NA
ATOM     26  H   UNL     1       3.161   7.156  20.874  0.00  0.00    +0.000 HD
BRANCH  25  27
ATOM     27  O   UNL     1       2.488   6.317  19.249  0.00  0.00    +0.000 OA
BRANCH  27  28
ATOM     28  C   UNL     1       3.647   5.507  19.491  0.00  0.00    +0.000 C 
BRANCH  28  29
ATOM     29  C   UNL     1       3.213   4.070  19.820  0.00  0.00    +0.000 C 
BRANCH  29  31
ATOM     30  C   UNL     1       1.351   3.065  18.661  0.00  0.00    +0.000 C 
ATOM     31  N   UNL     1       1.748   3.865  19.822  0.00  0.00    +0.000 NA
ATOM     32  C   UNL     1       1.282   3.216  21.049  0.00  0.00    +0.000 C 
ENDBRANCH  29  31
ENDBRANCH  28  29
ENDBRANCH  27  28
ENDBRANCH  25  27
ENDBRANCH  24  25
ENDBRANCH   1  24
TORSDOF 8
ENDMDL
MODEL 6
REMARK VINA RESULT:      -5.9      7.963     11.986
REMARK  Name = 
REMARK  12 active torsions:
REMARK  status: ('A' for Active; 'I' for Inactive)
REMARK    1  A    between atoms: C_1  and  N_2
REMARK    2  A    between atoms: N_2  and  C_3
REMARK    3  A    between atoms: N_2  and  C_4
REMARK    4  A    between atoms: C_4  and  C_5
REMARK    5  A    between atoms: C_5  and  O_6
REMARK    6  A    between atoms: O_6  and  N_7
REMARK    7  A    between atoms: N_7  and  C_8
REMARK    8  A    between atoms: C_8  and  C_9
REMARK    9  A    between atoms: C_12  and  O_13
REMARK   10  A    between atoms: C_19  and  O_20
REMARK   11  A    between atoms: C_23  and  C_24
REMARK   12  A    between atoms: C_28  and  C_29
REMARK                            x       y       z     vdW  Elec       q    Type
REMARK                         _______ _______ _______ _____ _____    ______ ____
ROOT
ATOM      1  C   UNL     1       4.871  15.920  20.007  0.00  0.00    +0.000 C 
ATOM      2  C   UNL     1       4.805  15.280  18.605  0.00  0.00    +0.000 C 
ATOM      3  C   UNL     1       6.215  15.325  18.004  0.00  0.00    +0.000 C 
ATOM      4  C   UNL     1       7.064  16.186  18.953  0.00  0.00    +0.000 C 
ATOM      5  C   UNL     1       8.590  15.876  18.942  0.00  0.00    +0.000 C 
ATOM      6  C   UNL     1       9.192  15.983  17.527  0.00  0.00    +0.000 C 
ATOM      7  C   UNL     1      10.686  15.677  17.490  0.00  0.00    +0.000 C 
ATOM      8  C   UNL     1      11.055  14.338  18.148  0.00  0.00    +0.000 C 
ATOM      9  C   UNL     1      10.605  13.158  17.250  0.00  0.00    +0.000 C 
ATOM     10  C   UNL     1      10.887  11.785  17.858  0.00  0.00    +0.000 C 
ATOM     11  C   UNL     1      10.364  11.670  19.285  0.00  0.00    +0.000 C 
ATOM     12  C   UNL     1      10.848  12.822  20.164  0.00  0.00    +0.000 C 
ATOM     13  C   UNL     1      10.502  14.232  19.605  0.00  0.00    +0.000 C 
ATOM     14  C   UNL     1      11.249  15.245  20.513  0.00  0.00    +0.000 C 
ATOM     15  C   UNL     1       8.950  14.510  19.598  0.00  0.00    +0.000 C 
ATOM     16  C   UNL     1       8.306  14.382  20.988  0.00  0.00    +0.000 C 
ATOM     17  C   UNL     1       6.800  14.601  20.935  0.00  0.00    +0.000 C 
ATOM     18  C   UNL     1       6.399  15.973  20.340  0.00  0.00    +0.000 C 
ATOM     19  C   UNL     1       6.763  17.080  21.350  0.00  0.00    +0.000 C 
ENDROOT
BRANCH   4  20
ATOM     20  O   UNL     1       6.891  17.558  18.569  0.00  0.00    +0.000 OA
ATOM     21  H   UNL     1       6.146  17.932  19.072  0.00  0.00    +0.000 HD
ENDBRANCH   4  20
BRANCH  10  22
ATOM     22  O   UNL     1      12.285  11.510  17.820  0.00  0.00    +0.000 OA
ATOM     23  H   UNL     1      12.770  12.349  17.884  0.00  0.00    +0.000 HD
ENDBRANCH  10  22
BRANCH   1  24
ATOM     24  C   UNL     1       4.131  17.269  20.073  0.00  0.00    +0.000 C 
BRANCH  24  25
ATOM     25  N   UNL     1       2.997  17.375  19.143  0.00  0.00    +0.000 NA
ATOM     26  H   UNL     1       3.264  18.059  18.432  0.00  0.00    +0.000 HD
BRANCH  25  27
ATOM     27  O   UNL     1       1.945  18.089  19.866  0.00  0.00    +0.000 OA
BRANCH  27  28
ATOM     28  C   UNL     1       0.762  17.279  19.832  0.00  0.00    +0.000 C 
BRANCH  28  29
ATOM     29  C   UNL     1       0.967  16.105  18.862  0.00  0.00    +0.000 C 
BRANCH  29  31
ATOM     30  C   UNL     1       0.183  14.545  20.527  0.00  0.00    +0.000 C 
ATOM     31  N   UNL     1       1.221  14.808  19.526  0.00  0.00    +0.000 NA
ATOM     32  C   UNL     1       1.275  13.700  18.572  0.00  0.00    +0.000 C 
ENDBRANCH  29  31
ENDBRANCH  28  29
ENDBRANCH  27  28
ENDBRANCH  25  27
ENDBRANCH  24  25
ENDBRANCH   1  24
TORSDOF 8
ENDMDL
MODEL 7
REMARK VINA RESULT:      -5.8      1.411      2.933
REMARK  Name = 
REMARK  12 active torsions:
REMARK  status: ('A' for Active; 'I' for Inactive)
REMARK    1  A    between atoms: C_1  and  N_2
REMARK    2  A    between atoms: N_2  and  C_3
REMARK    3  A    between atoms: N_2  and  C_4
REMARK    4  A    between atoms: C_4  and  C_5
REMARK    5  A    between atoms: C_5  and  O_6
REMARK    6  A    between atoms: O_6  and  N_7
REMARK    7  A    between atoms: N_7  and  C_8
REMARK    8  A    between atoms: C_8  and  C_9
REMARK    9  A    between atoms: C_12  and  O_13
REMARK   10  A    between atoms: C_19  and  O_20
REMARK   11  A    between atoms: C_23  and  C_24
REMARK   12  A    between atoms: C_28  and  C_29
REMARK                            x       y       z     vdW  Elec       q    Type
REMARK                         _______ _______ _______ _____ _____    ______ ____
ROOT
ATOM      1  C   UNL     1       0.799  11.463  19.319  0.00  0.00    +0.000 C 
ATOM      2  C   UNL     1       0.396  12.725  18.529  0.00  0.00    +0.000 C 
ATOM      3  C   UNL     1      -1.018  13.120  18.970  0.00  0.00    +0.000 C 
ATOM      4  C   UNL     1      -1.535  11.971  19.852  0.00  0.00    +0.000 C 
ATOM      5  C   UNL     1      -2.610  12.375  20.903  0.00  0.00    +0.000 C 
ATOM      6  C   UNL     1      -3.825  13.065  20.252  0.00  0.00    +0.000 C 
ATOM      7  C   UNL     1      -4.890  13.476  21.264  0.00  0.00    +0.000 C 
ATOM      8  C   UNL     1      -4.339  14.311  22.431  0.00  0.00    +0.000 C 
ATOM      9  C   UNL     1      -3.987  15.740  21.948  0.00  0.00    +0.000 C 
ATOM     10  C   UNL     1      -3.379  16.622  23.037  0.00  0.00    +0.000 C 
ATOM     11  C   UNL     1      -2.217  15.940  23.748  0.00  0.00    +0.000 C 
ATOM     12  C   UNL     1      -2.594  14.547  24.250  0.00  0.00    +0.000 C 
ATOM     13  C   UNL     1      -3.142  13.602  23.141  0.00  0.00    +0.000 C 
ATOM     14  C   UNL     1      -3.657  12.336  23.876  0.00  0.00    +0.000 C 
ATOM     15  C   UNL     1      -2.043  13.233  22.072  0.00  0.00    +0.000 C 
ATOM     16  C   UNL     1      -0.800  12.569  22.687  0.00  0.00    +0.000 C 
ATOM     17  C   UNL     1       0.264  12.278  21.636  0.00  0.00    +0.000 C 
ATOM     18  C   UNL     1      -0.244  11.380  20.481  0.00  0.00    +0.000 C 
ATOM     19  C   UNL     1      -0.446   9.948  21.015  0.00  0.00    +0.000 C 
ENDROOT
BRANCH   4  20
ATOM     20  O   UNL     1      -2.114  10.985  18.985  0.00  0.00    +0.000 OA
ATOM     21  H   UNL     1      -1.419  10.636  18.400  0.00  0.00    +0.000 HD
ENDBRANCH   4  20
BRANCH  10  22
ATOM     22  O   UNL     1      -4.382  16.998  23.978  0.00  0.00    +0.000 OA
ATOM     23  H   UNL     1      -4.567  17.946  23.875  0.00  0.00    +0.000 HD
ENDBRANCH  10  22
BRANCH   1  24
ATOM     24  C   UNL     1       0.894  10.215  18.423  0.00  0.00    +0.000 C 
BRANCH  24  25
ATOM     25  N   UNL     1       2.130  10.140  17.629  0.00  0.00    +0.000 NA
ATOM     26  H   UNL     1       1.966  10.685  16.780  0.00  0.00    +0.000 HD
BRANCH  25  27
ATOM     27  O   UNL     1       2.193   8.776  17.103  0.00  0.00    +0.000 OA
BRANCH  27  28
ATOM     28  C   UNL     1       2.676   7.924  18.150  0.00  0.00    +0.000 C 
BRANCH  28  29
ATOM     29  C   UNL     1       3.834   7.063  17.623  0.00  0.00    +0.000 C 
BRANCH  29  31
ATOM     30  C   UNL     1       2.318   5.237  18.053  0.00  0.00    +0.000 C 
ATOM     31  N   UNL     1       3.727   5.628  17.965  0.00  0.00    +0.000 NA
ATOM     32  C   UNL     1       4.414   4.776  16.994  0.00  0.00    +0.000 C 
ENDBRANCH  29  31
ENDBRANCH  28  29
ENDBRANCH  27  28
ENDBRANCH  25  27
ENDBRANCH  24  25
ENDBRANCH   1  24
TORSDOF 8
ENDMDL
MODEL 8
REMARK VINA RESULT:      -5.7      1.362      1.532
REMARK  Name = 
REMARK  12 active torsions:
REMARK  status: ('A' for Active; 'I' for Inactive)
REMARK    1  A    between atoms: C_1  and  N_2
REMARK    2  A    between atoms: N_2  and  C_3
REMARK    3  A    between atoms: N_2  and  C_4
REMARK    4  A    between atoms: C_4  and  C_5
REMARK    5  A    between atoms: C_5  and  O_6
REMARK    6  A    between atoms: O_6  and  N_7
REMARK    7  A    between atoms: N_7  and  C_8
REMARK    8  A    between atoms: C_8  and  C_9
REMARK    9  A    between atoms: C_12  and  O_13
REMARK   10  A    between atoms: C_19  and  O_20
REMARK   11  A    between atoms: C_23  and  C_24
REMARK   12  A    between atoms: C_28  and  C_29
REMARK                            x       y       z     vdW  Elec       q    Type
REMARK                         _______ _______ _______ _____ _____    ______ ____
ROOT
ATOM      1  C   UNL     1       0.245   8.945  19.899  0.00  0.00    +0.000 C 
ATOM      2  C   UNL     1      -0.354   8.459  21.235  0.00  0.00    +0.000 C 
ATOM      3  C   UNL     1      -0.690   9.697  22.075  0.00  0.00    +0.000 C 
ATOM      4  C   UNL     1      -0.088  10.901  21.331  0.00  0.00    +0.000 C 
ATOM      5  C   UNL     1      -0.796  12.263  21.592  0.00  0.00    +0.000 C 
ATOM      6  C   UNL     1      -0.855  12.605  23.094  0.00  0.00    +0.000 C 
ATOM      7  C   UNL     1      -1.551  13.934  23.376  0.00  0.00    +0.000 C 
ATOM      8  C   UNL     1      -2.940  14.048  22.729  0.00  0.00    +0.000 C 
ATOM      9  C   UNL     1      -3.955  13.149  23.476  0.00  0.00    +0.000 C 
ATOM     10  C   UNL     1      -5.353  13.162  22.861  0.00  0.00    +0.000 C 
ATOM     11  C   UNL     1      -5.325  12.895  21.361  0.00  0.00    +0.000 C 
ATOM     12  C   UNL     1      -4.345  13.816  20.636  0.00  0.00    +0.000 C 
ATOM     13  C   UNL     1      -2.893  13.760  21.194  0.00  0.00    +0.000 C 
ATOM     14  C   UNL     1      -2.118  14.900  20.480  0.00  0.00    +0.000 C 
ATOM     15  C   UNL     1      -2.209  12.362  20.944  0.00  0.00    +0.000 C 
ATOM     16  C   UNL     1      -2.159  11.970  19.458  0.00  0.00    +0.000 C 
ATOM     17  C   UNL     1      -1.544  10.591  19.258  0.00  0.00    +0.000 C 
ATOM     18  C   UNL     1      -0.115  10.466  19.841  0.00  0.00    +0.000 C 
ATOM     19  C   UNL     1       0.854  11.285  18.965  0.00  0.00    +0.000 C 
ENDROOT
BRANCH   4  20
ATOM     20  O   UNL     1       1.280  11.030  21.745  0.00  0.00    +0.000 OA
ATOM     21  H   UNL     1       1.848  10.593  21.086  0.00  0.00    +0.000 HD
ENDBRANCH   4  20
BRANCH  10  22
ATOM     22  O   UNL     1      -5.994  14.408  23.128  0.00  0.00    +0.000 OA
ATOM     23  H   UNL     1      -5.873  14.626  24.066  0.00  0.00    +0.000 HD
ENDBRANCH  10  22
BRANCH   1  24
ATOM     24  C   UNL     1       1.743   8.611  19.771  0.00  0.00    +0.000 C 
BRANCH  24  25
ATOM     25  N   UNL     1       2.140   7.370  20.452  0.00  0.00    +0.000 NA
ATOM     26  H   UNL     1       2.661   7.648  21.287  0.00  0.00    +0.000 HD
BRANCH  25  27
ATOM     27  O   UNL     1       3.191   6.774  19.628  0.00  0.00    +0.000 OA
BRANCH  27  28
ATOM     28  C   UNL     1       2.641   6.526  18.327  0.00  0.00    +0.000 C 
BRANCH  28  29
ATOM     29  C   UNL     1       3.507   5.495  17.587  0.00  0.00    +0.000 C 
BRANCH  29  31
ATOM     30  C   UNL     1       3.704   3.355  18.683  0.00  0.00    +0.000 C 
ATOM     31  N   UNL     1       2.989   4.111  17.651  0.00  0.00    +0.000 NA
ATOM     32  C   UNL     1       1.551   4.070  17.921  0.00  0.00    +0.000 C 
ENDBRANCH  29  31
ENDBRANCH  28  29
ENDBRANCH  27  28
ENDBRANCH  25  27
ENDBRANCH  24  25
ENDBRANCH   1  24
TORSDOF 8
ENDMDL
MODEL 9
REMARK VINA RESULT:      -5.7      1.434      1.660
REMARK  Name = 
REMARK  12 active torsions:
REMARK  status: ('A' for Active; 'I' for Inactive)
REMARK    1  A    between atoms: C_1  and  N_2
REMARK    2  A    between atoms: N_2  and  C_3
REMARK    3  A    between atoms: N_2  and  C_4
REMARK    4  A    between atoms: C_4  and  C_5
REMARK    5  A    between atoms: C_5  and  O_6
REMARK    6  A    between atoms: O_6  and  N_7
REMARK    7  A    between atoms: N_7  and  C_8
REMARK    8  A    between atoms: C_8  and  C_9
REMARK    9  A    between atoms: C_12  and  O_13
REMARK   10  A    between atoms: C_19  and  O_20
REMARK   11  A    between atoms: C_23  and  C_24
REMARK   12  A    between atoms: C_28  and  C_29
REMARK                            x       y       z     vdW  Elec       q    Type
REMARK                         _______ _______ _______ _____ _____    ______ ____
ROOT
ATOM      1  C   UNL     1       0.262   9.047  19.994  0.00  0.00    +0.000 C 
ATOM      2  C   UNL     1      -0.255   8.619  21.383  0.00  0.00    +0.000 C 
ATOM      3  C   UNL     1      -0.591   9.891  22.169  0.00  0.00    +0.000 C 
ATOM      4  C   UNL     1      -0.066  11.070  21.332  0.00  0.00    +0.000 C 
ATOM      5  C   UNL     1      -0.806  12.421  21.554  0.00  0.00    +0.000 C 
ATOM      6  C   UNL     1      -0.803  12.845  23.036  0.00  0.00    +0.000 C 
ATOM      7  C   UNL     1      -1.529  14.165  23.280  0.00  0.00    +0.000 C 
ATOM      8  C   UNL     1      -2.951  14.200  22.698  0.00  0.00    +0.000 C 
ATOM      9  C   UNL     1      -3.898  13.314  23.543  0.00  0.00    +0.000 C 
ATOM     10  C   UNL     1      -5.324  13.250  22.999  0.00  0.00    +0.000 C 
ATOM     11  C   UNL     1      -5.359  12.900  21.516  0.00  0.00    +0.000 C 
ATOM     12  C   UNL     1      -4.447  13.809  20.694  0.00  0.00    +0.000 C 
ATOM     13  C   UNL     1      -2.969  13.829  21.181  0.00  0.00    +0.000 C 
ATOM     14  C   UNL     1      -2.268  14.950  20.368  0.00  0.00    +0.000 C 
ATOM     15  C   UNL     1      -2.251  12.441  20.973  0.00  0.00    +0.000 C 
ATOM     16  C   UNL     1      -2.260  11.967  19.510  0.00  0.00    +0.000 C 
ATOM     17  C   UNL     1      -1.610  10.599  19.355  0.00  0.00    +0.000 C 
ATOM     18  C   UNL     1      -0.151  10.550  19.871  0.00  0.00    +0.000 C 
ATOM     19  C   UNL     1       0.747  11.349  18.904  0.00  0.00    +0.000 C 
ENDROOT
BRANCH   4  20
ATOM     20  O   UNL     1       1.315  11.263  21.670  0.00  0.00    +0.000 OA
ATOM     21  H   UNL     1       1.865  10.810  21.006  0.00  0.00    +0.000 HD
ENDBRANCH   4  20
BRANCH  10  22
ATOM     22  O   UNL     1      -5.992  14.488  23.229  0.00  0.00    +0.000 OA
ATOM     23  H   UNL     1      -6.651  14.623  22.529  0.00  0.00    +0.000 HD
ENDBRANCH  10  22
BRANCH   1  24
ATOM     24  C   UNL     1       1.762   8.753  19.809  0.00  0.00    +0.000 C 
BRANCH  24  25
ATOM     25  N   UNL     1       2.173   7.420  20.276  0.00  0.00    +0.000 NA
ATOM     26  H   UNL     1       3.090   7.533  20.713  0.00  0.00    +0.000 HD
BRANCH  25  27
ATOM     27  O   UNL     1       2.507   6.655  19.074  0.00  0.00    +0.000 OA
BRANCH  27  28
ATOM     28  C   UNL     1       2.821   5.316  19.481  0.00  0.00    +0.000 C 
BRANCH  28  29
ATOM     29  C   UNL     1       4.339   5.094  19.402  0.00  0.00    +0.000 C 
BRANCH  29  31
ATOM     30  C   UNL     1       6.305   4.709  18.057  0.00  0.00    +0.000 C 
ATOM     31  N   UNL     1       4.854   4.911  18.027  0.00  0.00    +0.000 NA
ATOM     32  C   UNL     1       4.216   3.785  17.343  0.00  0.00    +0.000 C 
ENDBRANCH  29  31
ENDBRANCH  28  29
ENDBRANCH  27  28
ENDBRANCH  25  27
ENDBRANCH  24  25
ENDBRANCH   1  24
TORSDOF 8
ENDMDL
