MODEL 1
REMARK VINA RESULT:      -7.3      0.000      0.000
REMARK  Name = 
REMARK  9 active torsions:
REMARK  status: ('A' for Active; 'I' for Inactive)
REMARK    1  A    between atoms: C_1  and  C_2
REMARK    2  A    between atoms: C_2  and  C_3
REMARK    3  A    between atoms: C_2  and  C_4
REMARK    4  A    between atoms: C_2  and  C_5
REMARK    5  A    between atoms: C_8  and  O_9
REMARK    6  A    between atoms: O_9  and  C_10
REMARK    7  A    between atoms: C_10  and  C_11
REMARK    8  A    between atoms: C_14  and  C_15
REMARK    9  A    between atoms: C_15  and  O_17
REMARK                            x       y       z     vdW  Elec       q    Type
REMARK                         _______ _______ _______ _____ _____    ______ ____
ROOT
ATOM      1  O   UNL     1       2.734   7.486  19.247  0.00  0.00    +0.000 OA
ENDROOT
BRANCH   1   5
ATOM      2  C   UNL     1      -0.205  10.491  18.904  0.00  0.00    +0.000 A 
ATOM      3  C   UNL     1       0.508   9.952  17.823  0.00  0.00    +0.000 A 
ATOM      4  C   UNL     1       1.475   8.958  18.019  0.00  0.00    +0.000 A 
ATOM      5  C   UNL     1       1.773   8.461  19.298  0.00  0.00    +0.000 A 
ATOM      6  C   UNL     1       1.081   9.000  20.387  0.00  0.00    +0.000 A 
ATOM      7 CL   UNL     1       1.285   8.558  22.048  0.00  0.00    +0.000 Cl
ATOM      8  C   UNL     1       0.114   9.999  20.176  0.00  0.00    +0.000 A 
BRANCH   2  10
ATOM      9  C   UNL     1      -2.351  11.002  17.707  0.00  0.00    +0.000 C 
ATOM     10  C   UNL     1      -1.295  11.551  18.688  0.00  0.00    +0.000 C 
ATOM     11  C   UNL     1      -0.672  12.838  18.111  0.00  0.00    +0.000 C 
ATOM     12  C   UNL     1      -2.039  11.946  19.985  0.00  0.00    +0.000 C 
ENDBRANCH   2  10
ENDBRANCH   1   5
BRANCH   1  13
ATOM     13  C   UNL     1       2.401   6.212  18.714  0.00  0.00    +0.000 C 
BRANCH  13  14
ATOM     14  C   UNL     1       3.456   5.790  17.718  0.00  0.00    +0.000 A 
ATOM     15  C   UNL     1       4.332   6.739  17.176  0.00  0.00    +0.000 A 
ATOM     16  C   UNL     1       5.335   6.346  16.291  0.00  0.00    +0.000 A 
ATOM     17  C   UNL     1       5.474   5.000  15.933  0.00  0.00    +0.000 A 
ATOM     18  C   UNL     1       4.616   4.042  16.491  0.00  0.00    +0.000 A 
ATOM     19  C   UNL     1       3.607   4.441  17.372  0.00  0.00    +0.000 A 
BRANCH  17  20
ATOM     20  C   UNL     1       6.574   4.645  15.001  0.00  0.00    +0.000 C 
ATOM     21  O   UNL     1       7.559   5.347  14.845  0.00  0.00    +0.000 OA
BRANCH  20  22
ATOM     22  O   UNL     1       6.371   3.502  14.312  0.00  0.00    +0.000 OA
ATOM     23  H   UNL     1       6.430   2.684  14.837  0.00  0.00    +0.000 HD
ENDBRANCH  20  22
ENDBRANCH  17  20
ENDBRANCH  13  14
ENDBRANCH   1  13
TORSDOF 6
ENDMDL
MODEL 2
REMARK VINA RESULT:      -7.3      0.123      1.406
REMARK  Name = 
REMARK  9 active torsions:
REMARK  status: ('A' for Active; 'I' for Inactive)
REMARK    1  A    between atoms: C_1  and  C_2
REMARK    2  A    between atoms: C_2  and  C_3
REMARK    3  A    between atoms: C_2  and  C_4
REMARK    4  A    between atoms: C_2  and  C_5
REMARK    5  A    between atoms: C_8  and  O_9
REMARK    6  A    between atoms: O_9  and  C_10
REMARK    7  A    between atoms: C_10  and  C_11
REMARK    8  A    between atoms: C_14  and  C_15
REMARK    9  A    between atoms: C_15  and  O_17
REMARK                            x       y       z     vdW  Elec       q    Type
REMARK                         _______ _______ _______ _____ _____    ______ ____
ROOT
ATOM      1  O   UNL     1       2.687   7.446  19.291  0.00  0.00    +0.000 OA
ENDROOT
BRANCH   1   5
ATOM      2  C   UNL     1      -0.140  10.548  18.884  0.00  0.00    +0.000 A 
ATOM      3  C   UNL     1       0.555   9.964  17.815  0.00  0.00    +0.000 A 
ATOM      4  C   UNL     1       1.485   8.940  18.033  0.00  0.00    +0.000 A 
ATOM      5  C   UNL     1       1.762   8.457  19.321  0.00  0.00    +0.000 A 
ATOM      6  C   UNL     1       1.087   9.040  20.398  0.00  0.00    +0.000 A 
ATOM      7 CL   UNL     1       1.270   8.622  22.068  0.00  0.00    +0.000 Cl
ATOM      8  C   UNL     1       0.157  10.069  20.166  0.00  0.00    +0.000 A 
BRANCH   2  10
ATOM      9  C   UNL     1      -0.482  12.943  18.212  0.00  0.00    +0.000 C 
ATOM     10  C   UNL     1      -1.191  11.643  18.645  0.00  0.00    +0.000 C 
ATOM     11  C   UNL     1      -1.991  11.897  19.938  0.00  0.00    +0.000 C 
ATOM     12  C   UNL     1      -2.212  11.290  17.538  0.00  0.00    +0.000 C 
ENDBRANCH   2  10
ENDBRANCH   1   5
BRANCH   1  13
ATOM     13  C   UNL     1       2.364   6.229  18.633  0.00  0.00    +0.000 C 
BRANCH  13  14
ATOM     14  C   UNL     1       3.499   5.833  17.719  0.00  0.00    +0.000 A 
ATOM     15  C   UNL     1       3.684   4.491  17.367  0.00  0.00    +0.000 A 
ATOM     16  C   UNL     1       4.703   4.127  16.487  0.00  0.00    +0.000 A 
ATOM     17  C   UNL     1       5.553   5.102  15.950  0.00  0.00    +0.000 A 
ATOM     18  C   UNL     1       5.357   6.450  16.278  0.00  0.00    +0.000 A 
ATOM     19  C   UNL     1       4.339   6.809  17.166  0.00  0.00    +0.000 A 
BRANCH  17  20
ATOM     20  C   UNL     1       6.606   4.651  15.004  0.00  0.00    +0.000 C 
ATOM     21  O   UNL     1       7.623   5.291  14.795  0.00  0.00    +0.000 OA
BRANCH  20  22
ATOM     22  O   UNL     1       6.320   3.498  14.364  0.00  0.00    +0.000 OA
ATOM     23  H   UNL     1       5.420   3.436  14.000  0.00  0.00    +0.000 HD
ENDBRANCH  20  22
ENDBRANCH  17  20
ENDBRANCH  13  14
ENDBRANCH   1  13
TORSDOF 6
ENDMDL
MODEL 3
REMARK VINA RESULT:      -7.2      2.386      3.498
REMARK  Name = 
REMARK  9 active torsions:
REMARK  status: ('A' for Active; 'I' for Inactive)
REMARK    1  A    between atoms: C_1  and  C_2
REMARK    2  A    between atoms: C_2  and  C_3
REMARK    3  A    between atoms: C_2  and  C_4
REMARK    4  A    between atoms: C_2  and  C_5
REMARK    5  A    between atoms: C_8  and  O_9
REMARK    6  A    between atoms: O_9  and  C_10
REMARK    7  A    between atoms: C_10  and  C_11
REMARK    8  A    between atoms: C_14  and  C_15
REMARK    9  A    between atoms: C_15  and  O_17
REMARK                            x       y       z     vdW  Elec       q    Type
REMARK                         _______ _______ _______ _____ _____    ______ ____
ROOT
ATOM      1  O   UNL     1       3.575   4.076  18.762  0.00  0.00    +0.000 OA
ENDROOT
BRANCH   1   5
ATOM      2  C   UNL     1       1.579   7.393  20.436  0.00  0.00    +0.000 A 
ATOM      3  C   UNL     1       2.419   7.456  19.315  0.00  0.00    +0.000 A 
ATOM      4  C   UNL     1       3.052   6.309  18.821  0.00  0.00    +0.000 A 
ATOM      5  C   UNL     1       2.877   5.053  19.423  0.00  0.00    +0.000 A 
ATOM      6  C   UNL     1       2.053   4.977  20.551  0.00  0.00    +0.000 A 
ATOM      7 CL   UNL     1       1.697   3.549  21.463  0.00  0.00    +0.000 Cl
ATOM      8  C   UNL     1       1.425   6.137  21.037  0.00  0.00    +0.000 A 
BRANCH   2  10
ATOM      9  C   UNL     1      -0.537   8.235  21.490  0.00  0.00    +0.000 C 
ATOM     10  C   UNL     1       0.851   8.641  20.956  0.00  0.00    +0.000 C 
ATOM     11  C   UNL     1       0.688   9.668  19.818  0.00  0.00    +0.000 C 
ATOM     12  C   UNL     1       1.593   9.355  22.111  0.00  0.00    +0.000 C 
ENDBRANCH   2  10
ENDBRANCH   1   5
BRANCH   1  13
ATOM     13  C   UNL     1       4.993   4.058  18.850  0.00  0.00    +0.000 C 
BRANCH  13  14
ATOM     14  C   UNL     1       5.585   4.212  17.469  0.00  0.00    +0.000 A 
ATOM     15  C   UNL     1       4.777   4.064  16.335  0.00  0.00    +0.000 A 
ATOM     16  C   UNL     1       5.311   4.250  15.060  0.00  0.00    +0.000 A 
ATOM     17  C   UNL     1       6.661   4.584  14.902  0.00  0.00    +0.000 A 
ATOM     18  C   UNL     1       7.469   4.758  16.033  0.00  0.00    +0.000 A 
ATOM     19  C   UNL     1       6.933   4.563  17.309  0.00  0.00    +0.000 A 
BRANCH  17  20
ATOM     20  C   UNL     1       7.163   4.787  13.519  0.00  0.00    +0.000 C 
ATOM     21  O   UNL     1       7.910   5.702  13.215  0.00  0.00    +0.000 OA
BRANCH  20  22
ATOM     22  O   UNL     1       6.688   3.899  12.620  0.00  0.00    +0.000 OA
ATOM     23  H   UNL     1       5.718   3.863  12.545  0.00  0.00    +0.000 HD
ENDBRANCH  20  22
ENDBRANCH  17  20
ENDBRANCH  13  14
ENDBRANCH   1  13
TORSDOF 6
ENDMDL
MODEL 4
REMARK VINA RESULT:      -7.1      2.431      3.418
REMARK  Name = 
REMARK  9 active torsions:
REMARK  status: ('A' for Active; 'I' for Inactive)
REMARK    1  A    between atoms: C_1  and  C_2
REMARK    2  A    between atoms: C_2  and  C_3
REMARK    3  A    between atoms: C_2  and  C_4
REMARK    4  A    between atoms: C_2  and  C_5
REMARK    5  A    between atoms: C_8  and  O_9
REMARK    6  A    between atoms: O_9  and  C_10
REMARK    7  A    between atoms: C_10  and  C_11
REMARK    8  A    between atoms: C_14  and  C_15
REMARK    9  A    between atoms: C_15  and  O_17
REMARK                            x       y       z     vdW  Elec       q    Type
REMARK                         _______ _______ _______ _____ _____    ______ ____
ROOT
ATOM      1  O   UNL     1       3.423   4.370  18.801  0.00  0.00    +0.000 OA
ENDROOT
BRANCH   1   5
ATOM      2  C   UNL     1       1.494   7.691  20.543  0.00  0.00    +0.000 A 
ATOM      3  C   UNL     1       1.463   6.391  21.068  0.00  0.00    +0.000 A 
ATOM      4  C   UNL     1       2.126   5.337  20.427  0.00  0.00    +0.000 A 
ATOM      5  C   UNL     1       2.844   5.533  19.237  0.00  0.00    +0.000 A 
ATOM      6  C   UNL     1       2.871   6.821  18.694  0.00  0.00    +0.000 A 
ATOM      7 CL   UNL     1       3.677   7.301  17.238  0.00  0.00    +0.000 Cl
ATOM      8  C   UNL     1       2.201   7.870  19.347  0.00  0.00    +0.000 A 
BRANCH   2  10
ATOM      9  C   UNL     1      -0.629   8.437  21.654  0.00  0.00    +0.000 C 
ATOM     10  C   UNL     1       0.803   8.857  21.266  0.00  0.00    +0.000 C 
ATOM     11  C   UNL     1       0.749  10.091  20.344  0.00  0.00    +0.000 C 
ATOM     12  C   UNL     1       1.520   9.290  22.566  0.00  0.00    +0.000 C 
ENDBRANCH   2  10
ENDBRANCH   1   5
BRANCH   1  13
ATOM     13  C   UNL     1       4.833   4.219  18.894  0.00  0.00    +0.000 C 
BRANCH  13  14
ATOM     14  C   UNL     1       5.452   4.419  17.531  0.00  0.00    +0.000 A 
ATOM     15  C   UNL     1       6.693   5.055  17.407  0.00  0.00    +0.000 A 
ATOM     16  C   UNL     1       7.288   5.200  16.154  0.00  0.00    +0.000 A 
ATOM     17  C   UNL     1       6.649   4.714  15.008  0.00  0.00    +0.000 A 
ATOM     18  C   UNL     1       5.419   4.054  15.128  0.00  0.00    +0.000 A 
ATOM     19  C   UNL     1       4.821   3.917  16.384  0.00  0.00    +0.000 A 
BRANCH  17  20
ATOM     20  C   UNL     1       7.344   4.883  13.707  0.00  0.00    +0.000 C 
ATOM     21  O   UNL     1       8.280   5.650  13.553  0.00  0.00    +0.000 OA
BRANCH  20  22
ATOM     22  O   UNL     1       6.826   4.148  12.701  0.00  0.00    +0.000 OA
ATOM     23  H   UNL     1       7.451   3.914  11.992  0.00  0.00    +0.000 HD
ENDBRANCH  20  22
ENDBRANCH  17  20
ENDBRANCH  13  14
ENDBRANCH   1  13
TORSDOF 6
ENDMDL
MODEL 5
REMARK VINA RESULT:      -7.1      1.899      2.724
REMARK  Name = 
REMARK  9 active torsions:
REMARK  status: ('A' for Active; 'I' for Inactive)
REMARK    1  A    between atoms: C_1  and  C_2
REMARK    2  A    between atoms: C_2  and  C_3
REMARK    3  A    between atoms: C_2  and  C_4
REMARK    4  A    between atoms: C_2  and  C_5
REMARK    5  A    between atoms: C_8  and  O_9
REMARK    6  A    between atoms: O_9  and  C_10
REMARK    7  A    between atoms: C_10  and  C_11
REMARK    8  A    between atoms: C_14  and  C_15
REMARK    9  A    between atoms: C_15  and  O_17
REMARK                            x       y       z     vdW  Elec       q    Type
REMARK                         _______ _______ _______ _____ _____    ______ ____
ROOT
ATOM      1  O   UNL     1       3.145   5.322  19.366  0.00  0.00    +0.000 OA
ENDROOT
BRANCH   1   5
ATOM      2  C   UNL     1       1.069   8.909  20.146  0.00  0.00    +0.000 A 
ATOM      3  C   UNL     1       1.111   7.812  21.019  0.00  0.00    +0.000 A 
ATOM      4  C   UNL     1       1.820   6.651  20.685  0.00  0.00    +0.000 A 
ATOM      5  C   UNL     1       2.512   6.533  19.470  0.00  0.00    +0.000 A 
ATOM      6  C   UNL     1       2.466   7.614  18.583  0.00  0.00    +0.000 A 
ATOM      7 CL   UNL     1       3.227   7.697  17.031  0.00  0.00    +0.000 Cl
ATOM      8  C   UNL     1       1.750   8.773  18.930  0.00  0.00    +0.000 A 
BRANCH   2  10
ATOM      9  C   UNL     1      -0.920  10.352  19.633  0.00  0.00    +0.000 C 
ATOM     10  C   UNL     1       0.327  10.199  20.528  0.00  0.00    +0.000 C 
ATOM     11  C   UNL     1       1.254  11.416  20.336  0.00  0.00    +0.000 C 
ATOM     12  C   UNL     1      -0.159  10.222  21.996  0.00  0.00    +0.000 C 
ENDBRANCH   2  10
ENDBRANCH   1   5
BRANCH   1  13
ATOM     13  C   UNL     1       4.553   5.259  19.543  0.00  0.00    +0.000 C 
BRANCH  13  14
ATOM     14  C   UNL     1       5.223   5.093  18.199  0.00  0.00    +0.000 A 
ATOM     15  C   UNL     1       4.673   4.235  17.239  0.00  0.00    +0.000 A 
ATOM     16  C   UNL     1       5.264   4.114  15.982  0.00  0.00    +0.000 A 
ATOM     17  C   UNL     1       6.415   4.848  15.669  0.00  0.00    +0.000 A 
ATOM     18  C   UNL     1       6.956   5.727  16.616  0.00  0.00    +0.000 A 
ATOM     19  C   UNL     1       6.366   5.840  17.878  0.00  0.00    +0.000 A 
BRANCH  17  20
ATOM     20  C   UNL     1       6.984   4.689  14.306  0.00  0.00    +0.000 C 
ATOM     21  O   UNL     1       7.738   5.506  13.806  0.00  0.00    +0.000 OA
BRANCH  20  22
ATOM     22  O   UNL     1       6.561   3.585  13.654  0.00  0.00    +0.000 OA
ATOM     23  H   UNL     1       6.246   2.861  14.223  0.00  0.00    +0.000 HD
ENDBRANCH  20  22
ENDBRANCH  17  20
ENDBRANCH  13  14
ENDBRANCH   1  13
TORSDOF 6
ENDMDL
MODEL 6
REMARK VINA RESULT:      -7.0      1.553      2.569
REMARK  Name = 
REMARK  9 active torsions:
REMARK  status: ('A' for Active; 'I' for Inactive)
REMARK    1  A    between atoms: C_1  and  C_2
REMARK    2  A    between atoms: C_2  and  C_3
REMARK    3  A    between atoms: C_2  and  C_4
REMARK    4  A    between atoms: C_2  and  C_5
REMARK    5  A    between atoms: C_8  and  O_9
REMARK    6  A    between atoms: O_9  and  C_10
REMARK    7  A    between atoms: C_10  and  C_11
REMARK    8  A    between atoms: C_14  and  C_15
REMARK    9  A    between atoms: C_15  and  O_17
REMARK                            x       y       z     vdW  Elec       q    Type
REMARK                         _______ _______ _______ _____ _____    ______ ____
ROOT
ATOM      1  O   UNL     1       2.550   6.880  19.795  0.00  0.00    +0.000 OA
ENDROOT
BRANCH   1   5
ATOM      2  C   UNL     1       0.232  10.209  20.947  0.00  0.00    +0.000 A 
ATOM      3  C   UNL     1       0.550   9.134  21.790  0.00  0.00    +0.000 A 
ATOM      4  C   UNL     1       1.321   8.059  21.331  0.00  0.00    +0.000 A 
ATOM      5  C   UNL     1       1.808   8.010  20.015  0.00  0.00    +0.000 A 
ATOM      6  C   UNL     1       1.487   9.068  19.159  0.00  0.00    +0.000 A 
ATOM      7 CL   UNL     1       1.960   9.222  17.501  0.00  0.00    +0.000 Cl
ATOM      8  C   UNL     1       0.709  10.140  19.633  0.00  0.00    +0.000 A 
BRANCH   2  10
ATOM      9  C   UNL     1      -1.106  11.097  22.876  0.00  0.00    +0.000 C 
ATOM     10  C   UNL     1      -0.579  11.408  21.460  0.00  0.00    +0.000 C 
ATOM     11  C   UNL     1      -1.766  11.684  20.515  0.00  0.00    +0.000 C 
ATOM     12  C   UNL     1       0.242  12.715  21.555  0.00  0.00    +0.000 C 
ENDBRANCH   2  10
ENDBRANCH   1   5
BRANCH   1  13
ATOM     13  C   UNL     1       2.140   5.966  18.787  0.00  0.00    +0.000 C 
BRANCH  13  14
ATOM     14  C   UNL     1       3.309   5.656  17.882  0.00  0.00    +0.000 A 
ATOM     15  C   UNL     1       3.532   4.345  17.444  0.00  0.00    +0.000 A 
ATOM     16  C   UNL     1       4.583   4.063  16.572  0.00  0.00    +0.000 A 
ATOM     17  C   UNL     1       5.427   5.089  16.129  0.00  0.00    +0.000 A 
ATOM     18  C   UNL     1       5.194   6.406  16.543  0.00  0.00    +0.000 A 
ATOM     19  C   UNL     1       4.144   6.684  17.424  0.00  0.00    +0.000 A 
BRANCH  17  20
ATOM     20  C   UNL     1       6.516   4.725  15.186  0.00  0.00    +0.000 C 
ATOM     21  O   UNL     1       6.417   3.812  14.384  0.00  0.00    +0.000 OA
BRANCH  20  22
ATOM     22  O   UNL     1       7.637   5.463  15.322  0.00  0.00    +0.000 OA
ATOM     23  H   UNL     1       7.822   6.078  14.591  0.00  0.00    +0.000 HD
ENDBRANCH  20  22
ENDBRANCH  17  20
ENDBRANCH  13  14
ENDBRANCH   1  13
TORSDOF 6
ENDMDL
MODEL 7
REMARK VINA RESULT:      -7.0      1.566      2.329
REMARK  Name = 
REMARK  9 active torsions:
REMARK  status: ('A' for Active; 'I' for Inactive)
REMARK    1  A    between atoms: C_1  and  C_2
REMARK    2  A    between atoms: C_2  and  C_3
REMARK    3  A    between atoms: C_2  and  C_4
REMARK    4  A    between atoms: C_2  and  C_5
REMARK    5  A    between atoms: C_8  and  O_9
REMARK    6  A    between atoms: O_9  and  C_10
REMARK    7  A    between atoms: C_10  and  C_11
REMARK    8  A    between atoms: C_14  and  C_15
REMARK    9  A    between atoms: C_15  and  O_17
REMARK                            x       y       z     vdW  Elec       q    Type
REMARK                         _______ _______ _______ _____ _____    ______ ____
ROOT
ATOM      1  O   UNL     1       2.524   6.679  19.907  0.00  0.00    +0.000 OA
ENDROOT
BRANCH   1   5
ATOM      2  C   UNL     1       0.285  10.136  20.811  0.00  0.00    +0.000 A 
ATOM      3  C   UNL     1       0.527   9.090  21.713  0.00  0.00    +0.000 A 
ATOM      4  C   UNL     1       1.277   7.970  21.335  0.00  0.00    +0.000 A 
ATOM      5  C   UNL     1       1.815   7.843  20.045  0.00  0.00    +0.000 A 
ATOM      6  C   UNL     1       1.568   8.872  19.130  0.00  0.00    +0.000 A 
ATOM      7 CL   UNL     1       2.115   8.933  17.488  0.00  0.00    +0.000 Cl
ATOM      8  C   UNL     1       0.812   9.991  19.522  0.00  0.00    +0.000 A 
BRANCH   2  10
ATOM      9  C   UNL     1      -1.653  11.624  20.236  0.00  0.00    +0.000 C 
ATOM     10  C   UNL     1      -0.502  11.385  21.235  0.00  0.00    +0.000 C 
ATOM     11  C   UNL     1       0.429  12.614  21.255  0.00  0.00    +0.000 C 
ATOM     12  C   UNL     1      -1.135  11.270  22.642  0.00  0.00    +0.000 C 
ENDBRANCH   2  10
ENDBRANCH   1   5
BRANCH   1  13
ATOM     13  C   UNL     1       2.136   5.745  18.908  0.00  0.00    +0.000 C 
BRANCH  13  14
ATOM     14  C   UNL     1       3.338   5.371  18.074  0.00  0.00    +0.000 A 
ATOM     15  C   UNL     1       3.411   4.110  17.471  0.00  0.00    +0.000 A 
ATOM     16  C   UNL     1       4.498   3.777  16.663  0.00  0.00    +0.000 A 
ATOM     17  C   UNL     1       5.528   4.701  16.450  0.00  0.00    +0.000 A 
ATOM     18  C   UNL     1       5.449   5.974  17.030  0.00  0.00    +0.000 A 
ATOM     19  C   UNL     1       4.362   6.301  17.845  0.00  0.00    +0.000 A 
BRANCH  17  20
ATOM     20  C   UNL     1       6.648   4.292  15.564  0.00  0.00    +0.000 C 
ATOM     21  O   UNL     1       7.795   4.671  15.732  0.00  0.00    +0.000 OA
BRANCH  20  22
ATOM     22  O   UNL     1       6.280   3.502  14.533  0.00  0.00    +0.000 OA
ATOM     23  H   UNL     1       6.329   2.546  14.705  0.00  0.00    +0.000 HD
ENDBRANCH  20  22
ENDBRANCH  17  20
ENDBRANCH  13  14
ENDBRANCH   1  13
TORSDOF 6
ENDMDL
MODEL 8
REMARK VINA RESULT:      -7.0      1.685      2.355
REMARK  Name = 
REMARK  9 active torsions:
REMARK  status: ('A' for Active; 'I' for Inactive)
REMARK    1  A    between atoms: C_1  and  C_2
REMARK    2  A    between atoms: C_2  and  C_3
REMARK    3  A    between atoms: C_2  and  C_4
REMARK    4  A    between atoms: C_2  and  C_5
REMARK    5  A    between atoms: C_8  and  O_9
REMARK    6  A    between atoms: O_9  and  C_10
REMARK    7  A    between atoms: C_10  and  C_11
REMARK    8  A    between atoms: C_14  and  C_15
REMARK    9  A    between atoms: C_15  and  O_17
REMARK                            x       y       z     vdW  Elec       q    Type
REMARK                         _______ _______ _______ _____ _____    ______ ____
ROOT
ATOM      1  O   UNL     1       2.426   6.482  20.450  0.00  0.00    +0.000 OA
ENDROOT
BRANCH   1   5
ATOM      2  C   UNL     1       0.285  10.055  19.795  0.00  0.00    +0.000 A 
ATOM      3  C   UNL     1       0.159   9.255  20.940  0.00  0.00    +0.000 A 
ATOM      4  C   UNL     1       0.902   8.076  21.081  0.00  0.00    +0.000 A 
ATOM      5  C   UNL     1       1.799   7.646  20.090  0.00  0.00    +0.000 A 
ATOM      6  C   UNL     1       1.923   8.426  18.936  0.00  0.00    +0.000 A 
ATOM      7 CL   UNL     1       2.949   8.094  17.582  0.00  0.00    +0.000 Cl
ATOM      8  C   UNL     1       1.169   9.606  18.806  0.00  0.00    +0.000 A 
BRANCH   2  10
ATOM      9  C   UNL     1       0.345  12.380  18.850  0.00  0.00    +0.000 C 
ATOM     10  C   UNL     1      -0.498  11.369  19.655  0.00  0.00    +0.000 C 
ATOM     11  C   UNL     1      -0.809  11.949  21.049  0.00  0.00    +0.000 C 
ATOM     12  C   UNL     1      -1.847  11.210  18.915  0.00  0.00    +0.000 C 
ENDBRANCH   2  10
ENDBRANCH   1   5
BRANCH   1  13
ATOM     13  C   UNL     1       2.205   5.308  19.680  0.00  0.00    +0.000 C 
BRANCH  13  14
ATOM     14  C   UNL     1       3.423   5.026  18.832  0.00  0.00    +0.000 A 
ATOM     15  C   UNL     1       3.275   4.537  17.528  0.00  0.00    +0.000 A 
ATOM     16  C   UNL     1       4.395   4.318  16.727  0.00  0.00    +0.000 A 
ATOM     17  C   UNL     1       5.678   4.581  17.220  0.00  0.00    +0.000 A 
ATOM     18  C   UNL     1       5.832   5.094  18.515  0.00  0.00    +0.000 A 
ATOM     19  C   UNL     1       4.707   5.305  19.318  0.00  0.00    +0.000 A 
BRANCH  17  20
ATOM     20  C   UNL     1       6.828   4.345  16.310  0.00  0.00    +0.000 C 
ATOM     21  O   UNL     1       6.692   4.123  15.118  0.00  0.00    +0.000 OA
BRANCH  20  22
ATOM     22  O   UNL     1       8.031   4.354  16.921  0.00  0.00    +0.000 OA
ATOM     23  H   UNL     1       8.556   3.541  16.818  0.00  0.00    +0.000 HD
ENDBRANCH  20  22
ENDBRANCH  17  20
ENDBRANCH  13  14
ENDBRANCH   1  13
TORSDOF 6
ENDMDL
MODEL 9
REMARK VINA RESULT:      -7.0      3.014      4.279
REMARK  Name = 
REMARK  9 active torsions:
REMARK  status: ('A' for Active; 'I' for Inactive)
REMARK    1  A    between atoms: C_1  and  C_2
REMARK    2  A    between atoms: C_2  and  C_3
REMARK    3  A    between atoms: C_2  and  C_4
REMARK    4  A    between atoms: C_2  and  C_5
REMARK    5  A    between atoms: C_8  and  O_9
REMARK    6  A    between atoms: O_9  and  C_10
REMARK    7  A    between atoms: C_10  and  C_11
REMARK    8  A    between atoms: C_14  and  C_15
REMARK    9  A    between atoms: C_15  and  O_17
REMARK                            x       y       z     vdW  Elec       q    Type
REMARK                         _______ _______ _______ _____ _____    ______ ____
ROOT
ATOM      1  O   UNL     1       0.809   7.846  21.185  0.00  0.00    +0.000 OA
ENDROOT
BRANCH   1   5
ATOM      2  C   UNL     1      -1.257  11.402  22.114  0.00  0.00    +0.000 A 
ATOM      3  C   UNL     1      -0.915  10.417  23.051  0.00  0.00    +0.000 A 
ATOM      4  C   UNL     1      -0.232   9.257  22.663  0.00  0.00    +0.000 A 
ATOM      5  C   UNL     1       0.137   9.031  21.328  0.00  0.00    +0.000 A 
ATOM      6  C   UNL     1      -0.210   9.999  20.380  0.00  0.00    +0.000 A 
ATOM      7 CL   UNL     1       0.125   9.936  18.683  0.00  0.00    +0.000 Cl
ATOM      8  C   UNL     1      -0.898  11.158  20.783  0.00  0.00    +0.000 A 
BRANCH   2  10
ATOM      9  C   UNL     1      -3.089  12.347  23.546  0.00  0.00    +0.000 C 
ATOM     10  C   UNL     1      -1.970  12.694  22.544  0.00  0.00    +0.000 C 
ATOM     11  C   UNL     1      -2.577  13.396  21.312  0.00  0.00    +0.000 C 
ATOM     12  C   UNL     1      -1.036  13.715  23.236  0.00  0.00    +0.000 C 
ENDBRANCH   2  10
ENDBRANCH   1   5
BRANCH   1  13
ATOM     13  C   UNL     1       1.915   7.778  20.296  0.00  0.00    +0.000 C 
BRANCH  13  14
ATOM     14  C   UNL     1       2.066   6.365  19.785  0.00  0.00    +0.000 A 
ATOM     15  C   UNL     1       1.739   5.280  20.608  0.00  0.00    +0.000 A 
ATOM     16  C   UNL     1       1.834   3.976  20.125  0.00  0.00    +0.000 A 
ATOM     17  C   UNL     1       2.260   3.738  18.812  0.00  0.00    +0.000 A 
ATOM     18  C   UNL     1       2.564   4.820  17.976  0.00  0.00    +0.000 A 
ATOM     19  C   UNL     1       2.476   6.126  18.466  0.00  0.00    +0.000 A 
BRANCH  17  20
ATOM     20  C   UNL     1       2.322   2.327  18.353  0.00  0.00    +0.000 C 
ATOM     21  O   UNL     1       3.281   1.868  17.756  0.00  0.00    +0.000 OA
BRANCH  20  22
ATOM     22  O   UNL     1       1.209   1.610  18.615  0.00  0.00    +0.000 OA
ATOM     23  H   UNL     1       0.630   1.446  17.849  0.00  0.00    +0.000 HD
ENDBRANCH  20  22
ENDBRANCH  17  20
ENDBRANCH  13  14
ENDBRANCH   1  13
TORSDOF 6
ENDMDL
