MODEL 1
REMARK VINA RESULT:      -8.2      0.000      0.000
REMARK  Name = 
REMARK  6 active torsions:
REMARK  status: ('A' for Active; 'I' for Inactive)
REMARK    1  A    between atoms: C_2  and  C_21
REMARK    2  A    between atoms: N_3  and  C_4
REMARK    3  A    between atoms: C_7  and  N_8
REMARK    4  A    between atoms: N_8  and  S_9
REMARK    5  A    between atoms: S_9  and  C_12
REMARK    6  A    between atoms: C_24  and  N_25
REMARK                            x       y       z     vdW  Elec       q    Type
REMARK                         _______ _______ _______ _____ _____    ______ ____
ROOT
ATOM      1  C   UNL     1       7.739   6.887  18.381  0.00  0.00    +0.000 A 
ATOM      2  C   UNL     1       7.334   6.612  17.067  0.00  0.00    +0.000 A 
ATOM      3  C   UNL     1       6.462   5.556  16.776  0.00  0.00    +0.000 A 
ATOM      4  C   UNL     1       5.986   4.755  17.805  0.00  0.00    +0.000 A 
ATOM      5  C   UNL     1       6.399   4.992  19.115  0.00  0.00    +0.000 A 
ATOM      6  C   UNL     1       7.284   6.045  19.403  0.00  0.00    +0.000 A 
ENDROOT
BRANCH   1   9
ATOM      7  O   UNL     1       7.420   9.654  17.638  0.00  0.00    +0.000 OA
ATOM      8  C   UNL     1       8.396   9.283  18.284  0.00  0.00    +0.000 C 
ATOM      9  N   UNL     1       8.586   7.977  18.715  0.00  0.00    +0.000 N 
ATOM     10  H   UNL     1       9.309   7.824  19.406  0.00  0.00    +0.000 HD
BRANCH   8  11
ATOM     11  C   UNL     1       9.398  10.262  18.677  0.00  0.00    +0.000 A 
ATOM     12  C   UNL     1       9.870  10.520  19.959  0.00  0.00    +0.000 A 
ATOM     13  C   UNL     1      10.770  11.602  19.870  0.00  0.00    +0.000 A 
ATOM     14  C   UNL     1      10.794  11.939  18.537  0.00  0.00    +0.000 A 
ATOM     15  O   UNL     1       9.988  11.126  17.786  0.00  0.00    +0.000 OA
BRANCH  14  16
ATOM     16  N   UNL     1      11.493  12.988  17.860  0.00  0.00    +0.000 N 
ATOM     17  O   UNL     1      11.830  12.759  16.689  0.00  0.00    +0.000 OA
ATOM     18  O   UNL     1      11.704  14.033  18.485  0.00  0.00    +0.000 OA
ENDBRANCH  14  16
ENDBRANCH   8  11
ENDBRANCH   1   9
BRANCH   4  19
ATOM     19  N   UNL     1       5.061   3.710  17.546  0.00  0.00    +0.000 N 
ATOM     20  H   UNL     1       5.237   2.796  17.961  0.00  0.00    +0.000 HD
BRANCH  19  21
ATOM     21  S   UNL     1       3.417   4.064  17.446  0.00  0.00    +0.000 S 
ATOM     22  O   UNL     1       3.322   5.507  17.361  0.00  0.00    +0.000 OA
ATOM     23  O   UNL     1       2.791   3.218  16.456  0.00  0.00    +0.000 OA
BRANCH  21  24
ATOM     24  C   UNL     1       2.837   3.586  19.052  0.00  0.00    +0.000 A 
ATOM     25  C   UNL     1       1.573   4.003  19.490  0.00  0.00    +0.000 A 
ATOM     26  C   UNL     1       1.132   3.634  20.762  0.00  0.00    +0.000 A 
ATOM     27  C   UNL     1       1.947   2.849  21.580  0.00  0.00    +0.000 A 
ATOM     28  C   UNL     1       3.191   2.428  21.119  0.00  0.00    +0.000 A 
ATOM     29  F   UNL     1       3.965   1.674  21.910  0.00  0.00    +0.000 F 
ATOM     30  C   UNL     1       3.645   2.782  19.857  0.00  0.00    +0.000 A 
ENDBRANCH  21  24
ENDBRANCH  19  21
ENDBRANCH   4  19
TORSDOF 6
ENDMDL
MODEL 2
REMARK VINA RESULT:      -8.1      6.826      8.866
REMARK  Name = 
REMARK  6 active torsions:
REMARK  status: ('A' for Active; 'I' for Inactive)
REMARK    1  A    between atoms: C_2  and  C_21
REMARK    2  A    between atoms: N_3  and  C_4
REMARK    3  A    between atoms: C_7  and  N_8
REMARK    4  A    between atoms: N_8  and  S_9
REMARK    5  A    between atoms: S_9  and  C_12
REMARK    6  A    between atoms: C_24  and  N_25
REMARK                            x       y       z     vdW  Elec       q    Type
REMARK                         _______ _______ _______ _____ _____    ______ ____
ROOT
ATOM      1  C   UNL     1       2.704   7.856  18.445  0.00  0.00    +0.000 A 
ATOM      2  C   UNL     1       1.978   8.892  17.840  0.00  0.00    +0.000 A 
ATOM      3  C   UNL     1       0.944   9.552  18.514  0.00  0.00    +0.000 A 
ATOM      4  C   UNL     1       0.618   9.175  19.810  0.00  0.00    +0.000 A 
ATOM      5  C   UNL     1       1.306   8.127  20.420  0.00  0.00    +0.000 A 
ATOM      6  C   UNL     1       2.336   7.459  19.737  0.00  0.00    +0.000 A 
ENDROOT
BRANCH   1   9
ATOM      7  O   UNL     1       2.886   5.072  17.722  0.00  0.00    +0.000 OA
ATOM      8  C   UNL     1       3.826   5.837  17.527  0.00  0.00    +0.000 C 
ATOM      9  N   UNL     1       3.787   7.197  17.807  0.00  0.00    +0.000 N 
ATOM     10  H   UNL     1       4.532   7.764  17.422  0.00  0.00    +0.000 HD
BRANCH   8  11
ATOM     11  C   UNL     1       5.044   5.321  16.921  0.00  0.00    +0.000 A 
ATOM     12  C   UNL     1       6.154   4.795  17.571  0.00  0.00    +0.000 A 
ATOM     13  C   UNL     1       7.121   4.500  16.589  0.00  0.00    +0.000 A 
ATOM     14  C   UNL     1       6.544   4.864  15.396  0.00  0.00    +0.000 A 
ATOM     15  O   UNL     1       5.272   5.345  15.566  0.00  0.00    +0.000 OA
BRANCH  14  16
ATOM     16  N   UNL     1       7.069   4.836  14.066  0.00  0.00    +0.000 N 
ATOM     17  O   UNL     1       6.524   4.051  13.276  0.00  0.00    +0.000 OA
ATOM     18  O   UNL     1       8.013   5.588  13.806  0.00  0.00    +0.000 OA
ENDBRANCH  14  16
ENDBRANCH   8  11
ENDBRANCH   1   9
BRANCH   4  19
ATOM     19  N   UNL     1      -0.391   9.860  20.535  0.00  0.00    +0.000 N 
ATOM     20  H   UNL     1      -1.249   9.358  20.760  0.00  0.00    +0.000 HD
BRANCH  19  21
ATOM     21  S   UNL     1       0.050  10.950  21.742  0.00  0.00    +0.000 S 
ATOM     22  O   UNL     1       0.360  10.151  22.909  0.00  0.00    +0.000 OA
ATOM     23  O   UNL     1       1.002  11.904  21.219  0.00  0.00    +0.000 OA
BRANCH  21  24
ATOM     24  C   UNL     1      -1.479  11.788  22.060  0.00  0.00    +0.000 A 
ATOM     25  C   UNL     1      -2.046  11.744  23.341  0.00  0.00    +0.000 A 
ATOM     26  C   UNL     1      -3.258  12.394  23.578  0.00  0.00    +0.000 A 
ATOM     27  C   UNL     1      -3.889  13.087  22.543  0.00  0.00    +0.000 A 
ATOM     28  C   UNL     1      -3.301  13.136  21.283  0.00  0.00    +0.000 A 
ATOM     29  F   UNL     1      -3.912  13.804  20.296  0.00  0.00    +0.000 F 
ATOM     30  C   UNL     1      -2.095  12.499  21.029  0.00  0.00    +0.000 A 
ENDBRANCH  21  24
ENDBRANCH  19  21
ENDBRANCH   4  19
TORSDOF 6
ENDMDL
MODEL 3
REMARK VINA RESULT:      -8.1      1.908      2.345
REMARK  Name = 
REMARK  6 active torsions:
REMARK  status: ('A' for Active; 'I' for Inactive)
REMARK    1  A    between atoms: C_2  and  C_21
REMARK    2  A    between atoms: N_3  and  C_4
REMARK    3  A    between atoms: C_7  and  N_8
REMARK    4  A    between atoms: N_8  and  S_9
REMARK    5  A    between atoms: S_9  and  C_12
REMARK    6  A    between atoms: C_24  and  N_25
REMARK                            x       y       z     vdW  Elec       q    Type
REMARK                         _______ _______ _______ _____ _____    ______ ____
ROOT
ATOM      1  C   UNL     1       7.945   7.013  18.449  0.00  0.00    +0.000 A 
ATOM      2  C   UNL     1       7.470   6.868  17.139  0.00  0.00    +0.000 A 
ATOM      3  C   UNL     1       6.667   5.783  16.767  0.00  0.00    +0.000 A 
ATOM      4  C   UNL     1       6.334   4.820  17.710  0.00  0.00    +0.000 A 
ATOM      5  C   UNL     1       6.821   4.929  19.012  0.00  0.00    +0.000 A 
ATOM      6  C   UNL     1       7.636   6.012  19.379  0.00  0.00    +0.000 A 
ENDROOT
BRANCH   1   9
ATOM      7  O   UNL     1       7.606   9.778  17.709  0.00  0.00    +0.000 OA
ATOM      8  C   UNL     1       8.531   9.429  18.437  0.00  0.00    +0.000 C 
ATOM      9  N   UNL     1       8.724   8.124  18.871  0.00  0.00    +0.000 N 
ATOM     10  H   UNL     1       9.386   7.985  19.622  0.00  0.00    +0.000 HD
BRANCH   8  11
ATOM     11  C   UNL     1       9.463  10.433  18.929  0.00  0.00    +0.000 A 
ATOM     12  C   UNL     1       9.726  10.764  20.252  0.00  0.00    +0.000 A 
ATOM     13  C   UNL     1      10.633  11.844  20.247  0.00  0.00    +0.000 A 
ATOM     14  C   UNL     1      10.869  12.108  18.919  0.00  0.00    +0.000 A 
ATOM     15  O   UNL     1      10.189  11.250  18.096  0.00  0.00    +0.000 OA
BRANCH  14  16
ATOM     16  N   UNL     1      11.670  13.121  18.304  0.00  0.00    +0.000 N 
ATOM     17  O   UNL     1      12.245  12.805  17.252  0.00  0.00    +0.000 OA
ATOM     18  O   UNL     1      11.726  14.223  18.859  0.00  0.00    +0.000 OA
ENDBRANCH  14  16
ENDBRANCH   8  11
ENDBRANCH   1   9
BRANCH   4  19
ATOM     19  N   UNL     1       5.480   3.738  17.375  0.00  0.00    +0.000 N 
ATOM     20  H   UNL     1       5.900   2.895  16.985  0.00  0.00    +0.000 HD
BRANCH  19  21
ATOM     21  S   UNL     1       4.148   3.399  18.349  0.00  0.00    +0.000 S 
ATOM     22  O   UNL     1       3.233   2.637  17.525  0.00  0.00    +0.000 OA
ATOM     23  O   UNL     1       4.590   2.898  19.630  0.00  0.00    +0.000 OA
BRANCH  21  24
ATOM     24  C   UNL     1       3.441   5.008  18.581  0.00  0.00    +0.000 A 
ATOM     25  C   UNL     1       3.508   5.955  17.550  0.00  0.00    +0.000 A 
ATOM     26  C   UNL     1       2.962   7.225  17.747  0.00  0.00    +0.000 A 
ATOM     27  C   UNL     1       2.349   7.536  18.962  0.00  0.00    +0.000 A 
ATOM     28  C   UNL     1       2.274   6.576  19.967  0.00  0.00    +0.000 A 
ATOM     29  F   UNL     1       1.682   6.883  21.128  0.00  0.00    +0.000 F 
ATOM     30  C   UNL     1       2.808   5.308  19.788  0.00  0.00    +0.000 A 
ENDBRANCH  21  24
ENDBRANCH  19  21
ENDBRANCH   4  19
TORSDOF 6
ENDMDL
MODEL 4
REMARK VINA RESULT:      -8.1      6.864      8.908
REMARK  Name = 
REMARK  6 active torsions:
REMARK  status: ('A' for Active; 'I' for Inactive)
REMARK    1  A    between atoms: C_2  and  C_21
REMARK    2  A    between atoms: N_3  and  C_4
REMARK    3  A    between atoms: C_7  and  N_8
REMARK    4  A    between atoms: N_8  and  S_9
REMARK    5  A    between atoms: S_9  and  C_12
REMARK    6  A    between atoms: C_24  and  N_25
REMARK                            x       y       z     vdW  Elec       q    Type
REMARK                         _______ _______ _______ _____ _____    ______ ____
ROOT
ATOM      1  C   UNL     1       2.684   7.875  18.407  0.00  0.00    +0.000 A 
ATOM      2  C   UNL     1       1.956   8.904  17.794  0.00  0.00    +0.000 A 
ATOM      3  C   UNL     1       0.932   9.579  18.469  0.00  0.00    +0.000 A 
ATOM      4  C   UNL     1       0.619   9.223  19.774  0.00  0.00    +0.000 A 
ATOM      5  C   UNL     1       1.310   8.182  20.392  0.00  0.00    +0.000 A 
ATOM      6  C   UNL     1       2.329   7.499  19.708  0.00  0.00    +0.000 A 
ENDROOT
BRANCH   1   9
ATOM      7  O   UNL     1       2.858   5.073  17.751  0.00  0.00    +0.000 OA
ATOM      8  C   UNL     1       3.794   5.834  17.521  0.00  0.00    +0.000 C 
ATOM      9  N   UNL     1       3.758   7.201  17.767  0.00  0.00    +0.000 N 
ATOM     10  H   UNL     1       4.494   7.759  17.355  0.00  0.00    +0.000 HD
BRANCH   8  11
ATOM     11  C   UNL     1       5.002   5.305  16.906  0.00  0.00    +0.000 A 
ATOM     12  C   UNL     1       6.101   4.747  17.549  0.00  0.00    +0.000 A 
ATOM     13  C   UNL     1       7.064   4.450  16.562  0.00  0.00    +0.000 A 
ATOM     14  C   UNL     1       6.494   4.845  15.374  0.00  0.00    +0.000 A 
ATOM     15  O   UNL     1       5.232   5.347  15.552  0.00  0.00    +0.000 OA
BRANCH  14  16
ATOM     16  N   UNL     1       7.020   4.828  14.045  0.00  0.00    +0.000 N 
ATOM     17  O   UNL     1       7.936   5.628  13.805  0.00  0.00    +0.000 OA
ATOM     18  O   UNL     1       6.529   4.026  13.244  0.00  0.00    +0.000 OA
ENDBRANCH  14  16
ENDBRANCH   8  11
ENDBRANCH   1   9
BRANCH   4  19
ATOM     19  N   UNL     1      -0.378   9.923  20.500  0.00  0.00    +0.000 N 
ATOM     20  H   UNL     1      -1.239   9.431  20.736  0.00  0.00    +0.000 HD
BRANCH  19  21
ATOM     21  S   UNL     1       0.080  11.021  21.693  0.00  0.00    +0.000 S 
ATOM     22  O   UNL     1       0.226  10.252  22.911  0.00  0.00    +0.000 OA
ATOM     23  O   UNL     1       1.156  11.855  21.206  0.00  0.00    +0.000 OA
BRANCH  21  24
ATOM     24  C   UNL     1      -1.378  12.015  21.862  0.00  0.00    +0.000 A 
ATOM     25  C   UNL     1      -2.066  12.445  20.720  0.00  0.00    +0.000 A 
ATOM     26  C   UNL     1      -3.204  13.240  20.862  0.00  0.00    +0.000 A 
ATOM     27  C   UNL     1      -3.651  13.591  22.137  0.00  0.00    +0.000 A 
ATOM     28  C   UNL     1      -2.966  13.137  23.261  0.00  0.00    +0.000 A 
ATOM     29  F   UNL     1      -3.403  13.477  24.480  0.00  0.00    +0.000 F 
ATOM     30  C   UNL     1      -1.834  12.344  23.139  0.00  0.00    +0.000 A 
ENDBRANCH  21  24
ENDBRANCH  19  21
ENDBRANCH   4  19
TORSDOF 6
ENDMDL
MODEL 5
REMARK VINA RESULT:      -8.0      1.103      1.355
REMARK  Name = 
REMARK  6 active torsions:
REMARK  status: ('A' for Active; 'I' for Inactive)
REMARK    1  A    between atoms: C_2  and  C_21
REMARK    2  A    between atoms: N_3  and  C_4
REMARK    3  A    between atoms: C_7  and  N_8
REMARK    4  A    between atoms: N_8  and  S_9
REMARK    5  A    between atoms: S_9  and  C_12
REMARK    6  A    between atoms: C_24  and  N_25
REMARK                            x       y       z     vdW  Elec       q    Type
REMARK                         _______ _______ _______ _____ _____    ______ ____
ROOT
ATOM      1  C   UNL     1       7.813   6.774  18.473  0.00  0.00    +0.000 A 
ATOM      2  C   UNL     1       7.514   6.428  17.147  0.00  0.00    +0.000 A 
ATOM      3  C   UNL     1       6.705   5.327  16.843  0.00  0.00    +0.000 A 
ATOM      4  C   UNL     1       6.188   4.549  17.870  0.00  0.00    +0.000 A 
ATOM      5  C   UNL     1       6.497   4.857  19.194  0.00  0.00    +0.000 A 
ATOM      6  C   UNL     1       7.318   5.956  19.496  0.00  0.00    +0.000 A 
ENDROOT
BRANCH   1   9
ATOM      7  O   UNL     1       7.463   9.486  17.564  0.00  0.00    +0.000 OA
ATOM      8  C   UNL     1       8.394   9.185  18.305  0.00  0.00    +0.000 C 
ATOM      9  N   UNL     1       8.592   7.910  18.818  0.00  0.00    +0.000 N 
ATOM     10  H   UNL     1       9.260   7.819  19.572  0.00  0.00    +0.000 HD
BRANCH   8  11
ATOM     11  C   UNL     1       9.327  10.219  18.727  0.00  0.00    +0.000 A 
ATOM     12  C   UNL     1       9.690  10.550  20.027  0.00  0.00    +0.000 A 
ATOM     13  C   UNL     1      10.553  11.663  19.956  0.00  0.00    +0.000 A 
ATOM     14  C   UNL     1      10.666  11.945  18.615  0.00  0.00    +0.000 A 
ATOM     15  O   UNL     1       9.949  11.068  17.844  0.00  0.00    +0.000 OA
BRANCH  14  16
ATOM     16  N   UNL     1      11.374  12.992  17.945  0.00  0.00    +0.000 N 
ATOM     17  O   UNL     1      11.437  12.910  16.709  0.00  0.00    +0.000 OA
ATOM     18  O   UNL     1      11.861  13.890  18.639  0.00  0.00    +0.000 OA
ENDBRANCH  14  16
ENDBRANCH   8  11
ENDBRANCH   1   9
BRANCH   4  19
ATOM     19  N   UNL     1       5.324   3.458  17.593  0.00  0.00    +0.000 N 
ATOM     20  H   UNL     1       5.508   2.568  18.054  0.00  0.00    +0.000 HD
BRANCH  19  21
ATOM     21  S   UNL     1       3.678   3.739  17.372  0.00  0.00    +0.000 S 
ATOM     22  O   UNL     1       3.568   5.082  16.841  0.00  0.00    +0.000 OA
ATOM     23  O   UNL     1       3.076   2.617  16.687  0.00  0.00    +0.000 OA
BRANCH  21  24
ATOM     24  C   UNL     1       3.081   3.775  19.040  0.00  0.00    +0.000 A 
ATOM     25  C   UNL     1       3.206   2.639  19.851  0.00  0.00    +0.000 A 
ATOM     26  C   UNL     1       2.719   2.671  21.159  0.00  0.00    +0.000 A 
ATOM     27  C   UNL     1       2.121   3.834  21.648  0.00  0.00    +0.000 A 
ATOM     28  C   UNL     1       2.024   4.959  20.835  0.00  0.00    +0.000 A 
ATOM     29  F   UNL     1       1.451   6.070  21.314  0.00  0.00    +0.000 F 
ATOM     30  C   UNL     1       2.505   4.947  19.533  0.00  0.00    +0.000 A 
ENDBRANCH  21  24
ENDBRANCH  19  21
ENDBRANCH   4  19
TORSDOF 6
ENDMDL
MODEL 6
REMARK VINA RESULT:      -8.0      7.499      9.745
REMARK  Name = 
REMARK  6 active torsions:
REMARK  status: ('A' for Active; 'I' for Inactive)
REMARK    1  A    between atoms: C_2  and  C_21
REMARK    2  A    between atoms: N_3  and  C_4
REMARK    3  A    between atoms: C_7  and  N_8
REMARK    4  A    between atoms: N_8  and  S_9
REMARK    5  A    between atoms: S_9  and  C_12
REMARK    6  A    between atoms: C_24  and  N_25
REMARK                            x       y       z     vdW  Elec       q    Type
REMARK                         _______ _______ _______ _____ _____    ______ ____
ROOT
ATOM      1  C   UNL     1       0.285   9.732  20.404  0.00  0.00    +0.000 A 
ATOM      2  C   UNL     1       0.963   8.645  20.972  0.00  0.00    +0.000 A 
ATOM      3  C   UNL     1       1.852   7.864  20.224  0.00  0.00    +0.000 A 
ATOM      4  C   UNL     1       2.070   8.163  18.886  0.00  0.00    +0.000 A 
ATOM      5  C   UNL     1       1.384   9.222  18.292  0.00  0.00    +0.000 A 
ATOM      6  C   UNL     1       0.483   9.996  19.043  0.00  0.00    +0.000 A 
ENDROOT
BRANCH   1   9
ATOM      7  O   UNL     1       0.889  12.290  21.587  0.00  0.00    +0.000 OA
ATOM      8  C   UNL     1      -0.217  11.776  21.728  0.00  0.00    +0.000 C 
ATOM      9  N   UNL     1      -0.589  10.571  21.146  0.00  0.00    +0.000 N 
ATOM     10  H   UNL     1      -1.574  10.343  21.157  0.00  0.00    +0.000 HD
BRANCH   8  11
ATOM     11  C   UNL     1      -1.230  12.476  22.503  0.00  0.00    +0.000 A 
ATOM     12  C   UNL     1      -1.120  13.723  23.105  0.00  0.00    +0.000 A 
ATOM     13  C   UNL     1      -2.316  13.959  23.814  0.00  0.00    +0.000 A 
ATOM     14  C   UNL     1      -3.086  12.840  23.601  0.00  0.00    +0.000 A 
ATOM     15  O   UNL     1      -2.459  11.932  22.789  0.00  0.00    +0.000 OA
BRANCH  14  16
ATOM     16  N   UNL     1      -4.379  12.496  24.107  0.00  0.00    +0.000 N 
ATOM     17  O   UNL     1      -5.298  12.442  23.276  0.00  0.00    +0.000 OA
ATOM     18  O   UNL     1      -4.482  12.279  25.318  0.00  0.00    +0.000 OA
ENDBRANCH  14  16
ENDBRANCH   8  11
ENDBRANCH   1   9
BRANCH   4  19
ATOM     19  N   UNL     1       3.004   7.422  18.117  0.00  0.00    +0.000 N 
ATOM     20  H   UNL     1       3.900   7.855  17.898  0.00  0.00    +0.000 HD
BRANCH  19  21
ATOM     21  S   UNL     1       3.132   5.758  18.346  0.00  0.00    +0.000 S 
ATOM     22  O   UNL     1       3.478   5.571  19.740  0.00  0.00    +0.000 OA
ATOM     23  O   UNL     1       1.987   5.092  17.767  0.00  0.00    +0.000 OA
BRANCH  21  24
ATOM     24  C   UNL     1       4.568   5.362  17.384  0.00  0.00    +0.000 A 
ATOM     25  C   UNL     1       4.585   4.200  16.602  0.00  0.00    +0.000 A 
ATOM     26  C   UNL     1       5.726   3.888  15.860  0.00  0.00    +0.000 A 
ATOM     27  C   UNL     1       6.832   4.738  15.897  0.00  0.00    +0.000 A 
ATOM     28  C   UNL     1       6.789   5.899  16.664  0.00  0.00    +0.000 A 
ATOM     29  F   UNL     1       7.854   6.710  16.692  0.00  0.00    +0.000 F 
ATOM     30  C   UNL     1       5.663   6.227  17.406  0.00  0.00    +0.000 A 
ENDBRANCH  21  24
ENDBRANCH  19  21
ENDBRANCH   4  19
TORSDOF 6
ENDMDL
MODEL 7
REMARK VINA RESULT:      -7.9      7.371      9.449
REMARK  Name = 
REMARK  6 active torsions:
REMARK  status: ('A' for Active; 'I' for Inactive)
REMARK    1  A    between atoms: C_2  and  C_21
REMARK    2  A    between atoms: N_3  and  C_4
REMARK    3  A    between atoms: C_7  and  N_8
REMARK    4  A    between atoms: N_8  and  S_9
REMARK    5  A    between atoms: S_9  and  C_12
REMARK    6  A    between atoms: C_24  and  N_25
REMARK                            x       y       z     vdW  Elec       q    Type
REMARK                         _______ _______ _______ _____ _____    ______ ____
ROOT
ATOM      1  C   UNL     1       1.848   8.393  18.806  0.00  0.00    +0.000 A 
ATOM      2  C   UNL     1       1.619   8.299  20.186  0.00  0.00    +0.000 A 
ATOM      3  C   UNL     1       0.710   9.142  20.836  0.00  0.00    +0.000 A 
ATOM      4  C   UNL     1       0.019  10.100  20.107  0.00  0.00    +0.000 A 
ATOM      5  C   UNL     1       0.254  10.231  18.739  0.00  0.00    +0.000 A 
ATOM      6  C   UNL     1       1.175   9.392  18.092  0.00  0.00    +0.000 A 
ENDROOT
BRANCH   1   9
ATOM      7  O   UNL     1       2.486   5.655  19.442  0.00  0.00    +0.000 OA
ATOM      8  C   UNL     1       3.026   6.225  18.498  0.00  0.00    +0.000 C 
ATOM      9  N   UNL     1       2.730   7.525  18.109  0.00  0.00    +0.000 N 
ATOM     10  H   UNL     1       3.077   7.822  17.206  0.00  0.00    +0.000 HD
BRANCH   8  11
ATOM     11  C   UNL     1       3.998   5.500  17.695  0.00  0.00    +0.000 A 
ATOM     12  C   UNL     1       3.816   4.289  17.037  0.00  0.00    +0.000 A 
ATOM     13  C   UNL     1       5.050   3.931  16.457  0.00  0.00    +0.000 A 
ATOM     14  C   UNL     1       5.914   4.945  16.796  0.00  0.00    +0.000 A 
ATOM     15  O   UNL     1       5.295   5.924  17.529  0.00  0.00    +0.000 OA
BRANCH  14  16
ATOM     16  N   UNL     1       7.309   5.103  16.524  0.00  0.00    +0.000 N 
ATOM     17  O   UNL     1       8.066   4.259  17.026  0.00  0.00    +0.000 OA
ATOM     18  O   UNL     1       7.652   6.055  15.816  0.00  0.00    +0.000 OA
ENDBRANCH  14  16
ENDBRANCH   8  11
ENDBRANCH   1   9
BRANCH   4  19
ATOM     19  N   UNL     1      -0.946  10.933  20.730  0.00  0.00    +0.000 N 
ATOM     20  H   UNL     1      -1.919  10.628  20.729  0.00  0.00    +0.000 HD
BRANCH  19  21
ATOM     21  S   UNL     1      -0.537  11.772  22.132  0.00  0.00    +0.000 S 
ATOM     22  O   UNL     1      -0.270  10.764  23.138  0.00  0.00    +0.000 OA
ATOM     23  O   UNL     1       0.438  12.794  21.827  0.00  0.00    +0.000 OA
BRANCH  21  24
ATOM     24  C   UNL     1      -2.070  12.554  22.556  0.00  0.00    +0.000 A 
ATOM     25  C   UNL     1      -2.523  13.650  21.811  0.00  0.00    +0.000 A 
ATOM     26  C   UNL     1      -3.724  14.270  22.162  0.00  0.00    +0.000 A 
ATOM     27  C   UNL     1      -4.464  13.788  23.243  0.00  0.00    +0.000 A 
ATOM     28  C   UNL     1      -4.007  12.685  23.959  0.00  0.00    +0.000 A 
ATOM     29  F   UNL     1      -4.725  12.229  24.994  0.00  0.00    +0.000 F 
ATOM     30  C   UNL     1      -2.818  12.055  23.623  0.00  0.00    +0.000 A 
ENDBRANCH  21  24
ENDBRANCH  19  21
ENDBRANCH   4  19
TORSDOF 6
ENDMDL
MODEL 8
REMARK VINA RESULT:      -7.9      5.833      8.562
REMARK  Name = 
REMARK  6 active torsions:
REMARK  status: ('A' for Active; 'I' for Inactive)
REMARK    1  A    between atoms: C_2  and  C_21
REMARK    2  A    between atoms: N_3  and  C_4
REMARK    3  A    between atoms: C_7  and  N_8
REMARK    4  A    between atoms: N_8  and  S_9
REMARK    5  A    between atoms: S_9  and  C_12
REMARK    6  A    between atoms: C_24  and  N_25
REMARK                            x       y       z     vdW  Elec       q    Type
REMARK                         _______ _______ _______ _____ _____    ______ ____
ROOT
ATOM      1  C   UNL     1       2.624   7.165  19.339  0.00  0.00    +0.000 A 
ATOM      2  C   UNL     1       3.129   7.806  18.199  0.00  0.00    +0.000 A 
ATOM      3  C   UNL     1       3.855   7.107  17.228  0.00  0.00    +0.000 A 
ATOM      4  C   UNL     1       4.091   5.749  17.391  0.00  0.00    +0.000 A 
ATOM      5  C   UNL     1       3.623   5.097  18.532  0.00  0.00    +0.000 A 
ATOM      6  C   UNL     1       2.905   5.804  19.511  0.00  0.00    +0.000 A 
ENDROOT
BRANCH   1   9
ATOM      7  O   UNL     1       0.982   9.507  18.984  0.00  0.00    +0.000 OA
ATOM      8  C   UNL     1       1.111   8.989  20.089  0.00  0.00    +0.000 C 
ATOM      9  N   UNL     1       1.846   7.834  20.321  0.00  0.00    +0.000 N 
ATOM     10  H   UNL     1       1.719   7.384  21.218  0.00  0.00    +0.000 HD
BRANCH   8  11
ATOM     11  C   UNL     1       0.419   9.573  21.229  0.00  0.00    +0.000 A 
ATOM     12  C   UNL     1      -0.004   8.924  22.383  0.00  0.00    +0.000 A 
ATOM     13  C   UNL     1      -0.697   9.866  23.170  0.00  0.00    +0.000 A 
ATOM     14  C   UNL     1      -0.655  11.036  22.448  0.00  0.00    +0.000 A 
ATOM     15  O   UNL     1       0.037  10.892  21.275  0.00  0.00    +0.000 OA
BRANCH  14  16
ATOM     16  N   UNL     1      -1.228  12.317  22.727  0.00  0.00    +0.000 N 
ATOM     17  O   UNL     1      -0.515  13.114  23.353  0.00  0.00    +0.000 OA
ATOM     18  O   UNL     1      -2.377  12.531  22.327  0.00  0.00    +0.000 OA
ENDBRANCH  14  16
ENDBRANCH   8  11
ENDBRANCH   1   9
BRANCH   4  19
ATOM     19  N   UNL     1       4.779   5.004  16.398  0.00  0.00    +0.000 N 
ATOM     20  H   UNL     1       4.309   4.837  15.509  0.00  0.00    +0.000 HD
BRANCH  19  21
ATOM     21  S   UNL     1       6.442   5.198  16.221  0.00  0.00    +0.000 S 
ATOM     22  O   UNL     1       6.698   6.617  16.361  0.00  0.00    +0.000 OA
ATOM     23  O   UNL     1       7.140   4.232  17.038  0.00  0.00    +0.000 OA
BRANCH  21  24
ATOM     24  C   UNL     1       6.683   4.780  14.515  0.00  0.00    +0.000 A 
ATOM     25  C   UNL     1       7.670   5.437  13.768  0.00  0.00    +0.000 A 
ATOM     26  C   UNL     1       7.842   5.112  12.421  0.00  0.00    +0.000 A 
ATOM     27  C   UNL     1       7.038   4.133  11.835  0.00  0.00    +0.000 A 
ATOM     28  C   UNL     1       6.076   3.478  12.598  0.00  0.00    +0.000 A 
ATOM     29  F   UNL     1       5.310   2.539  12.027  0.00  0.00    +0.000 F 
ATOM     30  C   UNL     1       5.893   3.785  13.938  0.00  0.00    +0.000 A 
ENDBRANCH  21  24
ENDBRANCH  19  21
ENDBRANCH   4  19
TORSDOF 6
ENDMDL
MODEL 9
REMARK VINA RESULT:      -7.9      6.517      8.403
REMARK  Name = 
REMARK  6 active torsions:
REMARK  status: ('A' for Active; 'I' for Inactive)
REMARK    1  A    between atoms: C_2  and  C_21
REMARK    2  A    between atoms: N_3  and  C_4
REMARK    3  A    between atoms: C_7  and  N_8
REMARK    4  A    between atoms: N_8  and  S_9
REMARK    5  A    between atoms: S_9  and  C_12
REMARK    6  A    between atoms: C_24  and  N_25
REMARK                            x       y       z     vdW  Elec       q    Type
REMARK                         _______ _______ _______ _____ _____    ______ ____
ROOT
ATOM      1  C   UNL     1       1.559   8.445  19.670  0.00  0.00    +0.000 A 
ATOM      2  C   UNL     1       2.261   8.269  18.469  0.00  0.00    +0.000 A 
ATOM      3  C   UNL     1       2.843   7.041  18.134  0.00  0.00    +0.000 A 
ATOM      4  C   UNL     1       2.731   5.967  19.007  0.00  0.00    +0.000 A 
ATOM      5  C   UNL     1       2.063   6.128  20.220  0.00  0.00    +0.000 A 
ATOM      6  C   UNL     1       1.491   7.365  20.559  0.00  0.00    +0.000 A 
ENDROOT
BRANCH   1   9
ATOM      7  O   UNL     1       1.483   9.710  22.259  0.00  0.00    +0.000 OA
ATOM      8  C   UNL     1       0.885  10.194  21.302  0.00  0.00    +0.000 C 
ATOM      9  N   UNL     1       0.919   9.664  20.019  0.00  0.00    +0.000 N 
ATOM     10  H   UNL     1       0.564  10.248  19.273  0.00  0.00    +0.000 HD
BRANCH   8  11
ATOM     11  C   UNL     1       0.131  11.425  21.489  0.00  0.00    +0.000 A 
ATOM     12  C   UNL     1      -0.140  12.402  20.538  0.00  0.00    +0.000 A 
ATOM     13  C   UNL     1      -0.827  13.447  21.188  0.00  0.00    +0.000 A 
ATOM     14  C   UNL     1      -0.935  13.046  22.498  0.00  0.00    +0.000 A 
ATOM     15  O   UNL     1      -0.382  11.810  22.704  0.00  0.00    +0.000 OA
BRANCH  14  16
ATOM     16  N   UNL     1      -1.496  13.718  23.629  0.00  0.00    +0.000 N 
ATOM     17  O   UNL     1      -2.656  13.404  23.936  0.00  0.00    +0.000 OA
ATOM     18  O   UNL     1      -0.792  14.550  24.210  0.00  0.00    +0.000 OA
ENDBRANCH  14  16
ENDBRANCH   8  11
ENDBRANCH   1   9
BRANCH   4  19
ATOM     19  N   UNL     1       3.266   4.697  18.671  0.00  0.00    +0.000 N 
ATOM     20  H   UNL     1       2.954   4.255  17.808  0.00  0.00    +0.000 HD
BRANCH  19  21
ATOM     21  S   UNL     1       4.879   4.357  19.021  0.00  0.00    +0.000 S 
ATOM     22  O   UNL     1       5.364   5.476  19.802  0.00  0.00    +0.000 OA
ATOM     23  O   UNL     1       5.001   3.001  19.507  0.00  0.00    +0.000 OA
BRANCH  21  24
ATOM     24  C   UNL     1       5.633   4.458  17.420  0.00  0.00    +0.000 A 
ATOM     25  C   UNL     1       6.998   4.753  17.309  0.00  0.00    +0.000 A 
ATOM     26  C   UNL     1       7.581   4.845  16.044  0.00  0.00    +0.000 A 
ATOM     27  C   UNL     1       6.802   4.635  14.905  0.00  0.00    +0.000 A 
ATOM     28  C   UNL     1       5.452   4.323  15.035  0.00  0.00    +0.000 A 
ATOM     29  F   UNL     1       4.714   4.122  13.936  0.00  0.00    +0.000 F 
ATOM     30  C   UNL     1       4.857   4.224  16.284  0.00  0.00    +0.000 A 
ENDBRANCH  21  24
ENDBRANCH  19  21
ENDBRANCH   4  19
TORSDOF 6
ENDMDL
