MODEL 1
REMARK VINA RESULT:      -8.4      0.000      0.000
REMARK  Name = 
REMARK  2 active torsions:
REMARK  status: ('A' for Active; 'I' for Inactive)
REMARK    1  A    between atoms: C_7  and  N_8
REMARK    2  A    between atoms: C_12  and  C_14
REMARK                            x       y       z     vdW  Elec       q    Type
REMARK                         _______ _______ _______ _____ _____    ______ ____
ROOT
ATOM      1  N   UNL     1       2.318   7.174  19.722  0.00  0.00    +0.000 N 
ATOM      2  C   UNL     1       2.158   5.779  20.187  0.00  0.00    +0.000 C 
ATOM      3  C   UNL     1       2.075   4.803  18.986  0.00  0.00    +0.000 C 
ATOM      4  N   UNL     1       3.133   5.051  17.991  0.00  0.00    +0.000 N 
ATOM      5  C   UNL     1       3.932   3.993  17.574  0.00  0.00    +0.000 C 
ATOM      6  O   UNL     1       3.723   2.835  17.939  0.00  0.00    +0.000 OA
ATOM      7  C   UNL     1       3.154   6.448  17.531  0.00  0.00    +0.000 C 
ATOM      8  C   UNL     1       3.396   7.372  18.736  0.00  0.00    +0.000 C 
ENDROOT
BRANCH   1  15
ATOM      9  O   UNL     1      -1.395  12.312  21.122  0.00  0.00    +0.000 OA
ATOM     10  C   UNL     1      -0.942  11.314  21.654  0.00  0.00    +0.000 C 
ATOM     11  C   UNL     1      -1.156  10.886  23.084  0.00  0.00    +0.000 C 
ATOM     12  C   UNL     1      -0.338   9.592  23.243  0.00  0.00    +0.000 C 
ATOM     13  C   UNL     1       0.234   9.340  21.882  0.00  0.00    +0.000 A 
ATOM     14  C   UNL     1       1.038   8.278  21.476  0.00  0.00    +0.000 A 
ATOM     15  C   UNL     1       1.510   8.208  20.151  0.00  0.00    +0.000 A 
ATOM     16  C   UNL     1       1.123   9.250  19.271  0.00  0.00    +0.000 A 
ATOM     17  C   UNL     1       0.319  10.321  19.672  0.00  0.00    +0.000 A 
ATOM     18  C   UNL     1      -0.104  10.335  20.980  0.00  0.00    +0.000 A 
ENDBRANCH   1  15
BRANCH   5  19
ATOM     19  C   UNL     1       5.082   4.204  16.650  0.00  0.00    +0.000 A 
ATOM     20  C   UNL     1       6.337   4.651  17.083  0.00  0.00    +0.000 A 
ATOM     21  C   UNL     1       7.364   4.883  16.165  0.00  0.00    +0.000 A 
ATOM     22  C   UNL     1       7.172   4.583  14.818  0.00  0.00    +0.000 A 
ATOM     23  C   UNL     1       5.958   4.041  14.397  0.00  0.00    +0.000 A 
ATOM     24 CL   UNL     1       5.758   3.590  12.749  0.00  0.00    +0.000 Cl
ATOM     25  C   UNL     1       4.912   3.858  15.301  0.00  0.00    +0.000 A 
ENDBRANCH   5  19
TORSDOF 2
ENDMDL
MODEL 2
REMARK VINA RESULT:      -7.9      3.028      8.752
REMARK  Name = 
REMARK  2 active torsions:
REMARK  status: ('A' for Active; 'I' for Inactive)
REMARK    1  A    between atoms: C_7  and  N_8
REMARK    2  A    between atoms: C_12  and  C_14
REMARK                            x       y       z     vdW  Elec       q    Type
REMARK                         _______ _______ _______ _____ _____    ______ ____
ROOT
ATOM      1  N   UNL     1       2.633   6.871  18.880  0.00  0.00    +0.000 N 
ATOM      2  C   UNL     1       2.005   6.515  20.172  0.00  0.00    +0.000 C 
ATOM      3  C   UNL     1       1.725   7.783  21.017  0.00  0.00    +0.000 C 
ATOM      4  N   UNL     1       1.067   8.843  20.232  0.00  0.00    +0.000 N 
ATOM      5  C   UNL     1      -0.102   9.418  20.716  0.00  0.00    +0.000 C 
ATOM      6  O   UNL     1      -0.555   9.137  21.827  0.00  0.00    +0.000 OA
ATOM      7  C   UNL     1       1.814   9.181  19.011  0.00  0.00    +0.000 C 
ATOM      8  C   UNL     1       1.933   7.928  18.128  0.00  0.00    +0.000 C 
ENDROOT
BRANCH   1  15
ATOM      9  O   UNL     1       8.285   4.053  17.376  0.00  0.00    +0.000 OA
ATOM     10  C   UNL     1       7.318   4.557  16.832  0.00  0.00    +0.000 C 
ATOM     11  C   UNL     1       7.100   4.700  15.347  0.00  0.00    +0.000 C 
ATOM     12  C   UNL     1       5.754   5.434  15.208  0.00  0.00    +0.000 C 
ATOM     13  C   UNL     1       5.271   5.602  16.614  0.00  0.00    +0.000 A 
ATOM     14  C   UNL     1       4.084   6.189  17.047  0.00  0.00    +0.000 A 
ATOM     15  C   UNL     1       3.796   6.285  18.421  0.00  0.00    +0.000 A 
ATOM     16  C   UNL     1       4.755   5.754  19.322  0.00  0.00    +0.000 A 
ATOM     17  C   UNL     1       5.950   5.168  18.896  0.00  0.00    +0.000 A 
ATOM     18  C   UNL     1       6.175   5.110  17.540  0.00  0.00    +0.000 A 
ENDBRANCH   1  15
BRANCH   5  19
ATOM     19  C   UNL     1      -0.865  10.419  19.917  0.00  0.00    +0.000 A 
ATOM     20  C   UNL     1      -1.024  11.752  20.317  0.00  0.00    +0.000 A 
ATOM     21  C   UNL     1      -1.794  12.634  19.556  0.00  0.00    +0.000 A 
ATOM     22  C   UNL     1      -2.335  12.214  18.343  0.00  0.00    +0.000 A 
ATOM     23  C   UNL     1      -2.093  10.918  17.891  0.00  0.00    +0.000 A 
ATOM     24 CL   UNL     1      -2.690  10.433  16.351  0.00  0.00    +0.000 Cl
ATOM     25  C   UNL     1      -1.370  10.017  18.673  0.00  0.00    +0.000 A 
ENDBRANCH   5  19
TORSDOF 2
ENDMDL
MODEL 3
REMARK VINA RESULT:      -7.8      0.661      1.542
REMARK  Name = 
REMARK  2 active torsions:
REMARK  status: ('A' for Active; 'I' for Inactive)
REMARK    1  A    between atoms: C_7  and  N_8
REMARK    2  A    between atoms: C_12  and  C_14
REMARK                            x       y       z     vdW  Elec       q    Type
REMARK                         _______ _______ _______ _____ _____    ______ ____
ROOT
ATOM      1  N   UNL     1       2.122   7.162  20.014  0.00  0.00    +0.000 N 
ATOM      2  C   UNL     1       1.907   5.764  20.448  0.00  0.00    +0.000 C 
ATOM      3  C   UNL     1       1.869   4.808  19.229  0.00  0.00    +0.000 C 
ATOM      4  N   UNL     1       2.987   5.046  18.299  0.00  0.00    +0.000 N 
ATOM      5  C   UNL     1       3.785   3.977  17.910  0.00  0.00    +0.000 C 
ATOM      6  O   UNL     1       3.531   2.819  18.245  0.00  0.00    +0.000 OA
ATOM      7  C   UNL     1       3.062   6.449  17.862  0.00  0.00    +0.000 C 
ATOM      8  C   UNL     1       3.256   7.351  19.093  0.00  0.00    +0.000 C 
ENDROOT
BRANCH   1  15
ATOM      9  O   UNL     1      -1.759  11.744  22.483  0.00  0.00    +0.000 OA
ATOM     10  C   UNL     1      -1.173  11.473  21.450  0.00  0.00    +0.000 C 
ATOM     11  C   UNL     1      -1.171  12.289  20.182  0.00  0.00    +0.000 C 
ATOM     12  C   UNL     1      -0.318  11.482  19.187  0.00  0.00    +0.000 C 
ATOM     13  C   UNL     1       0.156  10.298  19.972  0.00  0.00    +0.000 A 
ATOM     14  C   UNL     1       0.983   9.263  19.543  0.00  0.00    +0.000 A 
ATOM     15  C   UNL     1       1.313   8.207  20.414  0.00  0.00    +0.000 A 
ATOM     16  C   UNL     1       0.777   8.260  21.726  0.00  0.00    +0.000 A 
ATOM     17  C   UNL     1      -0.056   9.293  22.163  0.00  0.00    +0.000 A 
ATOM     18  C   UNL     1      -0.347  10.291  21.262  0.00  0.00    +0.000 A 
ENDBRANCH   1  15
BRANCH   5  19
ATOM     19  C   UNL     1       4.989   4.176  17.054  0.00  0.00    +0.000 A 
ATOM     20  C   UNL     1       6.236   4.551  17.568  0.00  0.00    +0.000 A 
ATOM     21  C   UNL     1       7.318   4.775  16.714  0.00  0.00    +0.000 A 
ATOM     22  C   UNL     1       7.184   4.539  15.347  0.00  0.00    +0.000 A 
ATOM     23  C   UNL     1       5.972   4.067  14.843  0.00  0.00    +0.000 A 
ATOM     24 CL   UNL     1       5.839   3.693  13.169  0.00  0.00    +0.000 Cl
ATOM     25  C   UNL     1       4.874   3.893  15.685  0.00  0.00    +0.000 A 
ENDBRANCH   5  19
TORSDOF 2
ENDMDL
MODEL 4
REMARK VINA RESULT:      -7.8      4.333      9.468
REMARK  Name = 
REMARK  2 active torsions:
REMARK  status: ('A' for Active; 'I' for Inactive)
REMARK    1  A    between atoms: C_7  and  N_8
REMARK    2  A    between atoms: C_12  and  C_14
REMARK                            x       y       z     vdW  Elec       q    Type
REMARK                         _______ _______ _______ _____ _____    ______ ____
ROOT
ATOM      1  N   UNL     1       1.579   8.604  19.685  0.00  0.00    +0.000 N 
ATOM      2  C   UNL     1       1.527   9.536  18.538  0.00  0.00    +0.000 C 
ATOM      3  C   UNL     1       0.106  10.132  18.375  0.00  0.00    +0.000 C 
ATOM      4  N   UNL     1      -0.443  10.624  19.651  0.00  0.00    +0.000 N 
ATOM      5  C   UNL     1      -0.939  11.920  19.721  0.00  0.00    +0.000 C 
ATOM      6  O   UNL     1      -1.021  12.640  18.724  0.00  0.00    +0.000 OA
ATOM      7  C   UNL     1      -0.423   9.595  20.703  0.00  0.00    +0.000 C 
ATOM      8  C   UNL     1       1.028   9.145  20.941  0.00  0.00    +0.000 C 
ENDROOT
BRANCH   1  15
ATOM      9  O   UNL     1       4.175   2.747  18.633  0.00  0.00    +0.000 OA
ATOM     10  C   UNL     1       3.483   3.330  19.450  0.00  0.00    +0.000 C 
ATOM     11  C   UNL     1       2.911   2.746  20.718  0.00  0.00    +0.000 C 
ATOM     12  C   UNL     1       2.092   3.886  21.350  0.00  0.00    +0.000 C 
ATOM     13  C   UNL     1       2.302   5.052  20.435  0.00  0.00    +0.000 A 
ATOM     14  C   UNL     1       1.795   6.343  20.564  0.00  0.00    +0.000 A 
ATOM     15  C   UNL     1       2.077   7.319  19.590  0.00  0.00    +0.000 A 
ATOM     16  C   UNL     1       2.895   6.929  18.500  0.00  0.00    +0.000 A 
ATOM     17  C   UNL     1       3.405   5.635  18.362  0.00  0.00    +0.000 A 
ATOM     18  C   UNL     1       3.088   4.725  19.343  0.00  0.00    +0.000 A 
ENDBRANCH   1  15
BRANCH   5  19
ATOM     19  C   UNL     1      -1.411  12.504  21.008  0.00  0.00    +0.000 A 
ATOM     20  C   UNL     1      -0.550  13.115  21.929  0.00  0.00    +0.000 A 
ATOM     21  C   UNL     1      -1.039  13.599  23.144  0.00  0.00    +0.000 A 
ATOM     22  C   UNL     1      -2.406  13.556  23.410  0.00  0.00    +0.000 A 
ATOM     23  C   UNL     1      -3.279  13.041  22.452  0.00  0.00    +0.000 A 
ATOM     24 CL   UNL     1      -4.974  13.071  22.749  0.00  0.00    +0.000 Cl
ATOM     25  C   UNL     1      -2.790  12.509  21.260  0.00  0.00    +0.000 A 
ENDBRANCH   5  19
TORSDOF 2
ENDMDL
MODEL 5
REMARK VINA RESULT:      -7.7      3.644      9.059
REMARK  Name = 
REMARK  2 active torsions:
REMARK  status: ('A' for Active; 'I' for Inactive)
REMARK    1  A    between atoms: C_7  and  N_8
REMARK    2  A    between atoms: C_12  and  C_14
REMARK                            x       y       z     vdW  Elec       q    Type
REMARK                         _______ _______ _______ _____ _____    ______ ____
ROOT
ATOM      1  N   UNL     1       2.635   6.864  18.883  0.00  0.00    +0.000 N 
ATOM      2  C   UNL     1       2.016   6.501  20.177  0.00  0.00    +0.000 C 
ATOM      3  C   UNL     1       1.739   7.765  21.029  0.00  0.00    +0.000 C 
ATOM      4  N   UNL     1       1.074   8.827  20.253  0.00  0.00    +0.000 N 
ATOM      5  C   UNL     1      -0.093   9.398  20.747  0.00  0.00    +0.000 C 
ATOM      6  O   UNL     1      -0.538   9.111  21.859  0.00  0.00    +0.000 OA
ATOM      7  C   UNL     1       1.813   9.172  19.029  0.00  0.00    +0.000 C 
ATOM      8  C   UNL     1       1.929   7.923  18.140  0.00  0.00    +0.000 C 
ENDROOT
BRANCH   1  15
ATOM      9  O   UNL     1       8.281   4.059  17.332  0.00  0.00    +0.000 OA
ATOM     10  C   UNL     1       7.312   4.569  16.796  0.00  0.00    +0.000 C 
ATOM     11  C   UNL     1       7.089   4.726  15.313  0.00  0.00    +0.000 C 
ATOM     12  C   UNL     1       5.743   5.462  15.186  0.00  0.00    +0.000 C 
ATOM     13  C   UNL     1       5.265   5.617  16.596  0.00  0.00    +0.000 A 
ATOM     14  C   UNL     1       4.079   6.200  17.038  0.00  0.00    +0.000 A 
ATOM     15  C   UNL     1       3.796   6.282  18.414  0.00  0.00    +0.000 A 
ATOM     16  C   UNL     1       4.758   5.743  19.306  0.00  0.00    +0.000 A 
ATOM     17  C   UNL     1       5.951   5.160  18.871  0.00  0.00    +0.000 A 
ATOM     18  C   UNL     1       6.172   5.116  17.514  0.00  0.00    +0.000 A 
ENDBRANCH   1  15
BRANCH   5  19
ATOM     19  C   UNL     1      -0.862  10.401  19.958  0.00  0.00    +0.000 A 
ATOM     20  C   UNL     1      -1.389  10.131  18.689  0.00  0.00    +0.000 A 
ATOM     21  C   UNL     1      -2.056  11.126  17.971  0.00  0.00    +0.000 A 
ATOM     22  C   UNL     1      -2.281  12.371  18.554  0.00  0.00    +0.000 A 
ATOM     23  C   UNL     1      -1.848  12.611  19.858  0.00  0.00    +0.000 A 
ATOM     24 CL   UNL     1      -2.206  14.119  20.605  0.00  0.00    +0.000 Cl
ATOM     25  C   UNL     1      -1.135  11.639  20.558  0.00  0.00    +0.000 A 
ENDBRANCH   5  19
TORSDOF 2
ENDMDL
MODEL 6
REMARK VINA RESULT:      -7.7      4.011      9.642
REMARK  Name = 
REMARK  2 active torsions:
REMARK  status: ('A' for Active; 'I' for Inactive)
REMARK    1  A    between atoms: C_7  and  N_8
REMARK    2  A    between atoms: C_12  and  C_14
REMARK                            x       y       z     vdW  Elec       q    Type
REMARK                         _______ _______ _______ _____ _____    ______ ____
ROOT
ATOM      1  N   UNL     1       1.641   8.681  19.478  0.00  0.00    +0.000 N 
ATOM      2  C   UNL     1       1.527   9.652  18.368  0.00  0.00    +0.000 C 
ATOM      3  C   UNL     1       0.077  10.185  18.247  0.00  0.00    +0.000 C 
ATOM      4  N   UNL     1      -0.475  10.601  19.548  0.00  0.00    +0.000 N 
ATOM      5  C   UNL     1      -1.031  11.868  19.674  0.00  0.00    +0.000 C 
ATOM      6  O   UNL     1      -1.163  12.621  18.708  0.00  0.00    +0.000 OA
ATOM      7  C   UNL     1      -0.390   9.536  20.559  0.00  0.00    +0.000 C 
ATOM      8  C   UNL     1       1.084   9.147  20.761  0.00  0.00    +0.000 C 
ENDROOT
BRANCH   1  15
ATOM      9  O   UNL     1       4.018   2.640  19.391  0.00  0.00    +0.000 OA
ATOM     10  C   UNL     1       4.008   3.651  18.710  0.00  0.00    +0.000 C 
ATOM     11  C   UNL     1       4.677   3.834  17.370  0.00  0.00    +0.000 C 
ATOM     12  C   UNL     1       4.388   5.293  16.974  0.00  0.00    +0.000 C 
ATOM     13  C   UNL     1       3.528   5.819  18.081  0.00  0.00    +0.000 A 
ATOM     14  C   UNL     1       2.969   7.090  18.199  0.00  0.00    +0.000 A 
ATOM     15  C   UNL     1       2.197   7.426  19.327  0.00  0.00    +0.000 A 
ATOM     16  C   UNL     1       2.015   6.420  20.310  0.00  0.00    +0.000 A 
ATOM     17  C   UNL     1       2.575   5.144  20.200  0.00  0.00    +0.000 A 
ATOM     18  C   UNL     1       3.324   4.880  19.077  0.00  0.00    +0.000 A 
ENDBRANCH   1  15
BRANCH   5  19
ATOM     19  C   UNL     1      -1.510  12.380  20.990  0.00  0.00    +0.000 A 
ATOM     20  C   UNL     1      -0.649  12.891  21.969  0.00  0.00    +0.000 A 
ATOM     21  C   UNL     1      -1.148  13.308  23.205  0.00  0.00    +0.000 A 
ATOM     22  C   UNL     1      -2.522  13.302  23.438  0.00  0.00    +0.000 A 
ATOM     23  C   UNL     1      -3.391  12.890  22.428  0.00  0.00    +0.000 A 
ATOM     24 CL   UNL     1      -5.090  12.968  22.690  0.00  0.00    +0.000 Cl
ATOM     25  C   UNL     1      -2.894  12.422  21.212  0.00  0.00    +0.000 A 
ENDBRANCH   5  19
TORSDOF 2
ENDMDL
MODEL 7
REMARK VINA RESULT:      -7.6      0.910      1.052
REMARK  Name = 
REMARK  2 active torsions:
REMARK  status: ('A' for Active; 'I' for Inactive)
REMARK    1  A    between atoms: C_7  and  N_8
REMARK    2  A    between atoms: C_12  and  C_14
REMARK                            x       y       z     vdW  Elec       q    Type
REMARK                         _______ _______ _______ _____ _____    ______ ____
ROOT
ATOM      1  N   UNL     1       2.070   7.859  19.551  0.00  0.00    +0.000 N 
ATOM      2  C   UNL     1       2.062   6.645  20.396  0.00  0.00    +0.000 C 
ATOM      3  C   UNL     1       2.069   5.365  19.522  0.00  0.00    +0.000 C 
ATOM      4  N   UNL     1       3.086   5.422  18.457  0.00  0.00    +0.000 N 
ATOM      5  C   UNL     1       3.987   4.372  18.324  0.00  0.00    +0.000 C 
ATOM      6  O   UNL     1       3.903   3.351  19.008  0.00  0.00    +0.000 OA
ATOM      7  C   UNL     1       2.956   6.626  17.622  0.00  0.00    +0.000 C 
ATOM      8  C   UNL     1       3.112   7.873  18.508  0.00  0.00    +0.000 C 
ENDROOT
BRANCH   1  15
ATOM      9  O   UNL     1      -2.149  12.793  19.590  0.00  0.00    +0.000 OA
ATOM     10  C   UNL     1      -1.583  12.041  20.364  0.00  0.00    +0.000 C 
ATOM     11  C   UNL     1      -1.729  12.026  21.865  0.00  0.00    +0.000 C 
ATOM     12  C   UNL     1      -0.775  10.920  22.350  0.00  0.00    +0.000 C 
ATOM     13  C   UNL     1      -0.200  10.343  21.093  0.00  0.00    +0.000 A 
ATOM     14  C   UNL     1       0.707   9.292  20.972  0.00  0.00    +0.000 A 
ATOM     15  C   UNL     1       1.163   8.889  19.702  0.00  0.00    +0.000 A 
ATOM     16  C   UNL     1       0.653   9.589  18.579  0.00  0.00    +0.000 A 
ATOM     17  C   UNL     1      -0.254  10.646  18.693  0.00  0.00    +0.000 A 
ATOM     18  C   UNL     1      -0.656  10.996  19.961  0.00  0.00    +0.000 A 
ENDBRANCH   1  15
BRANCH   5  19
ATOM     19  C   UNL     1       5.099   4.422  17.334  0.00  0.00    +0.000 A 
ATOM     20  C   UNL     1       6.434   4.641  17.697  0.00  0.00    +0.000 A 
ATOM     21  C   UNL     1       7.429   4.732  16.721  0.00  0.00    +0.000 A 
ATOM     22  C   UNL     1       7.111   4.514  15.382  0.00  0.00    +0.000 A 
ATOM     23  C   UNL     1       5.801   4.196  15.027  0.00  0.00    +0.000 A 
ATOM     24 CL   UNL     1       5.431   3.842  13.384  0.00  0.00    +0.000 Cl
ATOM     25  C   UNL     1       4.794   4.157  15.991  0.00  0.00    +0.000 A 
ENDBRANCH   5  19
TORSDOF 2
ENDMDL
MODEL 8
REMARK VINA RESULT:      -7.5      1.631      2.395
REMARK  Name = 
REMARK  2 active torsions:
REMARK  status: ('A' for Active; 'I' for Inactive)
REMARK    1  A    between atoms: C_7  and  N_8
REMARK    2  A    between atoms: C_12  and  C_14
REMARK                            x       y       z     vdW  Elec       q    Type
REMARK                         _______ _______ _______ _____ _____    ______ ____
ROOT
ATOM      1  N   UNL     1       1.872   8.170  19.407  0.00  0.00    +0.000 N 
ATOM      2  C   UNL     1       2.004   7.161  20.482  0.00  0.00    +0.000 C 
ATOM      3  C   UNL     1       2.115   5.734  19.889  0.00  0.00    +0.000 C 
ATOM      4  N   UNL     1       3.094   5.661  18.790  0.00  0.00    +0.000 N 
ATOM      5  C   UNL     1       4.091   4.694  18.833  0.00  0.00    +0.000 C 
ATOM      6  O   UNL     1       4.125   3.833  19.714  0.00  0.00    +0.000 OA
ATOM      7  C   UNL     1       2.825   6.649  17.733  0.00  0.00    +0.000 C 
ATOM      8  C   UNL     1       2.880   8.062  18.337  0.00  0.00    +0.000 C 
ENDROOT
BRANCH   1  15
ATOM      9  O   UNL     1      -2.669  12.777  19.959  0.00  0.00    +0.000 OA
ATOM     10  C   UNL     1      -2.262  11.957  19.154  0.00  0.00    +0.000 C 
ATOM     11  C   UNL     1      -2.798  11.726  17.763  0.00  0.00    +0.000 C 
ATOM     12  C   UNL     1      -1.961  10.563  17.200  0.00  0.00    +0.000 C 
ATOM     13  C   UNL     1      -0.971  10.255  18.279  0.00  0.00    +0.000 A 
ATOM     14  C   UNL     1       0.037   9.294  18.266  0.00  0.00    +0.000 A 
ATOM     15  C   UNL     1       0.872   9.121  19.387  0.00  0.00    +0.000 A 
ATOM     16  C   UNL     1       0.641   9.968  20.501  0.00  0.00    +0.000 A 
ATOM     17  C   UNL     1      -0.370  10.932  20.523  0.00  0.00    +0.000 A 
ATOM     18  C   UNL     1      -1.156  11.046  19.400  0.00  0.00    +0.000 A 
ENDBRANCH   1  15
BRANCH   5  19
ATOM     19  C   UNL     1       5.167   4.639  17.804  0.00  0.00    +0.000 A 
ATOM     20  C   UNL     1       6.528   4.736  18.118  0.00  0.00    +0.000 A 
ATOM     21  C   UNL     1       7.492   4.732  17.108  0.00  0.00    +0.000 A 
ATOM     22  C   UNL     1       7.108   4.540  15.782  0.00  0.00    +0.000 A 
ATOM     23  C   UNL     1       5.763   4.340  15.475  0.00  0.00    +0.000 A 
ATOM     24 CL   UNL     1       5.305   4.016  13.849  0.00  0.00    +0.000 Cl
ATOM     25  C   UNL     1       4.792   4.397  16.475  0.00  0.00    +0.000 A 
ENDBRANCH   5  19
TORSDOF 2
ENDMDL
MODEL 9
REMARK VINA RESULT:      -7.4      1.746      2.208
REMARK  Name = 
REMARK  2 active torsions:
REMARK  status: ('A' for Active; 'I' for Inactive)
REMARK    1  A    between atoms: C_7  and  N_8
REMARK    2  A    between atoms: C_12  and  C_14
REMARK                            x       y       z     vdW  Elec       q    Type
REMARK                         _______ _______ _______ _____ _____    ______ ____
ROOT
ATOM      1  N   UNL     1       1.502   8.357  20.175  0.00  0.00    +0.000 N 
ATOM      2  C   UNL     1       1.613   7.186  21.074  0.00  0.00    +0.000 C 
ATOM      3  C   UNL     1       1.602   5.866  20.263  0.00  0.00    +0.000 C 
ATOM      4  N   UNL     1       2.525   5.907  19.116  0.00  0.00    +0.000 N 
ATOM      5  C   UNL     1       3.455   4.887  18.957  0.00  0.00    +0.000 C 
ATOM      6  O   UNL     1       3.470   3.899  19.693  0.00  0.00    +0.000 OA
ATOM      7  C   UNL     1       2.277   7.062  18.239  0.00  0.00    +0.000 C 
ATOM      8  C   UNL     1       2.453   8.357  19.049  0.00  0.00    +0.000 C 
ENDROOT
BRANCH   1  15
ATOM      9  O   UNL     1      -2.867  13.156  20.340  0.00  0.00    +0.000 OA
ATOM     10  C   UNL     1      -2.254  12.423  21.097  0.00  0.00    +0.000 C 
ATOM     11  C   UNL     1      -2.352  12.408  22.602  0.00  0.00    +0.000 C 
ATOM     12  C   UNL     1      -1.348  11.333  23.058  0.00  0.00    +0.000 C 
ATOM     13  C   UNL     1      -0.796  10.771  21.785  0.00  0.00    +0.000 A 
ATOM     14  C   UNL     1       0.139   9.749  21.636  0.00  0.00    +0.000 A 
ATOM     15  C   UNL     1       0.568   9.358  20.354  0.00  0.00    +0.000 A 
ATOM     16  C   UNL     1       0.001  10.038  19.246  0.00  0.00    +0.000 A 
ATOM     17  C   UNL     1      -0.935  11.066  19.387  0.00  0.00    +0.000 A 
ATOM     18  C   UNL     1      -1.308  11.407  20.667  0.00  0.00    +0.000 A 
ENDBRANCH   1  15
BRANCH   5  19
ATOM     19  C   UNL     1       4.480   4.930  17.876  0.00  0.00    +0.000 A 
ATOM     20  C   UNL     1       4.429   4.106  16.745  0.00  0.00    +0.000 A 
ATOM     21  C   UNL     1       5.445   4.151  15.788  0.00  0.00    +0.000 A 
ATOM     22  C   UNL     1       6.473   5.084  15.909  0.00  0.00    +0.000 A 
ATOM     23  C   UNL     1       6.472   5.976  16.981  0.00  0.00    +0.000 A 
ATOM     24 CL   UNL     1       7.695   7.183  17.078  0.00  0.00    +0.000 Cl
ATOM     25  C   UNL     1       5.489   5.899  17.967  0.00  0.00    +0.000 A 
ENDBRANCH   5  19
TORSDOF 2
ENDMDL
