MODEL 1
REMARK VINA RESULT:      -8.0      0.000      0.000
REMARK  Name = 
REMARK  5 active torsions:
REMARK  status: ('A' for Active; 'I' for Inactive)
REMARK    1  A    between atoms: C_5  and  C_6
REMARK    2  A    between atoms: C_6  and  O_8
REMARK    3  A    between atoms: O_8  and  C_9
REMARK    4  A    between atoms: C_9  and  C_10
REMARK    5  A    between atoms: N_12  and  C_13
REMARK                            x       y       z     vdW  Elec       q    Type
REMARK                         _______ _______ _______ _____ _____    ______ ____
ROOT
ATOM      1  C   UNL     1       7.634   4.652  18.253  0.00  0.00    +0.000 C 
ENDROOT
BRANCH   1   2
ATOM      2  C   UNL     1       6.156   4.776  18.615  0.00  0.00    +0.000 C 
ATOM      3  O   UNL     1       5.680   5.876  18.884  0.00  0.00    +0.000 OA
ATOM      4  N   UNL     1       5.465   3.575  18.637  0.00  0.00    +0.000 N 
ATOM      5  H   UNL     1       6.007   2.709  18.596  0.00  0.00    +0.000 HD
BRANCH   4   6
ATOM      6  C   UNL     1       4.072   3.429  18.838  0.00  0.00    +0.000 A 
ATOM      7  C   UNL     1       3.520   3.076  20.073  0.00  0.00    +0.000 A 
ATOM      8  C   UNL     1       2.140   2.929  20.214  0.00  0.00    +0.000 A 
ATOM      9 CL   UNL     1       1.493   2.478  21.744  0.00  0.00    +0.000 Cl
ATOM     10  C   UNL     1       1.288   3.140  19.134  0.00  0.00    +0.000 A 
ATOM     11  C   UNL     1       1.822   3.513  17.902  0.00  0.00    +0.000 A 
ATOM     12  C   UNL     1       3.205   3.661  17.763  0.00  0.00    +0.000 A 
ATOM     13  F   UNL     1       3.701   4.013  16.566  0.00  0.00    +0.000 F 
ENDBRANCH   4   6
ENDBRANCH   1   2
BRANCH   1  14
ATOM     14  O   UNL     1       7.853   4.311  16.887  0.00  0.00    +0.000 OA
BRANCH  14  15
ATOM     15  C   UNL     1       7.464   5.238  15.998  0.00  0.00    +0.000 C 
ATOM     16  O   UNL     1       7.559   6.449  16.114  0.00  0.00    +0.000 OA
BRANCH  15  21
ATOM     17  O   UNL     1       5.492   2.823  11.430  0.00  0.00    +0.000 OA
ATOM     18  C   UNL     1       6.017   3.351  12.407  0.00  0.00    +0.000 C 
ATOM     19  C   UNL     1       7.230   4.230  12.280  0.00  0.00    +0.000 C 
ATOM     20  C   UNL     1       7.397   5.187  13.437  0.00  0.00    +0.000 C 
ATOM     21  C   UNL     1       6.933   4.588  14.731  0.00  0.00    +0.000 C 
ATOM     22  N   UNL     1       6.061   3.631  14.829  0.00  0.00    +0.000 NA
ATOM     23  N   UNL     1       5.575   3.097  13.678  0.00  0.00    +0.000 N 
ATOM     24  H   UNL     1       4.815   2.428  13.774  0.00  0.00    +0.000 HD
ENDBRANCH  15  21
ENDBRANCH  14  15
ENDBRANCH   1  14
TORSDOF 5
ENDMDL
MODEL 2
REMARK VINA RESULT:      -7.9      1.919      2.176
REMARK  Name = 
REMARK  5 active torsions:
REMARK  status: ('A' for Active; 'I' for Inactive)
REMARK    1  A    between atoms: C_5  and  C_6
REMARK    2  A    between atoms: C_6  and  O_8
REMARK    3  A    between atoms: O_8  and  C_9
REMARK    4  A    between atoms: C_9  and  C_10
REMARK    5  A    between atoms: N_12  and  C_13
REMARK                            x       y       z     vdW  Elec       q    Type
REMARK                         _______ _______ _______ _____ _____    ______ ____
ROOT
ATOM      1  C   UNL     1       7.611   4.582  17.732  0.00  0.00    +0.000 C 
ENDROOT
BRANCH   1   2
ATOM      2  C   UNL     1       6.591   4.652  18.865  0.00  0.00    +0.000 C 
ATOM      3  O   UNL     1       6.841   5.302  19.877  0.00  0.00    +0.000 OA
ATOM      4  N   UNL     1       5.437   3.915  18.648  0.00  0.00    +0.000 N 
ATOM      5  H   UNL     1       5.428   3.255  17.867  0.00  0.00    +0.000 HD
BRANCH   4   6
ATOM      6  C   UNL     1       4.301   3.896  19.491  0.00  0.00    +0.000 A 
ATOM      7  C   UNL     1       3.491   5.017  19.693  0.00  0.00    +0.000 A 
ATOM      8  C   UNL     1       2.391   4.950  20.549  0.00  0.00    +0.000 A 
ATOM      9 CL   UNL     1       1.423   6.353  20.788  0.00  0.00    +0.000 Cl
ATOM     10  C   UNL     1       2.073   3.765  21.207  0.00  0.00    +0.000 A 
ATOM     11  C   UNL     1       2.859   2.634  20.999  0.00  0.00    +0.000 A 
ATOM     12  C   UNL     1       3.959   2.703  20.141  0.00  0.00    +0.000 A 
ATOM     13  F   UNL     1       4.709   1.603  19.960  0.00  0.00    +0.000 F 
ENDBRANCH   4   6
ENDBRANCH   1   2
BRANCH   1  14
ATOM     14  O   UNL     1       7.714   5.795  16.990  0.00  0.00    +0.000 OA
BRANCH  14  15
ATOM     15  C   UNL     1       6.647   6.092  16.231  0.00  0.00    +0.000 C 
ATOM     16  O   UNL     1       5.818   6.963  16.442  0.00  0.00    +0.000 OA
BRANCH  15  21
ATOM     17  O   UNL     1       6.596   3.012  11.637  0.00  0.00    +0.000 OA
ATOM     18  C   UNL     1       6.515   3.713  12.644  0.00  0.00    +0.000 C 
ATOM     19  C   UNL     1       5.276   3.741  13.496  0.00  0.00    +0.000 C 
ATOM     20  C   UNL     1       5.536   4.197  14.912  0.00  0.00    +0.000 C 
ATOM     21  C   UNL     1       6.616   5.235  14.977  0.00  0.00    +0.000 C 
ATOM     22  N   UNL     1       7.552   5.382  14.088  0.00  0.00    +0.000 NA
ATOM     23  N   UNL     1       7.520   4.573  12.995  0.00  0.00    +0.000 N 
ATOM     24  H   UNL     1       8.319   4.627  12.369  0.00  0.00    +0.000 HD
ENDBRANCH  15  21
ENDBRANCH  14  15
ENDBRANCH   1  14
TORSDOF 5
ENDMDL
MODEL 3
REMARK VINA RESULT:      -7.8      3.952      4.473
REMARK  Name = 
REMARK  5 active torsions:
REMARK  status: ('A' for Active; 'I' for Inactive)
REMARK    1  A    between atoms: C_5  and  C_6
REMARK    2  A    between atoms: C_6  and  O_8
REMARK    3  A    between atoms: O_8  and  C_9
REMARK    4  A    between atoms: C_9  and  C_10
REMARK    5  A    between atoms: N_12  and  C_13
REMARK                            x       y       z     vdW  Elec       q    Type
REMARK                         _______ _______ _______ _____ _____    ______ ____
ROOT
ATOM      1  C   UNL     1       3.747   4.138  19.653  0.00  0.00    +0.000 C 
ENDROOT
BRANCH   1   2
ATOM      2  C   UNL     1       2.623   5.158  19.499  0.00  0.00    +0.000 C 
ATOM      3  O   UNL     1       1.525   4.803  19.077  0.00  0.00    +0.000 OA
ATOM      4  N   UNL     1       2.972   6.457  19.836  0.00  0.00    +0.000 N 
ATOM      5  H   UNL     1       3.963   6.666  19.977  0.00  0.00    +0.000 HD
BRANCH   4   6
ATOM      6  C   UNL     1       2.090   7.562  19.880  0.00  0.00    +0.000 A 
ATOM      7  C   UNL     1       1.348   7.892  21.018  0.00  0.00    +0.000 A 
ATOM      8  C   UNL     1       0.479   8.983  21.003  0.00  0.00    +0.000 A 
ATOM      9 CL   UNL     1      -0.433   9.352  22.416  0.00  0.00    +0.000 Cl
ATOM     10  C   UNL     1       0.343   9.769  19.862  0.00  0.00    +0.000 A 
ATOM     11  C   UNL     1       1.092   9.465  18.728  0.00  0.00    +0.000 A 
ATOM     12  C   UNL     1       1.963   8.373  18.745  0.00  0.00    +0.000 A 
ATOM     13  F   UNL     1       2.671   8.092  17.638  0.00  0.00    +0.000 F 
ENDBRANCH   4   6
ENDBRANCH   1   2
BRANCH   1  14
ATOM     14  O   UNL     1       4.477   3.917  18.449  0.00  0.00    +0.000 OA
BRANCH  14  15
ATOM     15  C   UNL     1       5.717   4.432  18.431  0.00  0.00    +0.000 C 
ATOM     16  O   UNL     1       6.426   4.666  19.396  0.00  0.00    +0.000 OA
BRANCH  15  21
ATOM     17  O   UNL     1       7.523   5.228  13.264  0.00  0.00    +0.000 OA
ATOM     18  C   UNL     1       7.034   5.056  14.378  0.00  0.00    +0.000 C 
ATOM     19  C   UNL     1       5.754   4.291  14.575  0.00  0.00    +0.000 C 
ATOM     20  C   UNL     1       5.602   3.730  15.970  0.00  0.00    +0.000 C 
ATOM     21  C   UNL     1       6.201   4.635  17.005  0.00  0.00    +0.000 C 
ATOM     22  N   UNL     1       7.144   5.498  16.774  0.00  0.00    +0.000 NA
ATOM     23  N   UNL     1       7.583   5.628  15.494  0.00  0.00    +0.000 N 
ATOM     24  H   UNL     1       8.394   6.225  15.352  0.00  0.00    +0.000 HD
ENDBRANCH  15  21
ENDBRANCH  14  15
ENDBRANCH   1  14
TORSDOF 5
ENDMDL
MODEL 4
REMARK VINA RESULT:      -7.7      1.755      1.896
REMARK  Name = 
REMARK  5 active torsions:
REMARK  status: ('A' for Active; 'I' for Inactive)
REMARK    1  A    between atoms: C_5  and  C_6
REMARK    2  A    between atoms: C_6  and  O_8
REMARK    3  A    between atoms: O_8  and  C_9
REMARK    4  A    between atoms: C_9  and  C_10
REMARK    5  A    between atoms: N_12  and  C_13
REMARK                            x       y       z     vdW  Elec       q    Type
REMARK                         _______ _______ _______ _____ _____    ______ ____
ROOT
ATOM      1  C   UNL     1       7.410   4.682  17.693  0.00  0.00    +0.000 C 
ENDROOT
BRANCH   1   2
ATOM      2  C   UNL     1       6.363   4.843  18.790  0.00  0.00    +0.000 C 
ATOM      3  O   UNL     1       6.696   5.245  19.902  0.00  0.00    +0.000 OA
ATOM      4  N   UNL     1       5.079   4.474  18.421  0.00  0.00    +0.000 N 
ATOM      5  H   UNL     1       4.960   3.965  17.543  0.00  0.00    +0.000 HD
BRANCH   4   6
ATOM      6  C   UNL     1       3.917   4.625  19.215  0.00  0.00    +0.000 A 
ATOM      7  C   UNL     1       3.393   3.588  19.993  0.00  0.00    +0.000 A 
ATOM      8  C   UNL     1       2.234   3.785  20.745  0.00  0.00    +0.000 A 
ATOM      9 CL   UNL     1       1.606   2.483  21.679  0.00  0.00    +0.000 Cl
ATOM     10  C   UNL     1       1.587   5.017  20.744  0.00  0.00    +0.000 A 
ATOM     11  C   UNL     1       2.110   6.066  19.991  0.00  0.00    +0.000 A 
ATOM     12  C   UNL     1       3.270   5.867  19.239  0.00  0.00    +0.000 A 
ATOM     13  F   UNL     1       3.754   6.888  18.514  0.00  0.00    +0.000 F 
ENDBRANCH   4   6
ENDBRANCH   1   2
BRANCH   1  14
ATOM     14  O   UNL     1       7.533   5.830  16.857  0.00  0.00    +0.000 OA
BRANCH  14  15
ATOM     15  C   UNL     1       6.502   6.042  16.023  0.00  0.00    +0.000 C 
ATOM     16  O   UNL     1       5.583   6.828  16.181  0.00  0.00    +0.000 OA
BRANCH  15  21
ATOM     17  O   UNL     1       7.078   3.061  11.400  0.00  0.00    +0.000 OA
ATOM     18  C   UNL     1       6.858   3.728  12.408  0.00  0.00    +0.000 C 
ATOM     19  C   UNL     1       5.578   3.594  13.187  0.00  0.00    +0.000 C 
ATOM     20  C   UNL     1       5.702   4.052  14.621  0.00  0.00    +0.000 C 
ATOM     21  C   UNL     1       6.645   5.210  14.760  0.00  0.00    +0.000 C 
ATOM     22  N   UNL     1       7.605   5.483  13.928  0.00  0.00    +0.000 NA
ATOM     23  N   UNL     1       7.731   4.696  12.827  0.00  0.00    +0.000 N 
ATOM     24  H   UNL     1       8.551   4.856  12.248  0.00  0.00    +0.000 HD
ENDBRANCH  15  21
ENDBRANCH  14  15
ENDBRANCH   1  14
TORSDOF 5
ENDMDL
MODEL 5
REMARK VINA RESULT:      -7.7      3.737      5.071
REMARK  Name = 
REMARK  5 active torsions:
REMARK  status: ('A' for Active; 'I' for Inactive)
REMARK    1  A    between atoms: C_5  and  C_6
REMARK    2  A    between atoms: C_6  and  O_8
REMARK    3  A    between atoms: O_8  and  C_9
REMARK    4  A    between atoms: C_9  and  C_10
REMARK    5  A    between atoms: N_12  and  C_13
REMARK                            x       y       z     vdW  Elec       q    Type
REMARK                         _______ _______ _______ _____ _____    ______ ____
ROOT
ATOM      1  C   UNL     1       2.855   3.214  20.609  0.00  0.00    +0.000 C 
ENDROOT
BRANCH   1   2
ATOM      2  C   UNL     1       2.126   4.419  20.019  0.00  0.00    +0.000 C 
ATOM      3  O   UNL     1       1.041   4.268  19.462  0.00  0.00    +0.000 OA
ATOM      4  N   UNL     1       2.804   5.621  20.145  0.00  0.00    +0.000 N 
ATOM      5  H   UNL     1       3.782   5.592  20.442  0.00  0.00    +0.000 HD
BRANCH   4   6
ATOM      6  C   UNL     1       2.303   6.892  19.778  0.00  0.00    +0.000 A 
ATOM      7  C   UNL     1       1.590   7.708  20.662  0.00  0.00    +0.000 A 
ATOM      8  C   UNL     1       1.102   8.946  20.243  0.00  0.00    +0.000 A 
ATOM      9 CL   UNL     1       0.214   9.919  21.352  0.00  0.00    +0.000 Cl
ATOM     10  C   UNL     1       1.325   9.397  18.945  0.00  0.00    +0.000 A 
ATOM     11  C   UNL     1       2.052   8.604  18.060  0.00  0.00    +0.000 A 
ATOM     12  C   UNL     1       2.540   7.365  18.481  0.00  0.00    +0.000 A 
ATOM     13  F   UNL     1       3.232   6.612  17.610  0.00  0.00    +0.000 F 
ENDBRANCH   4   6
ENDBRANCH   1   2
BRANCH   1  14
ATOM     14  O   UNL     1       4.144   3.001  20.039  0.00  0.00    +0.000 OA
BRANCH  14  15
ATOM     15  C   UNL     1       4.165   2.890  18.702  0.00  0.00    +0.000 C 
ATOM     16  O   UNL     1       3.502   2.126  18.020  0.00  0.00    +0.000 OA
BRANCH  15  21
ATOM     17  O   UNL     1       7.567   6.671  16.528  0.00  0.00    +0.000 OA
ATOM     18  C   UNL     1       6.746   5.859  16.948  0.00  0.00    +0.000 C 
ATOM     19  C   UNL     1       5.758   5.183  16.038  0.00  0.00    +0.000 C 
ATOM     20  C   UNL     1       5.229   3.881  16.592  0.00  0.00    +0.000 C 
ATOM     21  C   UNL     1       5.096   3.921  18.085  0.00  0.00    +0.000 C 
ATOM     22  N   UNL     1       5.776   4.706  18.865  0.00  0.00    +0.000 NA
ATOM     23  N   UNL     1       6.630   5.591  18.285  0.00  0.00    +0.000 N 
ATOM     24  H   UNL     1       7.232   6.117  18.913  0.00  0.00    +0.000 HD
ENDBRANCH  15  21
ENDBRANCH  14  15
ENDBRANCH   1  14
TORSDOF 5
ENDMDL
MODEL 6
REMARK VINA RESULT:      -7.3      4.049      5.377
REMARK  Name = 
REMARK  5 active torsions:
REMARK  status: ('A' for Active; 'I' for Inactive)
REMARK    1  A    between atoms: C_5  and  C_6
REMARK    2  A    between atoms: C_6  and  O_8
REMARK    3  A    between atoms: O_8  and  C_9
REMARK    4  A    between atoms: C_9  and  C_10
REMARK    5  A    between atoms: N_12  and  C_13
REMARK                            x       y       z     vdW  Elec       q    Type
REMARK                         _______ _______ _______ _____ _____    ______ ____
ROOT
ATOM      1  C   UNL     1       2.639   3.859  20.848  0.00  0.00    +0.000 C 
ENDROOT
BRANCH   1   2
ATOM      2  C   UNL     1       2.019   4.999  20.045  0.00  0.00    +0.000 C 
ATOM      3  O   UNL     1       1.149   4.760  19.211  0.00  0.00    +0.000 OA
ATOM      4  N   UNL     1       2.544   6.252  20.322  0.00  0.00    +0.000 N 
ATOM      5  H   UNL     1       3.398   6.301  20.881  0.00  0.00    +0.000 HD
BRANCH   4   6
ATOM      6  C   UNL     1       2.074   7.477  19.793  0.00  0.00    +0.000 A 
ATOM      7  C   UNL     1       1.297   8.372  20.535  0.00  0.00    +0.000 A 
ATOM      8  C   UNL     1       0.845   9.560  19.960  0.00  0.00    +0.000 A 
ATOM      9 CL   UNL     1      -0.124  10.632  20.896  0.00  0.00    +0.000 Cl
ATOM     10  C   UNL     1       1.166   9.881  18.645  0.00  0.00    +0.000 A 
ATOM     11  C   UNL     1       1.958   9.009  17.900  0.00  0.00    +0.000 A 
ATOM     12  C   UNL     1       2.410   7.820  18.478  0.00  0.00    +0.000 A 
ATOM     13  F   UNL     1       3.165   6.989  17.741  0.00  0.00    +0.000 F 
ENDBRANCH   4   6
ENDBRANCH   1   2
BRANCH   1  14
ATOM     14  O   UNL     1       3.064   2.765  20.040  0.00  0.00    +0.000 OA
BRANCH  14  15
ATOM     15  C   UNL     1       4.387   2.695  19.824  0.00  0.00    +0.000 C 
ATOM     16  O   UNL     1       5.183   1.963  20.389  0.00  0.00    +0.000 OA
BRANCH  15  21
ATOM     17  O   UNL     1       5.862   6.012  15.652  0.00  0.00    +0.000 OA
ATOM     18  C   UNL     1       5.626   5.271  16.603  0.00  0.00    +0.000 C 
ATOM     19  C   UNL     1       6.414   5.343  17.882  0.00  0.00    +0.000 C 
ATOM     20  C   UNL     1       5.672   4.779  19.071  0.00  0.00    +0.000 C 
ATOM     21  C   UNL     1       4.803   3.618  18.691  0.00  0.00    +0.000 C 
ATOM     22  N   UNL     1       4.328   3.412  17.500  0.00  0.00    +0.000 NA
ATOM     23  N   UNL     1       4.687   4.279  16.516  0.00  0.00    +0.000 N 
ATOM     24  H   UNL     1       4.219   4.166  15.621  0.00  0.00    +0.000 HD
ENDBRANCH  15  21
ENDBRANCH  14  15
ENDBRANCH   1  14
TORSDOF 5
ENDMDL
MODEL 7
REMARK VINA RESULT:      -7.3      1.649      1.904
REMARK  Name = 
REMARK  5 active torsions:
REMARK  status: ('A' for Active; 'I' for Inactive)
REMARK    1  A    between atoms: C_5  and  C_6
REMARK    2  A    between atoms: C_6  and  O_8
REMARK    3  A    between atoms: O_8  and  C_9
REMARK    4  A    between atoms: C_9  and  C_10
REMARK    5  A    between atoms: N_12  and  C_13
REMARK                            x       y       z     vdW  Elec       q    Type
REMARK                         _______ _______ _______ _____ _____    ______ ____
ROOT
ATOM      1  C   UNL     1       5.314   7.153  17.525  0.00  0.00    +0.000 C 
ENDROOT
BRANCH   1   2
ATOM      2  C   UNL     1       4.083   6.360  17.955  0.00  0.00    +0.000 C 
ATOM      3  O   UNL     1       2.971   6.880  17.909  0.00  0.00    +0.000 OA
ATOM      4  N   UNL     1       4.352   5.078  18.408  0.00  0.00    +0.000 N 
ATOM      5  H   UNL     1       5.327   4.829  18.592  0.00  0.00    +0.000 HD
BRANCH   4   6
ATOM      6  C   UNL     1       3.384   4.110  18.764  0.00  0.00    +0.000 A 
ATOM      7  C   UNL     1       2.964   3.910  20.082  0.00  0.00    +0.000 A 
ATOM      8  C   UNL     1       2.018   2.929  20.381  0.00  0.00    +0.000 A 
ATOM      9 CL   UNL     1       1.534   2.697  22.017  0.00  0.00    +0.000 Cl
ATOM     10  C   UNL     1       1.468   2.140  19.375  0.00  0.00    +0.000 A 
ATOM     11  C   UNL     1       1.862   2.343  18.054  0.00  0.00    +0.000 A 
ATOM     12  C   UNL     1       2.808   3.326  17.756  0.00  0.00    +0.000 A 
ATOM     13  F   UNL     1       3.180   3.500  16.477  0.00  0.00    +0.000 F 
ENDBRANCH   4   6
ENDBRANCH   1   2
BRANCH   1  14
ATOM     14  O   UNL     1       5.798   6.787  16.235  0.00  0.00    +0.000 OA
BRANCH  14  15
ATOM     15  C   UNL     1       6.782   5.873  16.234  0.00  0.00    +0.000 C 
ATOM     16  O   UNL     1       7.515   5.585  17.166  0.00  0.00    +0.000 OA
BRANCH  15  21
ATOM     17  O   UNL     1       7.060   3.260  11.367  0.00  0.00    +0.000 OA
ATOM     18  C   UNL     1       6.904   3.845  12.436  0.00  0.00    +0.000 C 
ATOM     19  C   UNL     1       5.690   3.624  13.294  0.00  0.00    +0.000 C 
ATOM     20  C   UNL     1       5.913   3.977  14.746  0.00  0.00    +0.000 C 
ATOM     21  C   UNL     1       6.844   5.142  14.903  0.00  0.00    +0.000 C 
ATOM     22  N   UNL     1       7.734   5.497  14.026  0.00  0.00    +0.000 NA
ATOM     23  N   UNL     1       7.790   4.798  12.862  0.00  0.00    +0.000 N 
ATOM     24  H   UNL     1       8.562   5.019  12.238  0.00  0.00    +0.000 HD
ENDBRANCH  15  21
ENDBRANCH  14  15
ENDBRANCH   1  14
TORSDOF 5
ENDMDL
MODEL 8
REMARK VINA RESULT:      -7.3      6.138      8.231
REMARK  Name = 
REMARK  5 active torsions:
REMARK  status: ('A' for Active; 'I' for Inactive)
REMARK    1  A    between atoms: C_5  and  C_6
REMARK    2  A    between atoms: C_6  and  O_8
REMARK    3  A    between atoms: O_8  and  C_9
REMARK    4  A    between atoms: C_9  and  C_10
REMARK    5  A    between atoms: N_12  and  C_13
REMARK                            x       y       z     vdW  Elec       q    Type
REMARK                         _______ _______ _______ _____ _____    ______ ____
ROOT
ATOM      1  C   UNL     1       8.223   7.858  18.156  0.00  0.00    +0.000 C 
ENDROOT
BRANCH   1   2
ATOM      2  C   UNL     1       8.484   9.343  18.389  0.00  0.00    +0.000 C 
ATOM      3  O   UNL     1       7.951  10.181  17.665  0.00  0.00    +0.000 OA
ATOM      4  N   UNL     1       9.365   9.619  19.423  0.00  0.00    +0.000 N 
ATOM      5  H   UNL     1       9.900   8.842  19.817  0.00  0.00    +0.000 HD
BRANCH   4   6
ATOM      6  C   UNL     1       9.691  10.908  19.906  0.00  0.00    +0.000 A 
ATOM      7  C   UNL     1       9.151  11.433  21.083  0.00  0.00    +0.000 A 
ATOM      8  C   UNL     1       9.494  12.718  21.506  0.00  0.00    +0.000 A 
ATOM      9 CL   UNL     1       8.798  13.341  22.953  0.00  0.00    +0.000 Cl
ATOM     10  C   UNL     1      10.385  13.495  20.772  0.00  0.00    +0.000 A 
ATOM     11  C   UNL     1      10.948  12.976  19.608  0.00  0.00    +0.000 A 
ATOM     12  C   UNL     1      10.605  11.690  19.187  0.00  0.00    +0.000 A 
ATOM     13  F   UNL     1      11.152  11.211  18.057  0.00  0.00    +0.000 F 
ENDBRANCH   4   6
ENDBRANCH   1   2
BRANCH   1  14
ATOM     14  O   UNL     1       6.994   7.601  17.481  0.00  0.00    +0.000 OA
BRANCH  14  15
ATOM     15  C   UNL     1       6.910   6.399  16.889  0.00  0.00    +0.000 C 
ATOM     16  O   UNL     1       7.500   6.035  15.884  0.00  0.00    +0.000 OA
BRANCH  15  21
ATOM     17  O   UNL     1       3.711   2.952  19.800  0.00  0.00    +0.000 OA
ATOM     18  C   UNL     1       4.364   3.703  19.080  0.00  0.00    +0.000 C 
ATOM     19  C   UNL     1       3.715   4.559  18.027  0.00  0.00    +0.000 C 
ATOM     20  C   UNL     1       4.545   5.759  17.638  0.00  0.00    +0.000 C 
ATOM     21  C   UNL     1       6.014   5.463  17.683  0.00  0.00    +0.000 C 
ATOM     22  N   UNL     1       6.557   4.533  18.409  0.00  0.00    +0.000 NA
ATOM     23  N   UNL     1       5.731   3.737  19.139  0.00  0.00    +0.000 N 
ATOM     24  H   UNL     1       6.179   3.090  19.783  0.00  0.00    +0.000 HD
ENDBRANCH  15  21
ENDBRANCH  14  15
ENDBRANCH   1  14
TORSDOF 5
ENDMDL
MODEL 9
REMARK VINA RESULT:      -7.2      1.296      1.506
REMARK  Name = 
REMARK  5 active torsions:
REMARK  status: ('A' for Active; 'I' for Inactive)
REMARK    1  A    between atoms: C_5  and  C_6
REMARK    2  A    between atoms: C_6  and  O_8
REMARK    3  A    between atoms: O_8  and  C_9
REMARK    4  A    between atoms: C_9  and  C_10
REMARK    5  A    between atoms: N_12  and  C_13
REMARK                            x       y       z     vdW  Elec       q    Type
REMARK                         _______ _______ _______ _____ _____    ______ ____
ROOT
ATOM      1  C   UNL     1       7.380   5.521  19.286  0.00  0.00    +0.000 C 
ENDROOT
BRANCH   1   2
ATOM      2  C   UNL     1       5.885   5.214  19.291  0.00  0.00    +0.000 C 
ATOM      3  O   UNL     1       5.070   6.130  19.358  0.00  0.00    +0.000 OA
ATOM      4  N   UNL     1       5.574   3.863  19.249  0.00  0.00    +0.000 N 
ATOM      5  H   UNL     1       6.330   3.192  19.401  0.00  0.00    +0.000 HD
BRANCH   4   6
ATOM      6  C   UNL     1       4.272   3.321  19.140  0.00  0.00    +0.000 A 
ATOM      7  C   UNL     1       3.399   3.225  20.227  0.00  0.00    +0.000 A 
ATOM      8  C   UNL     1       2.131   2.666  20.068  0.00  0.00    +0.000 A 
ATOM      9 CL   UNL     1       1.086   2.548  21.432  0.00  0.00    +0.000 Cl
ATOM     10  C   UNL     1       1.707   2.204  18.825  0.00  0.00    +0.000 A 
ATOM     11  C   UNL     1       2.559   2.312  17.728  0.00  0.00    +0.000 A 
ATOM     12  C   UNL     1       3.828   2.874  17.889  0.00  0.00    +0.000 A 
ATOM     13  F   UNL     1       4.636   2.962  16.820  0.00  0.00    +0.000 F 
ENDBRANCH   4   6
ENDBRANCH   1   2
BRANCH   1  14
ATOM     14  O   UNL     1       7.948   5.536  17.979  0.00  0.00    +0.000 OA
BRANCH  14  15
ATOM     15  C   UNL     1       7.330   6.338  17.097  0.00  0.00    +0.000 C 
ATOM     16  O   UNL     1       7.257   7.555  17.140  0.00  0.00    +0.000 OA
BRANCH  15  21
ATOM     17  O   UNL     1       5.331   3.380  12.872  0.00  0.00    +0.000 OA
ATOM     18  C   UNL     1       5.748   4.115  13.764  0.00  0.00    +0.000 C 
ATOM     19  C   UNL     1       5.060   5.405  14.119  0.00  0.00    +0.000 C 
ATOM     20  C   UNL     1       5.363   5.876  15.522  0.00  0.00    +0.000 C 
ATOM     21  C   UNL     1       6.763   5.536  15.938  0.00  0.00    +0.000 C 
ATOM     22  N   UNL     1       7.465   4.565  15.436  0.00  0.00    +0.000 NA
ATOM     23  N   UNL     1       6.914   3.841  14.426  0.00  0.00    +0.000 N 
ATOM     24  H   UNL     1       7.432   3.020  14.123  0.00  0.00    +0.000 HD
ENDBRANCH  15  21
ENDBRANCH  14  15
ENDBRANCH   1  14
TORSDOF 5
ENDMDL
