MODEL 1
REMARK VINA RESULT:      -6.2      0.000      0.000
REMARK  Name = 
REMARK  5 active torsions:
REMARK  status: ('A' for Active; 'I' for Inactive)
REMARK    1  A    between atoms: C_1  and  C_2
REMARK    2  A    between atoms: C_2  and  C_3
REMARK    3  A    between atoms: C_2  and  O_4
REMARK    4  A    between atoms: O_4  and  C_5
REMARK    5  A    between atoms: C_5  and  C_7
REMARK                            x       y       z     vdW  Elec       q    Type
REMARK                         _______ _______ _______ _____ _____    ______ ____
ROOT
ATOM      1  C   UNL     1       4.899   4.043  18.544  0.00  0.00    +0.000 A 
ATOM      2  C   UNL     1       4.197   5.056  18.007  0.00  0.00    +0.000 A 
ATOM      3  C   UNL     1       4.832   5.952  17.067  0.00  0.00    +0.000 A 
ATOM      4  C   UNL     1       6.114   5.779  16.714  0.00  0.00    +0.000 A 
ATOM      5  C   UNL     1       6.888   4.649  17.289  0.00  0.00    +0.000 A 
ATOM      6  O   UNL     1       8.057   4.460  16.980  0.00  0.00    +0.000 OA
ATOM      7  N   UNL     1       6.213   3.851  18.177  0.00  0.00    +0.000 N 
ATOM      8  H   UNL     1       6.725   3.079  18.588  0.00  0.00    +0.000 HD
ENDROOT
BRANCH   1   9
ATOM      9  C   UNL     1       4.257   3.147  19.552  0.00  0.00    +0.000 C 
ATOM     10  O   UNL     1       4.858   2.313  20.214  0.00  0.00    +0.000 OA
BRANCH   9  11
ATOM     11  O   UNL     1       2.914   3.387  19.597  0.00  0.00    +0.000 OA
BRANCH  11  13
ATOM     12  C   UNL     1       1.731   5.180  20.738  0.00  0.00    +0.000 C 
ATOM     13  C   UNL     1       2.409   3.821  20.876  0.00  0.00    +0.000 C 
ATOM     14  C   UNL     1       1.407   2.782  21.366  0.00  0.00    +0.000 C 
ENDBRANCH  11  13
ENDBRANCH   9  11
ENDBRANCH   1   9
TORSDOF 3
ENDMDL
MODEL 2
REMARK VINA RESULT:      -6.1      1.141      1.334
REMARK  Name = 
REMARK  5 active torsions:
REMARK  status: ('A' for Active; 'I' for Inactive)
REMARK    1  A    between atoms: C_1  and  C_2
REMARK    2  A    between atoms: C_2  and  C_3
REMARK    3  A    between atoms: C_2  and  O_4
REMARK    4  A    between atoms: O_4  and  C_5
REMARK    5  A    between atoms: C_5  and  C_7
REMARK                            x       y       z     vdW  Elec       q    Type
REMARK                         _______ _______ _______ _____ _____    ______ ____
ROOT
ATOM      1  C   UNL     1       5.162   4.450  18.616  0.00  0.00    +0.000 A 
ATOM      2  C   UNL     1       4.745   5.684  18.284  0.00  0.00    +0.000 A 
ATOM      3  C   UNL     1       5.564   6.516  17.432  0.00  0.00    +0.000 A 
ATOM      4  C   UNL     1       6.736   6.067  16.958  0.00  0.00    +0.000 A 
ATOM      5  C   UNL     1       7.192   4.696  17.305  0.00  0.00    +0.000 A 
ATOM      6  O   UNL     1       8.251   4.255  16.881  0.00  0.00    +0.000 OA
ATOM      7  N   UNL     1       6.358   3.976  18.122  0.00  0.00    +0.000 N 
ATOM      8  H   UNL     1       6.654   3.042  18.379  0.00  0.00    +0.000 HD
ENDROOT
BRANCH   1   9
ATOM      9  C   UNL     1       4.337   3.610  19.535  0.00  0.00    +0.000 C 
ATOM     10  O   UNL     1       4.709   2.549  20.015  0.00  0.00    +0.000 OA
BRANCH   9  11
ATOM     11  O   UNL     1       3.119   4.193  19.729  0.00  0.00    +0.000 OA
BRANCH  11  13
ATOM     12  C   UNL     1       0.889   3.470  20.373  0.00  0.00    +0.000 C 
ATOM     13  C   UNL     1       1.985   3.404  19.317  0.00  0.00    +0.000 C 
ATOM     14  C   UNL     1       1.474   3.965  17.994  0.00  0.00    +0.000 C 
ENDBRANCH  11  13
ENDBRANCH   9  11
ENDBRANCH   1   9
TORSDOF 3
ENDMDL
MODEL 3
REMARK VINA RESULT:      -6.0      4.120      5.353
REMARK  Name = 
REMARK  5 active torsions:
REMARK  status: ('A' for Active; 'I' for Inactive)
REMARK    1  A    between atoms: C_1  and  C_2
REMARK    2  A    between atoms: C_2  and  C_3
REMARK    3  A    between atoms: C_2  and  O_4
REMARK    4  A    between atoms: O_4  and  C_5
REMARK    5  A    between atoms: C_5  and  C_7
REMARK                            x       y       z     vdW  Elec       q    Type
REMARK                         _______ _______ _______ _____ _____    ______ ____
ROOT
ATOM      1  C   UNL     1       6.819   4.558  14.891  0.00  0.00    +0.000 A 
ATOM      2  C   UNL     1       6.142   3.658  14.156  0.00  0.00    +0.000 A 
ATOM      3  C   UNL     1       6.319   3.621  12.722  0.00  0.00    +0.000 A 
ATOM      4  C   UNL     1       7.160   4.470  12.113  0.00  0.00    +0.000 A 
ATOM      5  C   UNL     1       7.926   5.452  12.923  0.00  0.00    +0.000 A 
ATOM      6  O   UNL     1       8.707   6.233  12.397  0.00  0.00    +0.000 OA
ATOM      7  N   UNL     1       7.696   5.424  14.274  0.00  0.00    +0.000 N 
ATOM      8  H   UNL     1       8.201   6.092  14.845  0.00  0.00    +0.000 HD
ENDROOT
BRANCH   1   9
ATOM      9  C   UNL     1       6.600   4.627  16.366  0.00  0.00    +0.000 C 
ATOM     10  O   UNL     1       5.639   4.139  16.943  0.00  0.00    +0.000 OA
BRANCH   9  11
ATOM     11  O   UNL     1       7.613   5.328  16.953  0.00  0.00    +0.000 OA
BRANCH  11  13
ATOM     12  C   UNL     1       7.778   5.804  19.333  0.00  0.00    +0.000 C 
ATOM     13  C   UNL     1       7.207   6.245  17.990  0.00  0.00    +0.000 C 
ATOM     14  C   UNL     1       7.730   7.631  17.627  0.00  0.00    +0.000 C 
ENDBRANCH  11  13
ENDBRANCH   9  11
ENDBRANCH   1   9
TORSDOF 3
ENDMDL
MODEL 4
REMARK VINA RESULT:      -5.9      1.165      1.848
REMARK  Name = 
REMARK  5 active torsions:
REMARK  status: ('A' for Active; 'I' for Inactive)
REMARK    1  A    between atoms: C_1  and  C_2
REMARK    2  A    between atoms: C_2  and  C_3
REMARK    3  A    between atoms: C_2  and  O_4
REMARK    4  A    between atoms: O_4  and  C_5
REMARK    5  A    between atoms: C_5  and  C_7
REMARK                            x       y       z     vdW  Elec       q    Type
REMARK                         _______ _______ _______ _____ _____    ______ ____
ROOT
ATOM      1  C   UNL     1       5.166   4.185  18.417  0.00  0.00    +0.000 A 
ATOM      2  C   UNL     1       5.611   4.991  19.396  0.00  0.00    +0.000 A 
ATOM      3  C   UNL     1       6.885   5.658  19.256  0.00  0.00    +0.000 A 
ATOM      4  C   UNL     1       7.628   5.490  18.152  0.00  0.00    +0.000 A 
ATOM      5  C   UNL     1       7.132   4.617  17.058  0.00  0.00    +0.000 A 
ATOM      6  O   UNL     1       7.783   4.451  16.035  0.00  0.00    +0.000 OA
ATOM      7  N   UNL     1       5.917   4.018  17.274  0.00  0.00    +0.000 N 
ATOM      8  H   UNL     1       5.564   3.411  16.544  0.00  0.00    +0.000 HD
ENDROOT
BRANCH   1   9
ATOM      9  C   UNL     1       3.871   3.459  18.583  0.00  0.00    +0.000 C 
ATOM     10  O   UNL     1       3.184   3.056  17.655  0.00  0.00    +0.000 OA
BRANCH   9  11
ATOM     11  O   UNL     1       3.573   3.340  19.909  0.00  0.00    +0.000 OA
BRANCH  11  13
ATOM     12  C   UNL     1       1.822   2.768  21.497  0.00  0.00    +0.000 C 
ATOM     13  C   UNL     1       2.191   3.567  20.253  0.00  0.00    +0.000 C 
ATOM     14  C   UNL     1       2.006   5.058  20.512  0.00  0.00    +0.000 C 
ENDBRANCH  11  13
ENDBRANCH   9  11
ENDBRANCH   1   9
TORSDOF 3
ENDMDL
MODEL 5
REMARK VINA RESULT:      -5.9      1.009      1.009
REMARK  Name = 
REMARK  5 active torsions:
REMARK  status: ('A' for Active; 'I' for Inactive)
REMARK    1  A    between atoms: C_1  and  C_2
REMARK    2  A    between atoms: C_2  and  C_3
REMARK    3  A    between atoms: C_2  and  O_4
REMARK    4  A    between atoms: O_4  and  C_5
REMARK    5  A    between atoms: C_5  and  C_7
REMARK                            x       y       z     vdW  Elec       q    Type
REMARK                         _______ _______ _______ _____ _____    ______ ____
ROOT
ATOM      1  C   UNL     1       4.327   3.612  18.153  0.00  0.00    +0.000 A 
ATOM      2  C   UNL     1       3.841   4.515  17.285  0.00  0.00    +0.000 A 
ATOM      3  C   UNL     1       4.698   5.566  16.785  0.00  0.00    +0.000 A 
ATOM      4  C   UNL     1       5.980   5.647  17.171  0.00  0.00    +0.000 A 
ATOM      5  C   UNL     1       6.528   4.639  18.115  0.00  0.00    +0.000 A 
ATOM      6  O   UNL     1       7.695   4.681  18.479  0.00  0.00    +0.000 OA
ATOM      7  N   UNL     1       5.647   3.680  18.545  0.00  0.00    +0.000 N 
ATOM      8  H   UNL     1       5.997   2.988  19.196  0.00  0.00    +0.000 HD
ENDROOT
BRANCH   1   9
ATOM      9  C   UNL     1       3.429   2.555  18.706  0.00  0.00    +0.000 C 
ATOM     10  O   UNL     1       3.659   1.355  18.645  0.00  0.00    +0.000 OA
BRANCH   9  11
ATOM     11  O   UNL     1       2.321   3.129  19.257  0.00  0.00    +0.000 OA
BRANCH  11  13
ATOM     12  C   UNL     1       1.988   5.054  20.706  0.00  0.00    +0.000 C 
ATOM     13  C   UNL     1       2.484   3.616  20.604  0.00  0.00    +0.000 C 
ATOM     14  C   UNL     1       1.679   2.716  21.534  0.00  0.00    +0.000 C 
ENDBRANCH  11  13
ENDBRANCH   9  11
ENDBRANCH   1   9
TORSDOF 3
ENDMDL
MODEL 6
REMARK VINA RESULT:      -5.9      1.578      1.951
REMARK  Name = 
REMARK  5 active torsions:
REMARK  status: ('A' for Active; 'I' for Inactive)
REMARK    1  A    between atoms: C_1  and  C_2
REMARK    2  A    between atoms: C_2  and  C_3
REMARK    3  A    between atoms: C_2  and  O_4
REMARK    4  A    between atoms: O_4  and  C_5
REMARK    5  A    between atoms: C_5  and  C_7
REMARK                            x       y       z     vdW  Elec       q    Type
REMARK                         _______ _______ _______ _____ _____    ______ ____
ROOT
ATOM      1  C   UNL     1       5.217   3.954  18.273  0.00  0.00    +0.000 A 
ATOM      2  C   UNL     1       5.543   4.790  19.274  0.00  0.00    +0.000 A 
ATOM      3  C   UNL     1       6.734   5.602  19.175  0.00  0.00    +0.000 A 
ATOM      4  C   UNL     1       7.519   5.538  18.089  0.00  0.00    +0.000 A 
ATOM      5  C   UNL     1       7.153   4.631  16.971  0.00  0.00    +0.000 A 
ATOM      6  O   UNL     1       7.844   4.557  15.964  0.00  0.00    +0.000 OA
ATOM      7  N   UNL     1       6.011   3.893  17.148  0.00  0.00    +0.000 N 
ATOM      8  H   UNL     1       5.747   3.261  16.401  0.00  0.00    +0.000 HD
ENDROOT
BRANCH   1   9
ATOM      9  C   UNL     1       4.012   3.082  18.396  0.00  0.00    +0.000 C 
ATOM     10  O   UNL     1       3.833   2.060  17.748  0.00  0.00    +0.000 OA
BRANCH   9  11
ATOM     11  O   UNL     1       3.149   3.609  19.312  0.00  0.00    +0.000 OA
BRANCH  11  13
ATOM     12  C   UNL     1       0.886   3.895  20.155  0.00  0.00    +0.000 C 
ATOM     13  C   UNL     1       1.755   3.549  18.951  0.00  0.00    +0.000 C 
ATOM     14  C   UNL     1       1.514   4.550  17.826  0.00  0.00    +0.000 C 
ENDBRANCH  11  13
ENDBRANCH   9  11
ENDBRANCH   1   9
TORSDOF 3
ENDMDL
MODEL 7
REMARK VINA RESULT:      -5.9      0.956      1.487
REMARK  Name = 
REMARK  5 active torsions:
REMARK  status: ('A' for Active; 'I' for Inactive)
REMARK    1  A    between atoms: C_1  and  C_2
REMARK    2  A    between atoms: C_2  and  C_3
REMARK    3  A    between atoms: C_2  and  O_4
REMARK    4  A    between atoms: O_4  and  C_5
REMARK    5  A    between atoms: C_5  and  C_7
REMARK                            x       y       z     vdW  Elec       q    Type
REMARK                         _______ _______ _______ _____ _____    ______ ____
ROOT
ATOM      1  C   UNL     1       4.522   3.875  17.988  0.00  0.00    +0.000 A 
ATOM      2  C   UNL     1       4.173   4.769  17.047  0.00  0.00    +0.000 A 
ATOM      3  C   UNL     1       5.163   5.676  16.513  0.00  0.00    +0.000 A 
ATOM      4  C   UNL     1       6.434   5.631  16.940  0.00  0.00    +0.000 A 
ATOM      5  C   UNL     1       6.830   4.632  17.966  0.00  0.00    +0.000 A 
ATOM      6  O   UNL     1       7.983   4.561  18.368  0.00  0.00    +0.000 OA
ATOM      7  N   UNL     1       5.829   3.814  18.422  0.00  0.00    +0.000 N 
ATOM      8  H   UNL     1       6.074   3.130  19.128  0.00  0.00    +0.000 HD
ENDROOT
BRANCH   1   9
ATOM      9  C   UNL     1       3.488   2.970  18.573  0.00  0.00    +0.000 C 
ATOM     10  O   UNL     1       2.906   2.095  17.947  0.00  0.00    +0.000 OA
BRANCH   9  11
ATOM     11  O   UNL     1       3.284   3.285  19.885  0.00  0.00    +0.000 OA
BRANCH  11  13
ATOM     12  C   UNL     1       1.600   2.685  21.533  0.00  0.00    +0.000 C 
ATOM     13  C   UNL     1       1.907   3.475  20.266  0.00  0.00    +0.000 C 
ATOM     14  C   UNL     1       1.685   4.964  20.509  0.00  0.00    +0.000 C 
ENDBRANCH  11  13
ENDBRANCH   9  11
ENDBRANCH   1   9
TORSDOF 3
ENDMDL
MODEL 8
REMARK VINA RESULT:      -5.9      1.399      1.560
REMARK  Name = 
REMARK  5 active torsions:
REMARK  status: ('A' for Active; 'I' for Inactive)
REMARK    1  A    between atoms: C_1  and  C_2
REMARK    2  A    between atoms: C_2  and  C_3
REMARK    3  A    between atoms: C_2  and  O_4
REMARK    4  A    between atoms: O_4  and  C_5
REMARK    5  A    between atoms: C_5  and  C_7
REMARK                            x       y       z     vdW  Elec       q    Type
REMARK                         _______ _______ _______ _____ _____    ______ ____
ROOT
ATOM      1  C   UNL     1       4.561   4.177  18.098  0.00  0.00    +0.000 A 
ATOM      2  C   UNL     1       4.280   5.489  18.016  0.00  0.00    +0.000 A 
ATOM      3  C   UNL     1       4.678   6.239  16.847  0.00  0.00    +0.000 A 
ATOM      4  C   UNL     1       5.319   5.639  15.834  0.00  0.00    +0.000 A 
ATOM      5  C   UNL     1       5.614   4.185  15.909  0.00  0.00    +0.000 A 
ATOM      6  O   UNL     1       6.190   3.608  14.997  0.00  0.00    +0.000 OA
ATOM      7  N   UNL     1       5.208   3.550  17.055  0.00  0.00    +0.000 N 
ATOM      8  H   UNL     1       5.407   2.560  17.131  0.00  0.00    +0.000 HD
ENDROOT
BRANCH   1   9
ATOM      9  C   UNL     1       4.192   3.414  19.327  0.00  0.00    +0.000 C 
ATOM     10  O   UNL     1       4.926   2.611  19.884  0.00  0.00    +0.000 OA
BRANCH   9  11
ATOM     11  O   UNL     1       2.920   3.731  19.706  0.00  0.00    +0.000 OA
BRANCH  11  13
ATOM     12  C   UNL     1       1.450   2.762  21.383  0.00  0.00    +0.000 C 
ATOM     13  C   UNL     1       2.065   2.608  19.996  0.00  0.00    +0.000 C 
ATOM     14  C   UNL     1       0.968   2.562  18.938  0.00  0.00    +0.000 C 
ENDBRANCH  11  13
ENDBRANCH   9  11
ENDBRANCH   1   9
TORSDOF 3
ENDMDL
MODEL 9
REMARK VINA RESULT:      -5.9      1.192      1.413
REMARK  Name = 
REMARK  5 active torsions:
REMARK  status: ('A' for Active; 'I' for Inactive)
REMARK    1  A    between atoms: C_1  and  C_2
REMARK    2  A    between atoms: C_2  and  C_3
REMARK    3  A    between atoms: C_2  and  O_4
REMARK    4  A    between atoms: O_4  and  C_5
REMARK    5  A    between atoms: C_5  and  C_7
REMARK                            x       y       z     vdW  Elec       q    Type
REMARK                         _______ _______ _______ _____ _____    ______ ____
ROOT
ATOM      1  C   UNL     1       4.465   3.832  17.800  0.00  0.00    +0.000 A 
ATOM      2  C   UNL     1       3.832   4.977  17.492  0.00  0.00    +0.000 A 
ATOM      3  C   UNL     1       4.566   6.066  16.889  0.00  0.00    +0.000 A 
ATOM      4  C   UNL     1       5.875   5.946  16.625  0.00  0.00    +0.000 A 
ATOM      5  C   UNL     1       6.577   4.676  16.945  0.00  0.00    +0.000 A 
ATOM      6  O   UNL     1       7.768   4.533  16.708  0.00  0.00    +0.000 OA
ATOM      7  N   UNL     1       5.808   3.696  17.520  0.00  0.00    +0.000 N 
ATOM      8  H   UNL     1       6.268   2.825  17.755  0.00  0.00    +0.000 HD
ENDROOT
BRANCH   1   9
ATOM      9  C   UNL     1       3.717   2.725  18.466  0.00  0.00    +0.000 C 
ATOM     10  O   UNL     1       3.707   1.567  18.073  0.00  0.00    +0.000 OA
BRANCH   9  11
ATOM     11  O   UNL     1       3.039   3.208  19.548  0.00  0.00    +0.000 OA
BRANCH  11  13
ATOM     12  C   UNL     1       1.570   2.703  21.419  0.00  0.00    +0.000 C 
ATOM     13  C   UNL     1       1.894   2.432  19.955  0.00  0.00    +0.000 C 
ATOM     14  C   UNL     1       0.715   2.830  19.073  0.00  0.00    +0.000 C 
ENDBRANCH  11  13
ENDBRANCH   9  11
ENDBRANCH   1   9
TORSDOF 3
ENDMDL
