MODEL 1
REMARK VINA RESULT:      -6.8      0.000      0.000
REMARK  Name = 
REMARK  3 active torsions:
REMARK  status: ('A' for Active; 'I' for Inactive)
REMARK    1  A    between atoms: C_1  and  C_2
REMARK    2  A    between atoms: C_4  and  C_5
REMARK    3  A    between atoms: C_5  and  N_6
REMARK                            x       y       z     vdW  Elec       q    Type
REMARK                         _______ _______ _______ _____ _____    ______ ____
ROOT
ATOM      1  N   UNL     1       4.843   5.505  17.158  0.00  0.00    +0.000 N 
ATOM      2  C   UNL     1       5.411   6.683  17.738  0.00  0.00    +0.000 C 
ATOM      3  C   UNL     1       6.906   6.542  17.464  0.00  0.00    +0.000 C 
ATOM      4  C   UNL     1       7.662   6.133  18.758  0.00  0.00    +0.000 C 
ATOM      5  C   UNL     1       8.602   7.305  19.063  0.00  0.00    +0.000 C 
ATOM      6  N   UNL     1       7.986   8.392  18.335  0.00  0.00    +0.000 N 
ATOM      7  C   UNL     1       8.519   9.651  18.381  0.00  0.00    +0.000 A 
ATOM      8  N   UNL     1       9.480   9.924  19.281  0.00  0.00    +0.000 NA
ATOM      9  C   UNL     1       9.906  11.202  19.360  0.00  0.00    +0.000 A 
ATOM     10  C   UNL     1       9.402  12.215  18.586  0.00  0.00    +0.000 A 
ATOM     11  F   UNL     1       9.836  13.472  18.697  0.00  0.00    +0.000 F 
ATOM     12  C   UNL     1       8.426  11.852  17.696  0.00  0.00    +0.000 A 
ATOM     13  N   UNL     1       7.984  10.587  17.570  0.00  0.00    +0.000 NA
ATOM     14  C   UNL     1       7.496   7.900  17.067  0.00  0.00    +0.000 C 
ATOM     15  C   UNL     1       7.015   5.505  16.333  0.00  0.00    +0.000 C 
ATOM     16  C   UNL     1       5.616   4.998  16.140  0.00  0.00    +0.000 C 
ATOM     17  O   UNL     1       5.263   4.240  15.253  0.00  0.00    +0.000 OA
ENDROOT
BRANCH   1  18
ATOM     18  C   UNL     1       3.459   5.169  17.368  0.00  0.00    +0.000 C 
BRANCH  18  22
ATOM     19  C   UNL     1       1.245   2.905  21.176  0.00  0.00    +0.000 C 
ATOM     20  C   UNL     1       2.300   3.206  20.170  0.00  0.00    +0.000 A 
ATOM     21  N   UNL     1       2.161   4.067  19.184  0.00  0.00    +0.000 NA
ATOM     22  C   UNL     1       3.355   4.168  18.476  0.00  0.00    +0.000 A 
ATOM     23  C   UNL     1       4.350   3.310  18.908  0.00  0.00    +0.000 A 
ATOM     24  S   UNL     1       3.829   2.436  20.279  0.00  0.00    +0.000 S 
ENDBRANCH  18  22
ENDBRANCH   1  18
TORSDOF 2
ENDMDL
MODEL 2
REMARK VINA RESULT:      -6.5      4.738      6.143
REMARK  Name = 
REMARK  3 active torsions:
REMARK  status: ('A' for Active; 'I' for Inactive)
REMARK    1  A    between atoms: C_1  and  C_2
REMARK    2  A    between atoms: C_4  and  C_5
REMARK    3  A    between atoms: C_5  and  N_6
REMARK                            x       y       z     vdW  Elec       q    Type
REMARK                         _______ _______ _______ _____ _____    ______ ____
ROOT
ATOM      1  N   UNL     1       2.974   4.502  19.417  0.00  0.00    +0.000 N 
ATOM      2  C   UNL     1       3.536   4.852  18.148  0.00  0.00    +0.000 C 
ATOM      3  C   UNL     1       4.976   4.350  18.236  0.00  0.00    +0.000 C 
ATOM      4  C   UNL     1       5.954   5.537  18.447  0.00  0.00    +0.000 C 
ATOM      5  C   UNL     1       6.841   5.557  17.197  0.00  0.00    +0.000 C 
ATOM      6  N   UNL     1       6.038   4.829  16.239  0.00  0.00    +0.000 N 
ATOM      7  C   UNL     1       6.476   4.652  14.954  0.00  0.00    +0.000 A 
ATOM      8  N   UNL     1       7.544   5.347  14.524  0.00  0.00    +0.000 NA
ATOM      9  C   UNL     1       7.880   5.218  13.224  0.00  0.00    +0.000 A 
ATOM     10  C   UNL     1       7.186   4.434  12.338  0.00  0.00    +0.000 A 
ATOM     11  F   UNL     1       7.536   4.337  11.054  0.00  0.00    +0.000 F 
ATOM     12  C   UNL     1       6.111   3.762  12.858  0.00  0.00    +0.000 A 
ATOM     13  N   UNL     1       5.751   3.846  14.152  0.00  0.00    +0.000 NA
ATOM     14  C   UNL     1       5.392   3.719  16.903  0.00  0.00    +0.000 C 
ATOM     15  C   UNL     1       4.982   3.333  19.390  0.00  0.00    +0.000 C 
ATOM     16  C   UNL     1       3.611   3.430  19.995  0.00  0.00    +0.000 C 
ATOM     17  O   UNL     1       3.180   2.699  20.871  0.00  0.00    +0.000 OA
ENDROOT
BRANCH   1  18
ATOM     18  C   UNL     1       1.669   4.972  19.803  0.00  0.00    +0.000 C 
BRANCH  18  22
ATOM     19  C   UNL     1       0.957   9.329  22.046  0.00  0.00    +0.000 C 
ATOM     20  C   UNL     1       1.343   8.375  20.973  0.00  0.00    +0.000 A 
ATOM     21  N   UNL     1       1.358   7.066  21.114  0.00  0.00    +0.000 NA
ATOM     22  C   UNL     1       1.691   6.466  19.903  0.00  0.00    +0.000 A 
ATOM     23  C   UNL     1       1.997   7.355  18.889  0.00  0.00    +0.000 A 
ATOM     24  S   UNL     1       1.771   8.963  19.418  0.00  0.00    +0.000 S 
ENDBRANCH  18  22
ENDBRANCH   1  18
TORSDOF 2
ENDMDL
MODEL 3
REMARK VINA RESULT:      -6.5      8.968     10.619
REMARK  Name = 
REMARK  3 active torsions:
REMARK  status: ('A' for Active; 'I' for Inactive)
REMARK    1  A    between atoms: C_1  and  C_2
REMARK    2  A    between atoms: C_4  and  C_5
REMARK    3  A    between atoms: C_5  and  N_6
REMARK                            x       y       z     vdW  Elec       q    Type
REMARK                         _______ _______ _______ _____ _____    ______ ____
ROOT
ATOM      1  N   UNL     1       0.539  10.678  19.067  0.00  0.00    +0.000 N 
ATOM      2  C   UNL     1      -0.685  10.753  19.804  0.00  0.00    +0.000 C 
ATOM      3  C   UNL     1      -0.332  11.617  21.013  0.00  0.00    +0.000 C 
ATOM      4  C   UNL     1      -0.189  10.740  22.287  0.00  0.00    +0.000 C 
ATOM      5  C   UNL     1      -1.300  11.214  23.230  0.00  0.00    +0.000 C 
ATOM      6  N   UNL     1      -2.225  11.851  22.320  0.00  0.00    +0.000 N 
ATOM      7  C   UNL     1      -3.397  12.389  22.780  0.00  0.00    +0.000 A 
ATOM      8  N   UNL     1      -3.790  12.123  24.038  0.00  0.00    +0.000 NA
ATOM      9  C   UNL     1      -4.998  12.589  24.417  0.00  0.00    +0.000 A 
ATOM     10  C   UNL     1      -5.829  13.297  23.588  0.00  0.00    +0.000 A 
ATOM     11  F   UNL     1      -7.025  13.734  23.990  0.00  0.00    +0.000 F 
ATOM     12  C   UNL     1      -5.353  13.523  22.324  0.00  0.00    +0.000 A 
ATOM     13  N   UNL     1      -4.146  13.094  21.908  0.00  0.00    +0.000 NA
ATOM     14  C   UNL     1      -1.481  12.584  21.319  0.00  0.00    +0.000 C 
ATOM     15  C   UNL     1       0.961  12.353  20.622  0.00  0.00    +0.000 C 
ATOM     16  C   UNL     1       1.359  11.756  19.303  0.00  0.00    +0.000 C 
ATOM     17  O   UNL     1       2.277  12.152  18.605  0.00  0.00    +0.000 OA
ENDROOT
BRANCH   1  18
ATOM     18  C   UNL     1       0.672   9.791  17.941  0.00  0.00    +0.000 C 
BRANCH  18  22
ATOM     19  C   UNL     1       4.480   6.769  16.998  0.00  0.00    +0.000 C 
ATOM     20  C   UNL     1       3.378   7.403  17.769  0.00  0.00    +0.000 A 
ATOM     21  N   UNL     1       2.666   8.425  17.343  0.00  0.00    +0.000 NA
ATOM     22  C   UNL     1       1.669   8.723  18.267  0.00  0.00    +0.000 A 
ATOM     23  C   UNL     1       1.707   7.954  19.417  0.00  0.00    +0.000 A 
ATOM     24  S   UNL     1       2.937   6.776  19.305  0.00  0.00    +0.000 S 
ENDBRANCH  18  22
ENDBRANCH   1  18
TORSDOF 2
ENDMDL
MODEL 4
REMARK VINA RESULT:      -6.4      1.005      1.114
REMARK  Name = 
REMARK  3 active torsions:
REMARK  status: ('A' for Active; 'I' for Inactive)
REMARK    1  A    between atoms: C_1  and  C_2
REMARK    2  A    between atoms: C_4  and  C_5
REMARK    3  A    between atoms: C_5  and  N_6
REMARK                            x       y       z     vdW  Elec       q    Type
REMARK                         _______ _______ _______ _____ _____    ______ ____
ROOT
ATOM      1  N   UNL     1       5.061   4.944  16.943  0.00  0.00    +0.000 N 
ATOM      2  C   UNL     1       5.517   6.173  17.515  0.00  0.00    +0.000 C 
ATOM      3  C   UNL     1       7.039   6.055  17.469  0.00  0.00    +0.000 C 
ATOM      4  C   UNL     1       7.606   5.753  18.882  0.00  0.00    +0.000 C 
ATOM      5  C   UNL     1       8.472   6.967  19.238  0.00  0.00    +0.000 C 
ATOM      6  N   UNL     1       7.948   7.987  18.357  0.00  0.00    +0.000 N 
ATOM      7  C   UNL     1       8.447   9.261  18.391  0.00  0.00    +0.000 A 
ATOM      8  N   UNL     1       9.262   9.618  19.399  0.00  0.00    +0.000 NA
ATOM      9  C   UNL     1       9.649  10.909  19.450  0.00  0.00    +0.000 A 
ATOM     10  C   UNL     1       9.245  11.856  18.544  0.00  0.00    +0.000 A 
ATOM     11  F   UNL     1       9.636  13.129  18.629  0.00  0.00    +0.000 F 
ATOM     12  C   UNL     1       8.415  11.409  17.551  0.00  0.00    +0.000 A 
ATOM     13  N   UNL     1       8.018  10.126  17.450  0.00  0.00    +0.000 NA
ATOM     14  C   UNL     1       7.656   7.400  17.067  0.00  0.00    +0.000 C 
ATOM     15  C   UNL     1       7.329   4.950  16.438  0.00  0.00    +0.000 C 
ATOM     16  C   UNL     1       5.981   4.393  16.082  0.00  0.00    +0.000 C 
ATOM     17  O   UNL     1       5.774   3.569  15.208  0.00  0.00    +0.000 OA
ENDROOT
BRANCH   1  18
ATOM     18  C   UNL     1       3.666   4.585  16.974  0.00  0.00    +0.000 C 
BRANCH  18  22
ATOM     19  C   UNL     1       2.606   2.703  21.430  0.00  0.00    +0.000 C 
ATOM     20  C   UNL     1       2.726   3.723  20.354  0.00  0.00    +0.000 A 
ATOM     21  N   UNL     1       3.299   3.508  19.188  0.00  0.00    +0.000 NA
ATOM     22  C   UNL     1       3.174   4.639  18.387  0.00  0.00    +0.000 A 
ATOM     23  C   UNL     1       2.569   5.716  19.008  0.00  0.00    +0.000 A 
ATOM     24  S   UNL     1       2.056   5.287  20.579  0.00  0.00    +0.000 S 
ENDBRANCH  18  22
ENDBRANCH   1  18
TORSDOF 2
ENDMDL
MODEL 5
REMARK VINA RESULT:      -6.4      1.001      1.138
REMARK  Name = 
REMARK  3 active torsions:
REMARK  status: ('A' for Active; 'I' for Inactive)
REMARK    1  A    between atoms: C_1  and  C_2
REMARK    2  A    between atoms: C_4  and  C_5
REMARK    3  A    between atoms: C_5  and  N_6
REMARK                            x       y       z     vdW  Elec       q    Type
REMARK                         _______ _______ _______ _____ _____    ______ ____
ROOT
ATOM      1  N   UNL     1       4.855   5.697  17.074  0.00  0.00    +0.000 N 
ATOM      2  C   UNL     1       5.444   6.853  17.678  0.00  0.00    +0.000 C 
ATOM      3  C   UNL     1       6.941   6.666  17.441  0.00  0.00    +0.000 C 
ATOM      4  C   UNL     1       7.649   6.223  18.751  0.00  0.00    +0.000 C 
ATOM      5  C   UNL     1       8.618   7.361  19.090  0.00  0.00    +0.000 C 
ATOM      6  N   UNL     1       8.056   8.473  18.356  0.00  0.00    +0.000 N 
ATOM      7  C   UNL     1       8.628   9.715  18.426  0.00  0.00    +0.000 A 
ATOM      8  N   UNL     1       9.573   9.950  19.353  0.00  0.00    +0.000 NA
ATOM      9  C   UNL     1      10.037  11.212  19.453  0.00  0.00    +0.000 A 
ATOM     10  C   UNL     1       9.586  12.247  18.675  0.00  0.00    +0.000 A 
ATOM     11  F   UNL     1      10.056  13.489  18.808  0.00  0.00    +0.000 F 
ATOM     12  C   UNL     1       8.622  11.923  17.757  0.00  0.00    +0.000 A 
ATOM     13  N   UNL     1       8.144  10.673  17.609  0.00  0.00    +0.000 NA
ATOM     14  C   UNL     1       7.584   8.007  17.071  0.00  0.00    +0.000 C 
ATOM     15  C   UNL     1       7.046   5.635  16.304  0.00  0.00    +0.000 C 
ATOM     16  C   UNL     1       5.637   5.174  16.071  0.00  0.00    +0.000 C 
ATOM     17  O   UNL     1       5.283   4.434  15.169  0.00  0.00    +0.000 OA
ENDROOT
BRANCH   1  18
ATOM     18  C   UNL     1       3.455   5.405  17.244  0.00  0.00    +0.000 C 
BRANCH  18  22
ATOM     19  C   UNL     1       4.617   1.916  20.560  0.00  0.00    +0.000 C 
ATOM     20  C   UNL     1       3.887   2.570  19.442  0.00  0.00    +0.000 A 
ATOM     21  N   UNL     1       4.095   3.808  19.043  0.00  0.00    +0.000 NA
ATOM     22  C   UNL     1       3.306   4.083  17.930  0.00  0.00    +0.000 A 
ATOM     23  C   UNL     1       2.457   3.054  17.563  0.00  0.00    +0.000 A 
ATOM     24  S   UNL     1       2.714   1.688  18.554  0.00  0.00    +0.000 S 
ENDBRANCH  18  22
ENDBRANCH   1  18
TORSDOF 2
ENDMDL
MODEL 6
REMARK VINA RESULT:      -6.2      4.737      6.180
REMARK  Name = 
REMARK  3 active torsions:
REMARK  status: ('A' for Active; 'I' for Inactive)
REMARK    1  A    between atoms: C_1  and  C_2
REMARK    2  A    between atoms: C_4  and  C_5
REMARK    3  A    between atoms: C_5  and  N_6
REMARK                            x       y       z     vdW  Elec       q    Type
REMARK                         _______ _______ _______ _____ _____    ______ ____
ROOT
ATOM      1  N   UNL     1       2.902   4.354  19.542  0.00  0.00    +0.000 N 
ATOM      2  C   UNL     1       3.469   4.733  18.283  0.00  0.00    +0.000 C 
ATOM      3  C   UNL     1       4.908   4.229  18.364  0.00  0.00    +0.000 C 
ATOM      4  C   UNL     1       5.886   5.411  18.606  0.00  0.00    +0.000 C 
ATOM      5  C   UNL     1       6.777   5.459  17.360  0.00  0.00    +0.000 C 
ATOM      6  N   UNL     1       5.977   4.755  16.383  0.00  0.00    +0.000 N 
ATOM      7  C   UNL     1       6.420   4.607  15.095  0.00  0.00    +0.000 A 
ATOM      8  N   UNL     1       7.489   5.312  14.685  0.00  0.00    +0.000 NA
ATOM      9  C   UNL     1       7.829   5.213  13.384  0.00  0.00    +0.000 A 
ATOM     10  C   UNL     1       7.138   4.451  12.478  0.00  0.00    +0.000 A 
ATOM     11  F   UNL     1       7.492   4.384  11.193  0.00  0.00    +0.000 F 
ATOM     12  C   UNL     1       6.062   3.766  12.977  0.00  0.00    +0.000 A 
ATOM     13  N   UNL     1       5.697   3.820  14.272  0.00  0.00    +0.000 NA
ATOM     14  C   UNL     1       5.329   3.629  17.018  0.00  0.00    +0.000 C 
ATOM     15  C   UNL     1       4.910   3.185  19.494  0.00  0.00    +0.000 C 
ATOM     16  C   UNL     1       3.537   3.268  20.096  0.00  0.00    +0.000 C 
ATOM     17  O   UNL     1       3.103   2.518  20.953  0.00  0.00    +0.000 OA
ENDROOT
BRANCH   1  18
ATOM     18  C   UNL     1       1.596   4.815  19.934  0.00  0.00    +0.000 C 
BRANCH  18  22
ATOM     19  C   UNL     1       2.237   9.297  17.928  0.00  0.00    +0.000 C 
ATOM     20  C   UNL     1       1.890   8.281  18.958  0.00  0.00    +0.000 A 
ATOM     21  N   UNL     1       1.863   6.983  18.739  0.00  0.00    +0.000 NA
ATOM     22  C   UNL     1       1.577   6.313  19.925  0.00  0.00    +0.000 A 
ATOM     23  C   UNL     1       1.316   7.141  21.002  0.00  0.00    +0.000 A 
ATOM     24  S   UNL     1       1.528   8.776  20.560  0.00  0.00    +0.000 S 
ENDBRANCH  18  22
ENDBRANCH   1  18
TORSDOF 2
ENDMDL
MODEL 7
REMARK VINA RESULT:      -6.2     10.540     11.757
REMARK  Name = 
REMARK  3 active torsions:
REMARK  status: ('A' for Active; 'I' for Inactive)
REMARK    1  A    between atoms: C_1  and  C_2
REMARK    2  A    between atoms: C_4  and  C_5
REMARK    3  A    between atoms: C_5  and  N_6
REMARK                            x       y       z     vdW  Elec       q    Type
REMARK                         _______ _______ _______ _____ _____    ______ ____
ROOT
ATOM      1  N   UNL     1      -4.869  12.982  22.553  0.00  0.00    +0.000 N 
ATOM      2  C   UNL     1      -3.892  12.783  21.527  0.00  0.00    +0.000 C 
ATOM      3  C   UNL     1      -2.565  12.769  22.283  0.00  0.00    +0.000 C 
ATOM      4  C   UNL     1      -1.803  14.105  22.070  0.00  0.00    +0.000 C 
ATOM      5  C   UNL     1      -0.514  13.722  21.334  0.00  0.00    +0.000 C 
ATOM      6  N   UNL     1      -0.859  12.441  20.757  0.00  0.00    +0.000 N 
ATOM      7  C   UNL     1       0.038  11.765  19.975  0.00  0.00    +0.000 A 
ATOM      8  N   UNL     1       1.150  12.396  19.558  0.00  0.00    +0.000 NA
ATOM      9  C   UNL     1       1.955  11.727  18.707  0.00  0.00    +0.000 A 
ATOM     10  C   UNL     1       1.687  10.462  18.250  0.00  0.00    +0.000 A 
ATOM     11  F   UNL     1       2.498   9.832  17.398  0.00  0.00    +0.000 F 
ATOM     12  C   UNL     1       0.535   9.893  18.722  0.00  0.00    +0.000 A 
ATOM     13  N   UNL     1      -0.289  10.515  19.586  0.00  0.00    +0.000 NA
ATOM     14  C   UNL     1      -1.646  11.686  21.707  0.00  0.00    +0.000 C 
ATOM     15  C   UNL     1      -2.937  12.499  23.751  0.00  0.00    +0.000 C 
ATOM     16  C   UNL     1      -4.438  12.537  23.780  0.00  0.00    +0.000 C 
ATOM     17  O   UNL     1      -5.125  12.257  24.747  0.00  0.00    +0.000 OA
ENDROOT
BRANCH   1  18
ATOM     18  C   UNL     1      -6.247  13.238  22.224  0.00  0.00    +0.000 C 
BRANCH  18  22
ATOM     19  C   UNL     1      -7.420   8.959  20.025  0.00  0.00    +0.000 C 
ATOM     20  C   UNL     1      -7.162  10.417  20.160  0.00  0.00    +0.000 A 
ATOM     21  N   UNL     1      -6.923  11.026  21.303  0.00  0.00    +0.000 NA
ATOM     22  C   UNL     1      -6.649  12.371  21.071  0.00  0.00    +0.000 A 
ATOM     23  C   UNL     1      -6.767  12.759  19.749  0.00  0.00    +0.000 A 
ATOM     24  S   UNL     1      -7.125  11.412  18.763  0.00  0.00    +0.000 S 
ENDBRANCH  18  22
ENDBRANCH   1  18
TORSDOF 2
ENDMDL
MODEL 8
REMARK VINA RESULT:      -6.1      4.878      7.033
REMARK  Name = 
REMARK  3 active torsions:
REMARK  status: ('A' for Active; 'I' for Inactive)
REMARK    1  A    between atoms: C_1  and  C_2
REMARK    2  A    between atoms: C_4  and  C_5
REMARK    3  A    between atoms: C_5  and  N_6
REMARK                            x       y       z     vdW  Elec       q    Type
REMARK                         _______ _______ _______ _____ _____    ______ ____
ROOT
ATOM      1  N   UNL     1       3.924   4.690  19.018  0.00  0.00    +0.000 N 
ATOM      2  C   UNL     1       3.547   5.934  19.616  0.00  0.00    +0.000 C 
ATOM      3  C   UNL     1       2.177   6.230  19.010  0.00  0.00    +0.000 C 
ATOM      4  C   UNL     1       2.287   7.342  17.932  0.00  0.00    +0.000 C 
ATOM      5  C   UNL     1       1.456   8.512  18.472  0.00  0.00    +0.000 C 
ATOM      6  N   UNL     1       1.407   8.225  19.889  0.00  0.00    +0.000 N 
ATOM      7  C   UNL     1       0.766   9.076  20.750  0.00  0.00    +0.000 A 
ATOM      8  N   UNL     1       0.383  10.287  20.310  0.00  0.00    +0.000 NA
ATOM      9  C   UNL     1      -0.153  11.130  21.216  0.00  0.00    +0.000 A 
ATOM     10  C   UNL     1      -0.308  10.815  22.542  0.00  0.00    +0.000 A 
ATOM     11  F   UNL     1      -0.830  11.677  23.417  0.00  0.00    +0.000 F 
ATOM     12  C   UNL     1       0.110   9.563  22.907  0.00  0.00    +0.000 A 
ATOM     13  N   UNL     1       0.632   8.682  22.033  0.00  0.00    +0.000 NA
ATOM     14  C   UNL     1       1.243   6.802  20.083  0.00  0.00    +0.000 C 
ATOM     15  C   UNL     1       1.677   4.883  18.459  0.00  0.00    +0.000 C 
ATOM     16  C   UNL     1       2.837   3.945  18.628  0.00  0.00    +0.000 C 
ATOM     17  O   UNL     1       2.803   2.746  18.412  0.00  0.00    +0.000 OA
ENDROOT
BRANCH   1  18
ATOM     18  C   UNL     1       5.250   4.156  19.194  0.00  0.00    +0.000 C 
BRANCH  18  22
ATOM     19  C   UNL     1       8.031   7.929  17.596  0.00  0.00    +0.000 C 
ATOM     20  C   UNL     1       7.409   6.578  17.605  0.00  0.00    +0.000 A 
ATOM     21  N   UNL     1       6.683   6.101  18.595  0.00  0.00    +0.000 NA
ATOM     22  C   UNL     1       6.190   4.846  18.254  0.00  0.00    +0.000 A 
ATOM     23  C   UNL     1       6.628   4.372  17.030  0.00  0.00    +0.000 A 
ATOM     24  S   UNL     1       7.587   5.546  16.245  0.00  0.00    +0.000 S 
ENDBRANCH  18  22
ENDBRANCH   1  18
TORSDOF 2
ENDMDL
MODEL 9
REMARK VINA RESULT:      -6.1      9.916     11.232
REMARK  Name = 
REMARK  3 active torsions:
REMARK  status: ('A' for Active; 'I' for Inactive)
REMARK    1  A    between atoms: C_1  and  C_2
REMARK    2  A    between atoms: C_4  and  C_5
REMARK    3  A    between atoms: C_5  and  N_6
REMARK                            x       y       z     vdW  Elec       q    Type
REMARK                         _______ _______ _______ _____ _____    ______ ____
ROOT
ATOM      1  N   UNL     1      -2.364  12.645  23.056  0.00  0.00    +0.000 N 
ATOM      2  C   UNL     1      -1.907  11.614  22.175  0.00  0.00    +0.000 C 
ATOM      3  C   UNL     1      -0.766  12.273  21.403  0.00  0.00    +0.000 C 
ATOM      4  C   UNL     1      -1.217  12.630  19.961  0.00  0.00    +0.000 C 
ATOM      5  C   UNL     1      -0.335  11.779  19.040  0.00  0.00    +0.000 C 
ATOM      6  N   UNL     1       0.105  10.723  19.924  0.00  0.00    +0.000 N 
ATOM      7  C   UNL     1       0.906   9.715  19.461  0.00  0.00    +0.000 A 
ATOM      8  N   UNL     1       1.094   9.584  18.136  0.00  0.00    +0.000 NA
ATOM      9  C   UNL     1       1.807   8.518  17.717  0.00  0.00    +0.000 A 
ATOM     10  C   UNL     1       2.326   7.575  18.567  0.00  0.00    +0.000 A 
ATOM     11  F   UNL     1       3.017   6.524  18.121  0.00  0.00    +0.000 F 
ATOM     12  C   UNL     1       2.088   7.783  19.900  0.00  0.00    +0.000 A 
ATOM     13  N   UNL     1       1.398   8.842  20.364  0.00  0.00    +0.000 NA
ATOM     14  C   UNL     1       0.389  11.280  21.228  0.00  0.00    +0.000 C 
ATOM     15  C   UNL     1      -0.361  13.496  22.243  0.00  0.00    +0.000 C 
ATOM     16  C   UNL     1      -1.382  13.563  23.342  0.00  0.00    +0.000 C 
ATOM     17  O   UNL     1      -1.344  14.334  24.286  0.00  0.00    +0.000 OA
ENDROOT
BRANCH   1  18
ATOM     18  C   UNL     1      -3.565  12.476  23.833  0.00  0.00    +0.000 C 
BRANCH  18  22
ATOM     19  C   UNL     1      -6.974  12.663  20.246  0.00  0.00    +0.000 C 
ATOM     20  C   UNL     1      -6.216  13.083  21.455  0.00  0.00    +0.000 A 
ATOM     21  N   UNL     1      -5.283  12.357  22.036  0.00  0.00    +0.000 NA
ATOM     22  C   UNL     1      -4.721  13.070  23.090  0.00  0.00    +0.000 A 
ATOM     23  C   UNL     1      -5.308  14.300  23.327  0.00  0.00    +0.000 A 
ATOM     24  S   UNL     1      -6.510  14.621  22.158  0.00  0.00    +0.000 S 
ENDBRANCH  18  22
ENDBRANCH   1  18
TORSDOF 2
ENDMDL
