MODEL 1
REMARK VINA RESULT:      -8.9      0.000      0.000
REMARK  Name = 
REMARK  5 active torsions:
REMARK  status: ('A' for Active; 'I' for Inactive)
REMARK    1  A    between atoms: C_2  and  C_14
REMARK    2  A    between atoms: N_3  and  N_4
REMARK    3  A    between atoms: N_4  and  S_5
REMARK    4  A    between atoms: S_5  and  C_8
REMARK    5  A    between atoms: C_18  and  C_19
REMARK                            x       y       z     vdW  Elec       q    Type
REMARK                         _______ _______ _______ _____ _____    ______ ____
ROOT
ATOM      1  O   UNL     1       4.952   3.219  20.221  0.00  0.00    +0.000 OA
ATOM      2  C   UNL     1       4.790   3.403  19.019  0.00  0.00    +0.000 C 
ATOM      3  N   UNL     1       3.755   2.846  18.294  0.00  0.00    +0.000 N 
ATOM      4  H   UNL     1       3.519   3.147  17.351  0.00  0.00    +0.000 HD
ENDROOT
BRANCH   2   5
ATOM      5  C   UNL     1       5.680   4.308  18.241  0.00  0.00    +0.000 A 
ATOM      6  C   UNL     1       6.289   5.390  18.879  0.00  0.00    +0.000 A 
ATOM      7  C   UNL     1       7.093   6.260  18.145  0.00  0.00    +0.000 A 
ATOM      8  C   UNL     1       7.288   6.050  16.774  0.00  0.00    +0.000 A 
ATOM      9  C   UNL     1       6.698   4.961  16.104  0.00  0.00    +0.000 A 
ATOM     10  C   UNL     1       5.903   4.091  16.873  0.00  0.00    +0.000 A 
BRANCH   9  11
ATOM     11  C   UNL     1       6.880   4.737  14.656  0.00  0.00    +0.000 A 
ATOM     12  N   UNL     1       7.778   5.496  13.999  0.00  0.00    +0.000 NA
ATOM     13  C   UNL     1       7.893   5.276  12.676  0.00  0.00    +0.000 A 
ATOM     14  C   UNL     1       7.157   4.341  11.990  0.00  0.00    +0.000 A 
ATOM     15  C   UNL     1       6.267   3.617  12.747  0.00  0.00    +0.000 A 
ATOM     16  N   UNL     1       6.110   3.795  14.072  0.00  0.00    +0.000 NA
ENDBRANCH   9  11
ENDBRANCH   2   5
BRANCH   3  17
ATOM     17  N   UNL     1       2.798   1.999  18.966  0.00  0.00    +0.000 NA
ATOM     18  H   UNL     1       3.150   1.178  19.468  0.00  0.00    +0.000 HD
BRANCH  17  19
ATOM     19  S   UNL     1       1.343   2.713  19.450  0.00  0.00    +0.000 S 
ATOM     20  O   UNL     1       0.343   2.355  18.467  0.00  0.00    +0.000 OA
ATOM     21  O   UNL     1       1.146   2.411  20.852  0.00  0.00    +0.000 OA
BRANCH  19  22
ATOM     22  C   UNL     1       1.714   4.432  19.279  0.00  0.00    +0.000 A 
ATOM     23  C   UNL     1       1.860   4.984  18.003  0.00  0.00    +0.000 A 
ATOM     24  C   UNL     1       2.186   6.333  17.878  0.00  0.00    +0.000 A 
ATOM     25  C   UNL     1       2.349   7.122  19.019  0.00  0.00    +0.000 A 
ATOM     26  C   UNL     1       2.168   6.571  20.289  0.00  0.00    +0.000 A 
ATOM     27  C   UNL     1       1.843   5.222  20.424  0.00  0.00    +0.000 A 
ENDBRANCH  19  22
ENDBRANCH  17  19
ENDBRANCH   3  17
TORSDOF 5
ENDMDL
MODEL 2
REMARK VINA RESULT:      -8.4      0.407      1.410
REMARK  Name = 
REMARK  5 active torsions:
REMARK  status: ('A' for Active; 'I' for Inactive)
REMARK    1  A    between atoms: C_2  and  C_14
REMARK    2  A    between atoms: N_3  and  N_4
REMARK    3  A    between atoms: N_4  and  S_5
REMARK    4  A    between atoms: S_5  and  C_8
REMARK    5  A    between atoms: C_18  and  C_19
REMARK                            x       y       z     vdW  Elec       q    Type
REMARK                         _______ _______ _______ _____ _____    ______ ____
ROOT
ATOM      1  O   UNL     1       5.336   3.807  20.344  0.00  0.00    +0.000 OA
ATOM      2  C   UNL     1       5.217   3.751  19.124  0.00  0.00    +0.000 C 
ATOM      3  N   UNL     1       4.283   2.960  18.484  0.00  0.00    +0.000 N 
ATOM      4  H   UNL     1       4.066   3.057  17.494  0.00  0.00    +0.000 HD
ENDROOT
BRANCH   2   5
ATOM      5  C   UNL     1       6.047   4.593  18.220  0.00  0.00    +0.000 A 
ATOM      6  C   UNL     1       6.729   5.695  18.738  0.00  0.00    +0.000 A 
ATOM      7  C   UNL     1       7.476   6.507  17.886  0.00  0.00    +0.000 A 
ATOM      8  C   UNL     1       7.541   6.219  16.517  0.00  0.00    +0.000 A 
ATOM      9  C   UNL     1       6.874   5.109  15.966  0.00  0.00    +0.000 A 
ATOM     10  C   UNL     1       6.139   4.298  16.851  0.00  0.00    +0.000 A 
BRANCH   9  11
ATOM     11  C   UNL     1       6.919   4.802  14.522  0.00  0.00    +0.000 A 
ATOM     12  N   UNL     1       6.134   3.812  14.054  0.00  0.00    +0.000 NA
ATOM     13  C   UNL     1       6.226   3.549  12.736  0.00  0.00    +0.000 A 
ATOM     14  C   UNL     1       7.059   4.225  11.878  0.00  0.00    +0.000 A 
ATOM     15  C   UNL     1       7.819   5.216  12.450  0.00  0.00    +0.000 A 
ATOM     16  N   UNL     1       7.769   5.522  13.760  0.00  0.00    +0.000 NA
ENDBRANCH   9  11
ENDBRANCH   2   5
BRANCH   3  17
ATOM     17  N   UNL     1       3.386   2.147  19.271  0.00  0.00    +0.000 NA
ATOM     18  H   UNL     1       3.792   1.542  19.993  0.00  0.00    +0.000 HD
BRANCH  17  19
ATOM     19  S   UNL     1       1.796   2.698  19.442  0.00  0.00    +0.000 S 
ATOM     20  O   UNL     1       1.065   2.260  18.271  0.00  0.00    +0.000 OA
ATOM     21  O   UNL     1       1.345   2.347  20.772  0.00  0.00    +0.000 OA
BRANCH  19  22
ATOM     22  C   UNL     1       2.012   4.449  19.350  0.00  0.00    +0.000 A 
ATOM     23  C   UNL     1       1.996   5.210  20.522  0.00  0.00    +0.000 A 
ATOM     24  C   UNL     1       2.133   6.595  20.437  0.00  0.00    +0.000 A 
ATOM     25  C   UNL     1       2.300   7.206  19.192  0.00  0.00    +0.000 A 
ATOM     26  C   UNL     1       2.349   6.435  18.029  0.00  0.00    +0.000 A 
ATOM     27  C   UNL     1       2.212   5.050  18.104  0.00  0.00    +0.000 A 
ENDBRANCH  19  22
ENDBRANCH  17  19
ENDBRANCH   3  17
TORSDOF 5
ENDMDL
MODEL 3
REMARK VINA RESULT:      -8.3      3.188      7.496
REMARK  Name = 
REMARK  5 active torsions:
REMARK  status: ('A' for Active; 'I' for Inactive)
REMARK    1  A    between atoms: C_2  and  C_14
REMARK    2  A    between atoms: N_3  and  N_4
REMARK    3  A    between atoms: N_4  and  S_5
REMARK    4  A    between atoms: S_5  and  C_8
REMARK    5  A    between atoms: C_18  and  C_19
REMARK                            x       y       z     vdW  Elec       q    Type
REMARK                         _______ _______ _______ _____ _____    ______ ____
ROOT
ATOM      1  O   UNL     1       5.911   4.334  19.191  0.00  0.00    +0.000 OA
ATOM      2  C   UNL     1       4.809   4.485  18.674  0.00  0.00    +0.000 C 
ATOM      3  N   UNL     1       4.543   4.209  17.347  0.00  0.00    +0.000 N 
ATOM      4  H   UNL     1       3.597   4.158  16.975  0.00  0.00    +0.000 HD
ENDROOT
BRANCH   2   5
ATOM      5  C   UNL     1       3.630   4.931  19.467  0.00  0.00    +0.000 A 
ATOM      6  C   UNL     1       2.933   4.005  20.244  0.00  0.00    +0.000 A 
ATOM      7  C   UNL     1       1.807   4.413  20.958  0.00  0.00    +0.000 A 
ATOM      8  C   UNL     1       1.378   5.744  20.894  0.00  0.00    +0.000 A 
ATOM      9  C   UNL     1       2.066   6.705  20.129  0.00  0.00    +0.000 A 
ATOM     10  C   UNL     1       3.208   6.269  19.430  0.00  0.00    +0.000 A 
BRANCH   9  11
ATOM     11  C   UNL     1       1.615   8.108  20.038  0.00  0.00    +0.000 A 
ATOM     12  N   UNL     1       1.628   8.706  18.831  0.00  0.00    +0.000 NA
ATOM     13  C   UNL     1       1.234   9.994  18.798  0.00  0.00    +0.000 A 
ATOM     14  C   UNL     1       0.832  10.698  19.907  0.00  0.00    +0.000 A 
ATOM     15  C   UNL     1       0.854  10.001  21.091  0.00  0.00    +0.000 A 
ATOM     16  N   UNL     1       1.238   8.714  21.183  0.00  0.00    +0.000 NA
ENDBRANCH   9  11
ENDBRANCH   2   5
BRANCH   3  17
ATOM     17  N   UNL     1       5.603   3.712  16.502  0.00  0.00    +0.000 NA
ATOM     18  H   UNL     1       5.423   2.869  15.948  0.00  0.00    +0.000 HD
BRANCH  17  19
ATOM     19  S   UNL     1       6.751   4.833  15.967  0.00  0.00    +0.000 S 
ATOM     20  O   UNL     1       6.195   6.152  16.188  0.00  0.00    +0.000 OA
ATOM     21  O   UNL     1       8.030   4.464  16.537  0.00  0.00    +0.000 OA
BRANCH  19  22
ATOM     22  C   UNL     1       6.780   4.515  14.230  0.00  0.00    +0.000 A 
ATOM     23  C   UNL     1       5.900   3.577  13.684  0.00  0.00    +0.000 A 
ATOM     24  C   UNL     1       5.953   3.308  12.318  0.00  0.00    +0.000 A 
ATOM     25  C   UNL     1       6.868   3.983  11.507  0.00  0.00    +0.000 A 
ATOM     26  C   UNL     1       7.721   4.943  12.055  0.00  0.00    +0.000 A 
ATOM     27  C   UNL     1       7.676   5.219  13.420  0.00  0.00    +0.000 A 
ENDBRANCH  19  22
ENDBRANCH  17  19
ENDBRANCH   3  17
TORSDOF 5
ENDMDL
MODEL 4
REMARK VINA RESULT:      -8.1      3.778      7.653
REMARK  Name = 
REMARK  5 active torsions:
REMARK  status: ('A' for Active; 'I' for Inactive)
REMARK    1  A    between atoms: C_2  and  C_14
REMARK    2  A    between atoms: N_3  and  N_4
REMARK    3  A    between atoms: N_4  and  S_5
REMARK    4  A    between atoms: S_5  and  C_8
REMARK    5  A    between atoms: C_18  and  C_19
REMARK                            x       y       z     vdW  Elec       q    Type
REMARK                         _______ _______ _______ _____ _____    ______ ____
ROOT
ATOM      1  O   UNL     1       2.500   5.174  21.364  0.00  0.00    +0.000 OA
ATOM      2  C   UNL     1       2.286   5.460  20.190  0.00  0.00    +0.000 C 
ATOM      3  N   UNL     1       2.253   4.528  19.171  0.00  0.00    +0.000 N 
ATOM      4  H   UNL     1       1.895   4.741  18.242  0.00  0.00    +0.000 HD
ENDROOT
BRANCH   2   5
ATOM      5  C   UNL     1       1.981   6.855  19.770  0.00  0.00    +0.000 A 
ATOM      6  C   UNL     1       2.415   7.309  18.523  0.00  0.00    +0.000 A 
ATOM      7  C   UNL     1       2.162   8.626  18.143  0.00  0.00    +0.000 A 
ATOM      8  C   UNL     1       1.477   9.489  19.007  0.00  0.00    +0.000 A 
ATOM      9  C   UNL     1       1.016   9.058  20.266  0.00  0.00    +0.000 A 
ATOM     10  C   UNL     1       1.272   7.720  20.618  0.00  0.00    +0.000 A 
BRANCH   9  11
ATOM     11  C   UNL     1       0.308   9.962  21.195  0.00  0.00    +0.000 A 
ATOM     12  N   UNL     1      -0.197   9.442  22.330  0.00  0.00    +0.000 NA
ATOM     13  C   UNL     1      -0.857  10.295  23.136  0.00  0.00    +0.000 A 
ATOM     14  C   UNL     1      -1.032  11.629  22.857  0.00  0.00    +0.000 A 
ATOM     15  C   UNL     1      -0.481  12.064  21.676  0.00  0.00    +0.000 A 
ATOM     16  N   UNL     1       0.189  11.256  20.833  0.00  0.00    +0.000 NA
ENDBRANCH   9  11
ENDBRANCH   2   5
BRANCH   3  17
ATOM     17  N   UNL     1       2.477   3.135  19.480  0.00  0.00    +0.000 NA
ATOM     18  H   UNL     1       1.660   2.521  19.554  0.00  0.00    +0.000 HD
BRANCH  17  19
ATOM     19  S   UNL     1       3.976   2.482  19.048  0.00  0.00    +0.000 S 
ATOM     20  O   UNL     1       4.709   2.248  20.276  0.00  0.00    +0.000 OA
ATOM     21  O   UNL     1       3.738   1.405  18.111  0.00  0.00    +0.000 OA
BRANCH  19  22
ATOM     22  C   UNL     1       4.724   3.835  18.194  0.00  0.00    +0.000 A 
ATOM     23  C   UNL     1       5.611   4.676  18.871  0.00  0.00    +0.000 A 
ATOM     24  C   UNL     1       6.169   5.762  18.199  0.00  0.00    +0.000 A 
ATOM     25  C   UNL     1       5.853   5.991  16.857  0.00  0.00    +0.000 A 
ATOM     26  C   UNL     1       4.992   5.126  16.178  0.00  0.00    +0.000 A 
ATOM     27  C   UNL     1       4.429   4.039  16.843  0.00  0.00    +0.000 A 
ENDBRANCH  19  22
ENDBRANCH  17  19
ENDBRANCH   3  17
TORSDOF 5
ENDMDL
MODEL 5
REMARK VINA RESULT:      -8.1      3.105      7.410
REMARK  Name = 
REMARK  5 active torsions:
REMARK  status: ('A' for Active; 'I' for Inactive)
REMARK    1  A    between atoms: C_2  and  C_14
REMARK    2  A    between atoms: N_3  and  N_4
REMARK    3  A    between atoms: N_4  and  S_5
REMARK    4  A    between atoms: S_5  and  C_8
REMARK    5  A    between atoms: C_18  and  C_19
REMARK                            x       y       z     vdW  Elec       q    Type
REMARK                         _______ _______ _______ _____ _____    ______ ____
ROOT
ATOM      1  O   UNL     1       5.323   3.158  19.253  0.00  0.00    +0.000 OA
ATOM      2  C   UNL     1       4.567   3.997  18.773  0.00  0.00    +0.000 C 
ATOM      3  N   UNL     1       4.634   4.424  17.462  0.00  0.00    +0.000 N 
ATOM      4  H   UNL     1       3.897   4.973  17.023  0.00  0.00    +0.000 HD
ENDROOT
BRANCH   2   5
ATOM      5  C   UNL     1       3.455   4.589  19.566  0.00  0.00    +0.000 A 
ATOM      6  C   UNL     1       2.733   3.784  20.448  0.00  0.00    +0.000 A 
ATOM      7  C   UNL     1       1.667   4.328  21.164  0.00  0.00    +0.000 A 
ATOM      8  C   UNL     1       1.323   5.675  20.998  0.00  0.00    +0.000 A 
ATOM      9  C   UNL     1       2.039   6.516  20.125  0.00  0.00    +0.000 A 
ATOM     10  C   UNL     1       3.119   5.945  19.427  0.00  0.00    +0.000 A 
BRANCH   9  11
ATOM     11  C   UNL     1       1.676   7.934  19.927  0.00  0.00    +0.000 A 
ATOM     12  N   UNL     1       1.843   8.471  18.702  0.00  0.00    +0.000 NA
ATOM     13  C   UNL     1       1.525   9.773  18.572  0.00  0.00    +0.000 A 
ATOM     14  C   UNL     1       1.054  10.551  19.602  0.00  0.00    +0.000 A 
ATOM     15  C   UNL     1       0.919   9.913  20.812  0.00  0.00    +0.000 A 
ATOM     16  N   UNL     1       1.221   8.615  20.999  0.00  0.00    +0.000 NA
ENDBRANCH   9  11
ENDBRANCH   2   5
BRANCH   3  17
ATOM     17  N   UNL     1       5.640   3.868  16.588  0.00  0.00    +0.000 NA
ATOM     18  H   UNL     1       5.375   3.079  15.989  0.00  0.00    +0.000 HD
BRANCH  17  19
ATOM     19  S   UNL     1       6.898   4.893  16.110  0.00  0.00    +0.000 S 
ATOM     20  O   UNL     1       6.455   6.251  16.345  0.00  0.00    +0.000 OA
ATOM     21  O   UNL     1       8.122   4.399  16.704  0.00  0.00    +0.000 OA
BRANCH  19  22
ATOM     22  C   UNL     1       6.948   4.609  14.367  0.00  0.00    +0.000 A 
ATOM     23  C   UNL     1       7.833   5.342  13.572  0.00  0.00    +0.000 A 
ATOM     24  C   UNL     1       7.842   5.136  12.193  0.00  0.00    +0.000 A 
ATOM     25  C   UNL     1       6.983   4.194  11.622  0.00  0.00    +0.000 A 
ATOM     26  C   UNL     1       6.125   3.442  12.427  0.00  0.00    +0.000 A 
ATOM     27  C   UNL     1       6.109   3.642  13.806  0.00  0.00    +0.000 A 
ENDBRANCH  19  22
ENDBRANCH  17  19
ENDBRANCH   3  17
TORSDOF 5
ENDMDL
MODEL 6
REMARK VINA RESULT:      -8.0      4.255      8.168
REMARK  Name = 
REMARK  5 active torsions:
REMARK  status: ('A' for Active; 'I' for Inactive)
REMARK    1  A    between atoms: C_2  and  C_14
REMARK    2  A    between atoms: N_3  and  N_4
REMARK    3  A    between atoms: N_4  and  S_5
REMARK    4  A    between atoms: S_5  and  C_8
REMARK    5  A    between atoms: C_18  and  C_19
REMARK                            x       y       z     vdW  Elec       q    Type
REMARK                         _______ _______ _______ _____ _____    ______ ____
ROOT
ATOM      1  O   UNL     1       1.627   5.809  20.737  0.00  0.00    +0.000 OA
ATOM      2  C   UNL     1       2.289   6.486  19.957  0.00  0.00    +0.000 C 
ATOM      3  N   UNL     1       3.443   6.037  19.345  0.00  0.00    +0.000 N 
ATOM      4  H   UNL     1       3.879   6.526  18.566  0.00  0.00    +0.000 HD
ENDROOT
BRANCH   2   5
ATOM      5  C   UNL     1       1.860   7.853  19.553  0.00  0.00    +0.000 A 
ATOM      6  C   UNL     1       2.162   8.318  18.272  0.00  0.00    +0.000 A 
ATOM      7  C   UNL     1       1.794   9.612  17.904  0.00  0.00    +0.000 A 
ATOM      8  C   UNL     1       1.127  10.440  18.815  0.00  0.00    +0.000 A 
ATOM      9  C   UNL     1       0.799   9.996  20.110  0.00  0.00    +0.000 A 
ATOM     10  C   UNL     1       1.168   8.681  20.450  0.00  0.00    +0.000 A 
BRANCH   9  11
ATOM     11  C   UNL     1       0.111  10.864  21.088  0.00  0.00    +0.000 A 
ATOM     12  N   UNL     1       0.203  12.199  20.932  0.00  0.00    +0.000 NA
ATOM     13  C   UNL     1      -0.417  12.952  21.861  0.00  0.00    +0.000 A 
ATOM     14  C   UNL     1      -1.115  12.434  22.924  0.00  0.00    +0.000 A 
ATOM     15  C   UNL     1      -1.150  11.062  22.997  0.00  0.00    +0.000 A 
ATOM     16  N   UNL     1      -0.549  10.260  22.098  0.00  0.00    +0.000 NA
ENDBRANCH   9  11
ENDBRANCH   2   5
BRANCH   3  17
ATOM     17  N   UNL     1       3.915   4.700  19.621  0.00  0.00    +0.000 NA
ATOM     18  H   UNL     1       3.933   4.388  20.598  0.00  0.00    +0.000 HD
BRANCH  17  19
ATOM     19  S   UNL     1       3.765   3.559  18.382  0.00  0.00    +0.000 S 
ATOM     20  O   UNL     1       4.071   2.264  18.955  0.00  0.00    +0.000 OA
ATOM     21  O   UNL     1       2.502   3.794  17.714  0.00  0.00    +0.000 OA
BRANCH  19  22
ATOM     22  C   UNL     1       5.084   4.026  17.304  0.00  0.00    +0.000 A 
ATOM     23  C   UNL     1       6.326   4.372  17.841  0.00  0.00    +0.000 A 
ATOM     24  C   UNL     1       7.351   4.771  16.985  0.00  0.00    +0.000 A 
ATOM     25  C   UNL     1       7.135   4.808  15.605  0.00  0.00    +0.000 A 
ATOM     26  C   UNL     1       5.900   4.429  15.074  0.00  0.00    +0.000 A 
ATOM     27  C   UNL     1       4.870   4.028  15.922  0.00  0.00    +0.000 A 
ENDBRANCH  19  22
ENDBRANCH  17  19
ENDBRANCH   3  17
TORSDOF 5
ENDMDL
MODEL 7
REMARK VINA RESULT:      -7.9      4.102      7.500
REMARK  Name = 
REMARK  5 active torsions:
REMARK  status: ('A' for Active; 'I' for Inactive)
REMARK    1  A    between atoms: C_2  and  C_14
REMARK    2  A    between atoms: N_3  and  N_4
REMARK    3  A    between atoms: N_4  and  S_5
REMARK    4  A    between atoms: S_5  and  C_8
REMARK    5  A    between atoms: C_18  and  C_19
REMARK                            x       y       z     vdW  Elec       q    Type
REMARK                         _______ _______ _______ _____ _____    ______ ____
ROOT
ATOM      1  O   UNL     1       3.784   5.830  19.962  0.00  0.00    +0.000 OA
ATOM      2  C   UNL     1       3.363   6.255  18.891  0.00  0.00    +0.000 C 
ATOM      3  N   UNL     1       3.515   5.586  17.692  0.00  0.00    +0.000 N 
ATOM      4  H   UNL     1       3.008   5.848  16.848  0.00  0.00    +0.000 HD
ENDROOT
BRANCH   2   5
ATOM      5  C   UNL     1       2.588   7.523  18.804  0.00  0.00    +0.000 A 
ATOM      6  C   UNL     1       2.608   8.263  17.621  0.00  0.00    +0.000 A 
ATOM      7  C   UNL     1       1.913   9.470  17.550  0.00  0.00    +0.000 A 
ATOM      8  C   UNL     1       1.199   9.936  18.660  0.00  0.00    +0.000 A 
ATOM      9  C   UNL     1       1.149   9.208  19.864  0.00  0.00    +0.000 A 
ATOM     10  C   UNL     1       1.848   7.986  19.903  0.00  0.00    +0.000 A 
BRANCH   9  11
ATOM     11  C   UNL     1       0.415   9.696  21.049  0.00  0.00    +0.000 A 
ATOM     12  N   UNL     1       0.127   8.817  22.028  0.00  0.00    +0.000 NA
ATOM     13  C   UNL     1      -0.566   9.299  23.078  0.00  0.00    +0.000 A 
ATOM     14  C   UNL     1      -0.979  10.604  23.187  0.00  0.00    +0.000 A 
ATOM     15  C   UNL     1      -0.638  11.422  22.137  0.00  0.00    +0.000 A 
ATOM     16  N   UNL     1       0.054  10.996  21.063  0.00  0.00    +0.000 NA
ENDBRANCH   9  11
ENDBRANCH   2   5
BRANCH   3  17
ATOM     17  N   UNL     1       4.200   4.316  17.673  0.00  0.00    +0.000 NA
ATOM     18  H   UNL     1       5.132   4.265  18.097  0.00  0.00    +0.000 HD
BRANCH  17  19
ATOM     19  S   UNL     1       3.241   2.924  17.593  0.00  0.00    +0.000 S 
ATOM     20  O   UNL     1       2.187   3.186  16.634  0.00  0.00    +0.000 OA
ATOM     21  O   UNL     1       4.122   1.787  17.433  0.00  0.00    +0.000 OA
BRANCH  19  22
ATOM     22  C   UNL     1       2.535   2.883  19.212  0.00  0.00    +0.000 A 
ATOM     23  C   UNL     1       3.338   2.564  20.309  0.00  0.00    +0.000 A 
ATOM     24  C   UNL     1       2.766   2.500  21.578  0.00  0.00    +0.000 A 
ATOM     25  C   UNL     1       1.405   2.770  21.745  0.00  0.00    +0.000 A 
ATOM     26  C   UNL     1       0.616   3.121  20.648  0.00  0.00    +0.000 A 
ATOM     27  C   UNL     1       1.180   3.186  19.375  0.00  0.00    +0.000 A 
ENDBRANCH  19  22
ENDBRANCH  17  19
ENDBRANCH   3  17
TORSDOF 5
ENDMDL
MODEL 8
REMARK VINA RESULT:      -7.9      3.318      7.528
REMARK  Name = 
REMARK  5 active torsions:
REMARK  status: ('A' for Active; 'I' for Inactive)
REMARK    1  A    between atoms: C_2  and  C_14
REMARK    2  A    between atoms: N_3  and  N_4
REMARK    3  A    between atoms: N_4  and  S_5
REMARK    4  A    between atoms: S_5  and  C_8
REMARK    5  A    between atoms: C_18  and  C_19
REMARK                            x       y       z     vdW  Elec       q    Type
REMARK                         _______ _______ _______ _____ _____    ______ ____
ROOT
ATOM      1  O   UNL     1       6.278   4.396  18.776  0.00  0.00    +0.000 OA
ATOM      2  C   UNL     1       5.142   4.444  18.315  0.00  0.00    +0.000 C 
ATOM      3  N   UNL     1       4.842   4.163  16.996  0.00  0.00    +0.000 N 
ATOM      4  H   UNL     1       3.888   4.023  16.667  0.00  0.00    +0.000 HD
ENDROOT
BRANCH   2   5
ATOM      5  C   UNL     1       3.965   4.757  19.170  0.00  0.00    +0.000 A 
ATOM      6  C   UNL     1       3.364   3.740  19.913  0.00  0.00    +0.000 A 
ATOM      7  C   UNL     1       2.238   4.023  20.686  0.00  0.00    +0.000 A 
ATOM      8  C   UNL     1       1.714   5.321  20.715  0.00  0.00    +0.000 A 
ATOM      9  C   UNL     1       2.303   6.371  19.986  0.00  0.00    +0.000 A 
ATOM     10  C   UNL     1       3.447   6.060  19.226  0.00  0.00    +0.000 A 
BRANCH   9  11
ATOM     11  C   UNL     1       1.751   7.740  19.993  0.00  0.00    +0.000 A 
ATOM     12  N   UNL     1       1.181   8.193  21.126  0.00  0.00    +0.000 NA
ATOM     13  C   UNL     1       0.666   9.437  21.080  0.00  0.00    +0.000 A 
ATOM     14  C   UNL     1       0.697  10.236  19.963  0.00  0.00    +0.000 A 
ATOM     15  C   UNL     1       1.299   9.684  18.857  0.00  0.00    +0.000 A 
ATOM     16  N   UNL     1       1.829   8.447  18.846  0.00  0.00    +0.000 NA
ENDBRANCH   9  11
ENDBRANCH   2   5
BRANCH   3  17
ATOM     17  N   UNL     1       5.904   3.788  16.093  0.00  0.00    +0.000 NA
ATOM     18  H   UNL     1       6.057   2.790  15.916  0.00  0.00    +0.000 HD
BRANCH  17  19
ATOM     19  S   UNL     1       6.356   4.923  14.922  0.00  0.00    +0.000 S 
ATOM     20  O   UNL     1       5.405   6.012  14.994  0.00  0.00    +0.000 OA
ATOM     21  O   UNL     1       7.775   5.168  15.067  0.00  0.00    +0.000 OA
BRANCH  19  22
ATOM     22  C   UNL     1       6.075   4.025  13.427  0.00  0.00    +0.000 A 
ATOM     23  C   UNL     1       4.767   3.799  12.991  0.00  0.00    +0.000 A 
ATOM     24  C   UNL     1       4.554   3.060  11.828  0.00  0.00    +0.000 A 
ATOM     25  C   UNL     1       5.642   2.568  11.104  0.00  0.00    +0.000 A 
ATOM     26  C   UNL     1       6.947   2.827  11.528  0.00  0.00    +0.000 A 
ATOM     27  C   UNL     1       7.170   3.564  12.690  0.00  0.00    +0.000 A 
ENDBRANCH  19  22
ENDBRANCH  17  19
ENDBRANCH   3  17
TORSDOF 5
ENDMDL
MODEL 9
REMARK VINA RESULT:      -7.8      4.211      8.030
REMARK  Name = 
REMARK  5 active torsions:
REMARK  status: ('A' for Active; 'I' for Inactive)
REMARK    1  A    between atoms: C_2  and  C_14
REMARK    2  A    between atoms: N_3  and  N_4
REMARK    3  A    between atoms: N_4  and  S_5
REMARK    4  A    between atoms: S_5  and  C_8
REMARK    5  A    between atoms: C_18  and  C_19
REMARK                            x       y       z     vdW  Elec       q    Type
REMARK                         _______ _______ _______ _____ _____    ______ ____
ROOT
ATOM      1  O   UNL     1       1.602   5.675  20.876  0.00  0.00    +0.000 OA
ATOM      2  C   UNL     1       2.341   6.389  20.206  0.00  0.00    +0.000 C 
ATOM      3  N   UNL     1       3.618   6.024  19.829  0.00  0.00    +0.000 N 
ATOM      4  H   UNL     1       4.151   6.532  19.125  0.00  0.00    +0.000 HD
ENDROOT
BRANCH   2   5
ATOM      5  C   UNL     1       1.889   7.708  19.683  0.00  0.00    +0.000 A 
ATOM      6  C   UNL     1       2.226   8.084  18.382  0.00  0.00    +0.000 A 
ATOM      7  C   UNL     1       1.836   9.334  17.903  0.00  0.00    +0.000 A 
ATOM      8  C   UNL     1       1.109  10.206  18.723  0.00  0.00    +0.000 A 
ATOM      9  C   UNL     1       0.743   9.851  20.035  0.00  0.00    +0.000 A 
ATOM     10  C   UNL     1       1.138   8.578  20.488  0.00  0.00    +0.000 A 
BRANCH   9  11
ATOM     11  C   UNL     1      -0.007  10.767  20.918  0.00  0.00    +0.000 A 
ATOM     12  N   UNL     1      -0.229  12.025  20.492  0.00  0.00    +0.000 NA
ATOM     13  C   UNL     1      -0.894  12.834  21.339  0.00  0.00    +0.000 A 
ATOM     14  C   UNL     1      -1.340  12.443  22.577  0.00  0.00    +0.000 A 
ATOM     15  C   UNL     1      -1.064  11.141  22.922  0.00  0.00    +0.000 A 
ATOM     16  N   UNL     1      -0.404  10.289  22.116  0.00  0.00    +0.000 NA
ENDBRANCH   9  11
ENDBRANCH   2   5
BRANCH   3  17
ATOM     17  N   UNL     1       4.134   4.737  20.232  0.00  0.00    +0.000 NA
ATOM     18  H   UNL     1       4.091   4.492  21.227  0.00  0.00    +0.000 HD
BRANCH  17  19
ATOM     19  S   UNL     1       4.141   3.510  19.068  0.00  0.00    +0.000 S 
ATOM     20  O   UNL     1       4.829   2.375  19.648  0.00  0.00    +0.000 OA
ATOM     21  O   UNL     1       2.794   3.378  18.556  0.00  0.00    +0.000 OA
BRANCH  19  22
ATOM     22  C   UNL     1       5.168   4.213  17.814  0.00  0.00    +0.000 A 
ATOM     23  C   UNL     1       4.643   4.446  16.541  0.00  0.00    +0.000 A 
ATOM     24  C   UNL     1       5.470   4.969  15.548  0.00  0.00    +0.000 A 
ATOM     25  C   UNL     1       6.804   5.268  15.835  0.00  0.00    +0.000 A 
ATOM     26  C   UNL     1       7.312   5.062  17.119  0.00  0.00    +0.000 A 
ATOM     27  C   UNL     1       6.493   4.539  18.118  0.00  0.00    +0.000 A 
ENDBRANCH  19  22
ENDBRANCH  17  19
ENDBRANCH   3  17
TORSDOF 5
ENDMDL
