MODEL 1
REMARK VINA RESULT:      -6.4      0.000      0.000
REMARK  Name = 
REMARK  6 active torsions:
REMARK  status: ('A' for Active; 'I' for Inactive)
REMARK    1  A    between atoms: C_2  and  C_3
REMARK    2  A    between atoms: C_6  and  C_7
REMARK    3  A    between atoms: N_17  and  C_18
REMARK    4  A    between atoms: C_18  and  C_19
REMARK    5  A    between atoms: C_19  and  O_20
REMARK    6  A    between atoms: C_22  and  O_23
REMARK                            x       y       z     vdW  Elec       q    Type
REMARK                         _______ _______ _______ _____ _____    ______ ____
ROOT
ATOM      1  O   UNL     1       7.479   4.591  16.647  0.00  0.00    +0.000 OA
ATOM      2  C   UNL     1       6.848   5.261  17.460  0.00  0.00    +0.000 C 
ATOM      3  N   UNL     1       5.666   4.804  18.064  0.00  0.00    +0.000 N 
ATOM      4  C   UNL     1       5.164   3.468  17.711  0.00  0.00    +0.000 C 
ATOM      5  C   UNL     1       3.653   3.395  17.372  0.00  0.00    +0.000 C 
ATOM      6  N   UNL     1       2.778   3.597  18.545  0.00  0.00    +0.000 NA
ATOM      7  C   UNL     1       2.494   5.026  18.839  0.00  0.00    +0.000 C 
ATOM      8  C   UNL     1       3.647   6.038  18.765  0.00  0.00    +0.000 C 
ATOM      9  C   UNL     1       4.991   5.445  19.202  0.00  0.00    +0.000 C 
ENDROOT
BRANCH   2  10
ATOM     10  C   UNL     1       7.399   6.595  17.787  0.00  0.00    +0.000 A 
ATOM     11  C   UNL     1       8.258   6.860  18.830  0.00  0.00    +0.000 A 
ATOM     12  N   UNL     1       8.788   8.071  19.094  0.00  0.00    +0.000 NA
ATOM     13  C   UNL     1       8.378   9.077  18.305  0.00  0.00    +0.000 A 
ATOM     14  N   UNL     1       7.494   8.954  17.297  0.00  0.00    +0.000 NA
ATOM     15  C   UNL     1       7.015   7.707  17.068  0.00  0.00    +0.000 A 
BRANCH  13  16
ATOM     16  C   UNL     1       8.927  10.392  18.635  0.00  0.00    +0.000 A 
ATOM     17  C   UNL     1       9.012  11.512  17.819  0.00  0.00    +0.000 A 
ATOM     18  C   UNL     1       9.668  12.609  18.447  0.00  0.00    +0.000 A 
ATOM     19  C   UNL     1      10.055  12.302  19.730  0.00  0.00    +0.000 A 
ATOM     20  S   UNL     1       9.609  10.714  20.177  0.00  0.00    +0.000 S 
ENDBRANCH  13  16
ENDBRANCH   2  10
BRANCH   8  21
ATOM     21  O   UNL     1       3.717   6.580  17.437  0.00  0.00    +0.000 OA
ATOM     22  H   UNL     1       3.464   5.860  16.829  0.00  0.00    +0.000 HD
ENDBRANCH   8  21
BRANCH   6  23
ATOM     23  C   UNL     1       1.467   2.910  18.400  0.00  0.00    +0.000 C 
BRANCH  23  24
ATOM     24  C   UNL     1       0.637   2.856  19.691  0.00  0.00    +0.000 C 
BRANCH  24  25
ATOM     25  O   UNL     1       1.433   2.395  20.778  0.00  0.00    +0.000 OA
ATOM     26  H   UNL     1       2.056   1.750  20.392  0.00  0.00    +0.000 HD
ENDBRANCH  24  25
ENDBRANCH  23  24
ENDBRANCH   6  23
TORSDOF 6
ENDMDL
MODEL 2
REMARK VINA RESULT:      -6.3      0.765      1.337
REMARK  Name = 
REMARK  6 active torsions:
REMARK  status: ('A' for Active; 'I' for Inactive)
REMARK    1  A    between atoms: C_2  and  C_3
REMARK    2  A    between atoms: C_6  and  C_7
REMARK    3  A    between atoms: N_17  and  C_18
REMARK    4  A    between atoms: C_18  and  C_19
REMARK    5  A    between atoms: C_19  and  O_20
REMARK    6  A    between atoms: C_22  and  O_23
REMARK                            x       y       z     vdW  Elec       q    Type
REMARK                         _______ _______ _______ _____ _____    ______ ____
ROOT
ATOM      1  O   UNL     1       7.381   4.699  16.573  0.00  0.00    +0.000 OA
ATOM      2  C   UNL     1       6.757   5.394  17.371  0.00  0.00    +0.000 C 
ATOM      3  N   UNL     1       5.530   4.995  17.924  0.00  0.00    +0.000 N 
ATOM      4  C   UNL     1       4.969   3.693  17.533  0.00  0.00    +0.000 C 
ATOM      5  C   UNL     1       3.471   3.709  17.137  0.00  0.00    +0.000 C 
ATOM      6  N   UNL     1       2.563   3.945  18.280  0.00  0.00    +0.000 NA
ATOM      7  C   UNL     1       2.347   5.384  18.583  0.00  0.00    +0.000 C 
ATOM      8  C   UNL     1       3.557   6.331  18.566  0.00  0.00    +0.000 C 
ATOM      9  C   UNL     1       4.848   5.659  19.045  0.00  0.00    +0.000 C 
ENDROOT
BRANCH   2  10
ATOM     10  C   UNL     1       7.369   6.690  17.737  0.00  0.00    +0.000 A 
ATOM     11  C   UNL     1       7.202   7.867  17.042  0.00  0.00    +0.000 A 
ATOM     12  N   UNL     1       7.729   9.052  17.408  0.00  0.00    +0.000 NA
ATOM     13  C   UNL     1       8.519   9.034  18.494  0.00  0.00    +0.000 A 
ATOM     14  N   UNL     1       8.809   7.936  19.217  0.00  0.00    +0.000 NA
ATOM     15  C   UNL     1       8.230   6.780  18.811  0.00  0.00    +0.000 A 
BRANCH  13  16
ATOM     16  C   UNL     1       9.120  10.320  18.850  0.00  0.00    +0.000 A 
ATOM     17  C   UNL     1       9.896  10.622  19.959  0.00  0.00    +0.000 A 
ATOM     18  C   UNL     1      10.261  11.996  20.024  0.00  0.00    +0.000 A 
ATOM     19  C   UNL     1       9.766  12.705  18.955  0.00  0.00    +0.000 A 
ATOM     20  S   UNL     1       8.889  11.713  17.874  0.00  0.00    +0.000 S 
ENDBRANCH  13  16
ENDBRANCH   2  10
BRANCH   8  21
ATOM     21  O   UNL     1       3.707   6.884  17.249  0.00  0.00    +0.000 OA
ATOM     22  H   UNL     1       3.444   6.185  16.623  0.00  0.00    +0.000 HD
ENDBRANCH   8  21
BRANCH   6  23
ATOM     23  C   UNL     1       1.223   3.334  18.076  0.00  0.00    +0.000 C 
BRANCH  23  24
ATOM     24  C   UNL     1       0.807   2.344  19.173  0.00  0.00    +0.000 C 
BRANCH  24  25
ATOM     25  O   UNL     1       0.469   3.038  20.371  0.00  0.00    +0.000 OA
ATOM     26  H   UNL     1       0.397   3.978  20.117  0.00  0.00    +0.000 HD
ENDBRANCH  24  25
ENDBRANCH  23  24
ENDBRANCH   6  23
TORSDOF 6
ENDMDL
MODEL 3
REMARK VINA RESULT:      -6.3      6.671      9.651
REMARK  Name = 
REMARK  6 active torsions:
REMARK  status: ('A' for Active; 'I' for Inactive)
REMARK    1  A    between atoms: C_2  and  C_3
REMARK    2  A    between atoms: C_6  and  C_7
REMARK    3  A    between atoms: N_17  and  C_18
REMARK    4  A    between atoms: C_18  and  C_19
REMARK    5  A    between atoms: C_19  and  O_20
REMARK    6  A    between atoms: C_22  and  O_23
REMARK                            x       y       z     vdW  Elec       q    Type
REMARK                         _______ _______ _______ _____ _____    ______ ____
ROOT
ATOM      1  O   UNL     1      -1.261  10.779  19.057  0.00  0.00    +0.000 OA
ATOM      2  C   UNL     1      -0.054  10.974  19.170  0.00  0.00    +0.000 C 
ATOM      3  N   UNL     1       0.489  12.246  19.416  0.00  0.00    +0.000 N 
ATOM      4  C   UNL     1      -0.426  13.390  19.544  0.00  0.00    +0.000 C 
ATOM      5  C   UNL     1      -0.031  14.648  18.729  0.00  0.00    +0.000 C 
ATOM      6  N   UNL     1       1.169  15.334  19.252  0.00  0.00    +0.000 NA
ATOM      7  C   UNL     1       2.447  14.779  18.735  0.00  0.00    +0.000 C 
ATOM      8  C   UNL     1       2.609  13.253  18.656  0.00  0.00    +0.000 C 
ATOM      9  C   UNL     1       1.885  12.516  19.788  0.00  0.00    +0.000 C 
ENDROOT
BRANCH   2  10
ATOM     10  C   UNL     1       0.822   9.788  19.041  0.00  0.00    +0.000 A 
ATOM     11  C   UNL     1       1.166   8.944  20.073  0.00  0.00    +0.000 A 
ATOM     12  N   UNL     1       1.930   7.843  19.936  0.00  0.00    +0.000 NA
ATOM     13  C   UNL     1       2.427   7.620  18.708  0.00  0.00    +0.000 A 
ATOM     14  N   UNL     1       2.215   8.408  17.638  0.00  0.00    +0.000 NA
ATOM     15  C   UNL     1       1.420   9.488  17.835  0.00  0.00    +0.000 A 
BRANCH  13  16
ATOM     16  C   UNL     1       3.292   6.446  18.588  0.00  0.00    +0.000 A 
ATOM     17  C   UNL     1       4.189   6.146  17.572  0.00  0.00    +0.000 A 
ATOM     18  C   UNL     1       4.820   4.882  17.745  0.00  0.00    +0.000 A 
ATOM     19  C   UNL     1       4.400   4.256  18.895  0.00  0.00    +0.000 A 
ATOM     20  S   UNL     1       3.273   5.199  19.767  0.00  0.00    +0.000 S 
ENDBRANCH  13  16
ENDBRANCH   2  10
BRANCH   8  21
ATOM     21  O   UNL     1       2.174  12.797  17.365  0.00  0.00    +0.000 OA
ATOM     22  H   UNL     1       2.084  13.590  16.806  0.00  0.00    +0.000 HD
ENDBRANCH   8  21
BRANCH   6  23
ATOM     23  C   UNL     1       1.169  16.789  18.947  0.00  0.00    +0.000 C 
BRANCH  23  24
ATOM     24  C   UNL     1       2.197  17.212  17.888  0.00  0.00    +0.000 C 
BRANCH  24  25
ATOM     25  O   UNL     1       1.691  18.288  17.102  0.00  0.00    +0.000 OA
ATOM     26  H   UNL     1       2.089  19.096  17.478  0.00  0.00    +0.000 HD
ENDBRANCH  24  25
ENDBRANCH  23  24
ENDBRANCH   6  23
TORSDOF 6
ENDMDL
MODEL 4
REMARK VINA RESULT:      -6.3      6.569      9.634
REMARK  Name = 
REMARK  6 active torsions:
REMARK  status: ('A' for Active; 'I' for Inactive)
REMARK    1  A    between atoms: C_2  and  C_3
REMARK    2  A    between atoms: C_6  and  C_7
REMARK    3  A    between atoms: N_17  and  C_18
REMARK    4  A    between atoms: C_18  and  C_19
REMARK    5  A    between atoms: C_19  and  O_20
REMARK    6  A    between atoms: C_22  and  O_23
REMARK                            x       y       z     vdW  Elec       q    Type
REMARK                         _______ _______ _______ _____ _____    ______ ____
ROOT
ATOM      1  O   UNL     1      -1.258  10.657  18.897  0.00  0.00    +0.000 OA
ATOM      2  C   UNL     1      -0.059  10.872  19.055  0.00  0.00    +0.000 C 
ATOM      3  N   UNL     1       0.453  12.152  19.321  0.00  0.00    +0.000 N 
ATOM      4  C   UNL     1      -0.484  13.281  19.416  0.00  0.00    +0.000 C 
ATOM      5  C   UNL     1      -0.081  14.547  18.617  0.00  0.00    +0.000 C 
ATOM      6  N   UNL     1       1.087  15.252  19.184  0.00  0.00    +0.000 NA
ATOM      7  C   UNL     1       2.392  14.718  18.714  0.00  0.00    +0.000 C 
ATOM      8  C   UNL     1       2.583  13.195  18.640  0.00  0.00    +0.000 C 
ATOM      9  C   UNL     1       1.830  12.445  19.744  0.00  0.00    +0.000 C 
ENDROOT
BRANCH   2  10
ATOM     10  C   UNL     1       0.840   9.701  18.957  0.00  0.00    +0.000 A 
ATOM     11  C   UNL     1       1.461   9.276  17.803  0.00  0.00    +0.000 A 
ATOM     12  N   UNL     1       2.312   8.233  17.734  0.00  0.00    +0.000 NA
ATOM     13  C   UNL     1       2.493   7.545  18.872  0.00  0.00    +0.000 A 
ATOM     14  N   UNL     1       1.892   7.824  20.044  0.00  0.00    +0.000 NA
ATOM     15  C   UNL     1       1.066   8.898  20.055  0.00  0.00    +0.000 A 
BRANCH  13  16
ATOM     16  C   UNL     1       3.383   6.389  18.768  0.00  0.00    +0.000 A 
ATOM     17  C   UNL     1       3.503   5.320  19.645  0.00  0.00    +0.000 A 
ATOM     18  C   UNL     1       4.521   4.401  19.265  0.00  0.00    +0.000 A 
ATOM     19  C   UNL     1       5.143   4.784  18.099  0.00  0.00    +0.000 A 
ATOM     20  S   UNL     1       4.486   6.227  17.462  0.00  0.00    +0.000 S 
ENDBRANCH  13  16
ENDBRANCH   2  10
BRANCH   8  21
ATOM     21  O   UNL     1       2.203  12.734  17.334  0.00  0.00    +0.000 OA
ATOM     22  H   UNL     1       1.431  13.265  17.065  0.00  0.00    +0.000 HD
ENDBRANCH   8  21
BRANCH   6  23
ATOM     23  C   UNL     1       1.074  16.707  18.881  0.00  0.00    +0.000 C 
BRANCH  23  24
ATOM     24  C   UNL     1       2.207  17.168  17.952  0.00  0.00    +0.000 C 
BRANCH  24  25
ATOM     25  O   UNL     1       1.746  18.184  17.066  0.00  0.00    +0.000 OA
ATOM     26  H   UNL     1       2.545  18.535  16.631  0.00  0.00    +0.000 HD
ENDBRANCH  24  25
ENDBRANCH  23  24
ENDBRANCH   6  23
TORSDOF 6
ENDMDL
MODEL 5
REMARK VINA RESULT:      -6.2      1.020      1.193
REMARK  Name = 
REMARK  6 active torsions:
REMARK  status: ('A' for Active; 'I' for Inactive)
REMARK    1  A    between atoms: C_2  and  C_3
REMARK    2  A    between atoms: C_6  and  C_7
REMARK    3  A    between atoms: N_17  and  C_18
REMARK    4  A    between atoms: C_18  and  C_19
REMARK    5  A    between atoms: C_19  and  O_20
REMARK    6  A    between atoms: C_22  and  O_23
REMARK                            x       y       z     vdW  Elec       q    Type
REMARK                         _______ _______ _______ _____ _____    ______ ____
ROOT
ATOM      1  O   UNL     1       6.803   5.639  15.647  0.00  0.00    +0.000 OA
ATOM      2  C   UNL     1       6.614   5.802  16.850  0.00  0.00    +0.000 C 
ATOM      3  N   UNL     1       5.804   4.944  17.612  0.00  0.00    +0.000 N 
ATOM      4  C   UNL     1       5.158   3.805  16.944  0.00  0.00    +0.000 C 
ATOM      5  C   UNL     1       3.650   3.622  17.255  0.00  0.00    +0.000 C 
ATOM      6  N   UNL     1       3.386   3.176  18.638  0.00  0.00    +0.000 NA
ATOM      7  C   UNL     1       3.304   4.289  19.620  0.00  0.00    +0.000 C 
ATOM      8  C   UNL     1       4.337   5.423  19.537  0.00  0.00    +0.000 C 
ATOM      9  C   UNL     1       5.718   4.940  19.080  0.00  0.00    +0.000 C 
ENDROOT
BRANCH   2  10
ATOM     10  C   UNL     1       7.293   6.958  17.475  0.00  0.00    +0.000 A 
ATOM     11  C   UNL     1       8.170   6.880  18.535  0.00  0.00    +0.000 A 
ATOM     12  N   UNL     1       8.815   7.935  19.070  0.00  0.00    +0.000 NA
ATOM     13  C   UNL     1       8.510   9.136  18.553  0.00  0.00    +0.000 A 
ATOM     14  N   UNL     1       7.623   9.345  17.562  0.00  0.00    +0.000 NA
ATOM     15  C   UNL     1       7.024   8.242  17.051  0.00  0.00    +0.000 A 
BRANCH  13  16
ATOM     16  C   UNL     1       9.186  10.274  19.176  0.00  0.00    +0.000 A 
ATOM     17  C   UNL     1       9.243  10.600  20.524  0.00  0.00    +0.000 A 
ATOM     18  C   UNL     1       9.935  11.819  20.772  0.00  0.00    +0.000 A 
ATOM     19  C   UNL     1      10.402  12.385  19.608  0.00  0.00    +0.000 A 
ATOM     20  S   UNL     1      10.026  11.438  18.236  0.00  0.00    +0.000 S 
ENDBRANCH  13  16
ENDBRANCH   2  10
BRANCH   8  21
ATOM     21  O   UNL     1       3.833   6.463  18.685  0.00  0.00    +0.000 OA
ATOM     22  H   UNL     1       4.315   6.390  17.841  0.00  0.00    +0.000 HD
ENDBRANCH   8  21
BRANCH   6  23
ATOM     23  C   UNL     1       2.125   2.397  18.753  0.00  0.00    +0.000 C 
BRANCH  23  24
ATOM     24  C   UNL     1       0.872   3.255  18.982  0.00  0.00    +0.000 C 
BRANCH  24  25
ATOM     25  O   UNL     1       0.290   2.962  20.249  0.00  0.00    +0.000 OA
ATOM     26  H   UNL     1       1.041   2.783  20.847  0.00  0.00    +0.000 HD
ENDBRANCH  24  25
ENDBRANCH  23  24
ENDBRANCH   6  23
TORSDOF 6
ENDMDL
MODEL 6
REMARK VINA RESULT:      -6.0      0.626      1.155
REMARK  Name = 
REMARK  6 active torsions:
REMARK  status: ('A' for Active; 'I' for Inactive)
REMARK    1  A    between atoms: C_2  and  C_3
REMARK    2  A    between atoms: C_6  and  C_7
REMARK    3  A    between atoms: N_17  and  C_18
REMARK    4  A    between atoms: C_18  and  C_19
REMARK    5  A    between atoms: C_19  and  O_20
REMARK    6  A    between atoms: C_22  and  O_23
REMARK                            x       y       z     vdW  Elec       q    Type
REMARK                         _______ _______ _______ _____ _____    ______ ____
ROOT
ATOM      1  O   UNL     1       7.833   4.370  17.811  0.00  0.00    +0.000 OA
ATOM      2  C   UNL     1       7.015   5.223  18.148  0.00  0.00    +0.000 C 
ATOM      3  N   UNL     1       5.699   4.904  18.522  0.00  0.00    +0.000 N 
ATOM      4  C   UNL     1       5.284   3.494  18.511  0.00  0.00    +0.000 C 
ATOM      5  C   UNL     1       3.929   3.208  17.815  0.00  0.00    +0.000 C 
ATOM      6  N   UNL     1       2.763   3.718  18.567  0.00  0.00    +0.000 NA
ATOM      7  C   UNL     1       2.444   5.141  18.278  0.00  0.00    +0.000 C 
ATOM      8  C   UNL     1       3.597   6.153  18.190  0.00  0.00    +0.000 C 
ATOM      9  C   UNL     1       4.747   5.832  19.150  0.00  0.00    +0.000 C 
ENDROOT
BRANCH   2  10
ATOM     10  C   UNL     1       7.486   6.625  18.150  0.00  0.00    +0.000 A 
ATOM     11  C   UNL     1       7.127   7.580  17.225  0.00  0.00    +0.000 A 
ATOM     12  N   UNL     1       7.528   8.866  17.260  0.00  0.00    +0.000 NA
ATOM     13  C   UNL     1       8.388   9.188  18.241  0.00  0.00    +0.000 A 
ATOM     14  N   UNL     1       8.860   8.328  19.163  0.00  0.00    +0.000 NA
ATOM     15  C   UNL     1       8.402   7.055  19.087  0.00  0.00    +0.000 A 
BRANCH  13  16
ATOM     16  C   UNL     1       8.848  10.576  18.236  0.00  0.00    +0.000 A 
ATOM     17  C   UNL     1       8.302  11.656  17.555  0.00  0.00    +0.000 A 
ATOM     18  C   UNL     1       9.048  12.856  17.727  0.00  0.00    +0.000 A 
ATOM     19  C   UNL     1      10.137  12.665  18.546  0.00  0.00    +0.000 A 
ATOM     20  S   UNL     1      10.239  11.058  19.118  0.00  0.00    +0.000 S 
ENDBRANCH  13  16
ENDBRANCH   2  10
BRANCH   8  21
ATOM     21  O   UNL     1       4.052   6.235  16.830  0.00  0.00    +0.000 OA
ATOM     22  H   UNL     1       3.763   5.414  16.390  0.00  0.00    +0.000 HD
ENDBRANCH   8  21
BRANCH   6  23
ATOM     23  C   UNL     1       1.530   2.931  18.305  0.00  0.00    +0.000 C 
BRANCH  23  24
ATOM     24  C   UNL     1       0.643   2.719  19.540  0.00  0.00    +0.000 C 
BRANCH  24  25
ATOM     25  O   UNL     1       1.441   2.439  20.687  0.00  0.00    +0.000 OA
ATOM     26  H   UNL     1       2.085   1.765  20.399  0.00  0.00    +0.000 HD
ENDBRANCH  24  25
ENDBRANCH  23  24
ENDBRANCH   6  23
TORSDOF 6
ENDMDL
MODEL 7
REMARK VINA RESULT:      -5.9      6.681      9.553
REMARK  Name = 
REMARK  6 active torsions:
REMARK  status: ('A' for Active; 'I' for Inactive)
REMARK    1  A    between atoms: C_2  and  C_3
REMARK    2  A    between atoms: C_6  and  C_7
REMARK    3  A    between atoms: N_17  and  C_18
REMARK    4  A    between atoms: C_18  and  C_19
REMARK    5  A    between atoms: C_19  and  O_20
REMARK    6  A    between atoms: C_22  and  O_23
REMARK                            x       y       z     vdW  Elec       q    Type
REMARK                         _______ _______ _______ _____ _____    ______ ____
ROOT
ATOM      1  O   UNL     1      -1.257  10.659  19.021  0.00  0.00    +0.000 OA
ATOM      2  C   UNL     1      -0.054  10.872  19.139  0.00  0.00    +0.000 C 
ATOM      3  N   UNL     1       0.468  12.153  19.382  0.00  0.00    +0.000 N 
ATOM      4  C   UNL     1      -0.465  13.284  19.501  0.00  0.00    +0.000 C 
ATOM      5  C   UNL     1      -0.085  14.545  18.684  0.00  0.00    +0.000 C 
ATOM      6  N   UNL     1       1.102  15.251  19.210  0.00  0.00    +0.000 NA
ATOM      7  C   UNL     1       2.391  14.713  18.702  0.00  0.00    +0.000 C 
ATOM      8  C   UNL     1       2.577  13.190  18.630  0.00  0.00    +0.000 C 
ATOM      9  C   UNL     1       1.858  12.446  19.761  0.00  0.00    +0.000 C 
ENDROOT
BRANCH   2  10
ATOM     10  C   UNL     1       0.841   9.700  19.019  0.00  0.00    +0.000 A 
ATOM     11  C   UNL     1       1.426   9.269  17.850  0.00  0.00    +0.000 A 
ATOM     12  N   UNL     1       2.272   8.225  17.759  0.00  0.00    +0.000 NA
ATOM     13  C   UNL     1       2.487   7.540  18.894  0.00  0.00    +0.000 A 
ATOM     14  N   UNL     1       1.922   7.825  20.083  0.00  0.00    +0.000 NA
ATOM     15  C   UNL     1       1.098   8.900  20.113  0.00  0.00    +0.000 A 
BRANCH  13  16
ATOM     16  C   UNL     1       3.372   6.383  18.768  0.00  0.00    +0.000 A 
ATOM     17  C   UNL     1       3.532   5.328  19.656  0.00  0.00    +0.000 A 
ATOM     18  C   UNL     1       4.532   4.402  19.244  0.00  0.00    +0.000 A 
ATOM     19  C   UNL     1       5.100   4.767  18.046  0.00  0.00    +0.000 A 
ATOM     20  S   UNL     1       4.414   6.199  17.416  0.00  0.00    +0.000 S 
ENDBRANCH  13  16
ENDBRANCH   2  10
BRANCH   8  21
ATOM     21  O   UNL     1       2.155  12.722  17.339  0.00  0.00    +0.000 OA
ATOM     22  H   UNL     1       2.900  12.212  16.971  0.00  0.00    +0.000 HD
ENDBRANCH   8  21
BRANCH   6  23
ATOM     23  C   UNL     1       1.081  16.705  18.899  0.00  0.00    +0.000 C 
BRANCH  23  24
ATOM     24  C   UNL     1       0.300  17.556  19.911  0.00  0.00    +0.000 C 
BRANCH  24  25
ATOM     25  O   UNL     1       0.509  17.074  21.235  0.00  0.00    +0.000 OA
ATOM     26  H   UNL     1      -0.335  17.222  21.703  0.00  0.00    +0.000 HD
ENDBRANCH  24  25
ENDBRANCH  23  24
ENDBRANCH   6  23
TORSDOF 6
ENDMDL
MODEL 8
REMARK VINA RESULT:      -5.9      6.666      9.569
REMARK  Name = 
REMARK  6 active torsions:
REMARK  status: ('A' for Active; 'I' for Inactive)
REMARK    1  A    between atoms: C_2  and  C_3
REMARK    2  A    between atoms: C_6  and  C_7
REMARK    3  A    between atoms: N_17  and  C_18
REMARK    4  A    between atoms: C_18  and  C_19
REMARK    5  A    between atoms: C_19  and  O_20
REMARK    6  A    between atoms: C_22  and  O_23
REMARK                            x       y       z     vdW  Elec       q    Type
REMARK                         _______ _______ _______ _____ _____    ______ ____
ROOT
ATOM      1  O   UNL     1      -1.257  10.647  18.906  0.00  0.00    +0.000 OA
ATOM      2  C   UNL     1      -0.061  10.862  19.081  0.00  0.00    +0.000 C 
ATOM      3  N   UNL     1       0.448  12.144  19.345  0.00  0.00    +0.000 N 
ATOM      4  C   UNL     1      -0.490  13.274  19.415  0.00  0.00    +0.000 C 
ATOM      5  C   UNL     1      -0.072  14.533  18.612  0.00  0.00    +0.000 C 
ATOM      6  N   UNL     1       1.087  15.241  19.193  0.00  0.00    +0.000 NA
ATOM      7  C   UNL     1       2.400  14.703  18.748  0.00  0.00    +0.000 C 
ATOM      8  C   UNL     1       2.590  13.179  18.690  0.00  0.00    +0.000 C 
ATOM      9  C   UNL     1       1.819  12.439  19.788  0.00  0.00    +0.000 C 
ENDROOT
BRANCH   2  10
ATOM     10  C   UNL     1       0.839   9.689  19.008  0.00  0.00    +0.000 A 
ATOM     11  C   UNL     1       1.184   8.890  20.074  0.00  0.00    +0.000 A 
ATOM     12  N   UNL     1       1.971   7.800  19.989  0.00  0.00    +0.000 NA
ATOM     13  C   UNL     1       2.489   7.542  18.777  0.00  0.00    +0.000 A 
ATOM     14  N   UNL     1       2.278   8.286  17.675  0.00  0.00    +0.000 NA
ATOM     15  C   UNL     1       1.460   9.356  17.822  0.00  0.00    +0.000 A 
BRANCH  13  16
ATOM     16  C   UNL     1       3.378   6.381  18.712  0.00  0.00    +0.000 A 
ATOM     17  C   UNL     1       3.530   5.368  19.649  0.00  0.00    +0.000 A 
ATOM     18  C   UNL     1       4.536   4.427  19.291  0.00  0.00    +0.000 A 
ATOM     19  C   UNL     1       5.116   4.738  18.083  0.00  0.00    +0.000 A 
ATOM     20  S   UNL     1       4.434   6.139  17.382  0.00  0.00    +0.000 S 
ENDBRANCH  13  16
ENDBRANCH   2  10
BRANCH   8  21
ATOM     21  O   UNL     1       2.231  12.707  17.382  0.00  0.00    +0.000 OA
ATOM     22  H   UNL     1       1.258  12.648  17.365  0.00  0.00    +0.000 HD
ENDBRANCH   8  21
BRANCH   6  23
ATOM     23  C   UNL     1       1.081  16.694  18.877  0.00  0.00    +0.000 C 
BRANCH  23  24
ATOM     24  C   UNL     1       0.971  17.607  20.106  0.00  0.00    +0.000 C 
BRANCH  24  25
ATOM     25  O   UNL     1       2.265  18.005  20.551  0.00  0.00    +0.000 OA
ATOM     26  H   UNL     1       2.369  17.612  21.438  0.00  0.00    +0.000 HD
ENDBRANCH  24  25
ENDBRANCH  23  24
ENDBRANCH   6  23
TORSDOF 6
ENDMDL
MODEL 9
REMARK VINA RESULT:      -5.7      6.655      8.872
REMARK  Name = 
REMARK  6 active torsions:
REMARK  status: ('A' for Active; 'I' for Inactive)
REMARK    1  A    between atoms: C_2  and  C_3
REMARK    2  A    between atoms: C_6  and  C_7
REMARK    3  A    between atoms: N_17  and  C_18
REMARK    4  A    between atoms: C_18  and  C_19
REMARK    5  A    between atoms: C_19  and  O_20
REMARK    6  A    between atoms: C_22  and  O_23
REMARK                            x       y       z     vdW  Elec       q    Type
REMARK                         _______ _______ _______ _____ _____    ______ ____
ROOT
ATOM      1  O   UNL     1       1.657  11.249  18.474  0.00  0.00    +0.000 OA
ATOM      2  C   UNL     1       1.153  10.391  19.194  0.00  0.00    +0.000 C 
ATOM      3  N   UNL     1       0.130  10.677  20.112  0.00  0.00    +0.000 N 
ATOM      4  C   UNL     1      -0.359  12.060  20.215  0.00  0.00    +0.000 C 
ATOM      5  C   UNL     1      -0.487  12.612  21.658  0.00  0.00    +0.000 C 
ATOM      6  N   UNL     1      -1.584  11.990  22.430  0.00  0.00    +0.000 NA
ATOM      7  C   UNL     1      -1.195  10.724  23.105  0.00  0.00    +0.000 C 
ATOM      8  C   UNL     1      -0.347   9.705  22.329  0.00  0.00    +0.000 C 
ATOM      9  C   UNL     1      -0.671   9.675  20.832  0.00  0.00    +0.000 C 
ENDROOT
BRANCH   2  10
ATOM     10  C   UNL     1       1.675   9.014  19.046  0.00  0.00    +0.000 A 
ATOM     11  C   UNL     1       1.809   8.105  20.071  0.00  0.00    +0.000 A 
ATOM     12  N   UNL     1       2.246   6.840  19.918  0.00  0.00    +0.000 NA
ATOM     13  C   UNL     1       2.629   6.496  18.678  0.00  0.00    +0.000 A 
ATOM     14  N   UNL     1       2.606   7.315  17.610  0.00  0.00    +0.000 NA
ATOM     15  C   UNL     1       2.135   8.568  17.825  0.00  0.00    +0.000 A 
BRANCH  13  16
ATOM     16  C   UNL     1       3.144   5.134  18.539  0.00  0.00    +0.000 A 
ATOM     17  C   UNL     1       3.666   4.529  17.404  0.00  0.00    +0.000 A 
ATOM     18  C   UNL     1       4.013   3.164  17.612  0.00  0.00    +0.000 A 
ATOM     19  C   UNL     1       3.760   2.766  18.904  0.00  0.00    +0.000 A 
ATOM     20  S   UNL     1       3.133   4.036  19.859  0.00  0.00    +0.000 S 
ENDBRANCH  13  16
ENDBRANCH   2  10
BRANCH   8  21
ATOM     21  O   UNL     1       1.045   9.970  22.564  0.00  0.00    +0.000 OA
ATOM     22  H   UNL     1       1.513   9.123  22.443  0.00  0.00    +0.000 HD
ENDBRANCH   8  21
BRANCH   6  23
ATOM     23  C   UNL     1      -2.127  12.896  23.476  0.00  0.00    +0.000 C 
BRANCH  23  24
ATOM     24  C   UNL     1      -3.536  12.527  23.961  0.00  0.00    +0.000 C 
BRANCH  24  25
ATOM     25  O   UNL     1      -3.996  13.470  24.925  0.00  0.00    +0.000 OA
ATOM     26  H   UNL     1      -4.201  14.280  24.421  0.00  0.00    +0.000 HD
ENDBRANCH  24  25
ENDBRANCH  23  24
ENDBRANCH   6  23
TORSDOF 6
ENDMDL
