MODEL 1
REMARK VINA RESULT:      -7.8      0.000      0.000
REMARK  Name = 
REMARK  13 active torsions:
REMARK  status: ('A' for Active; 'I' for Inactive)
REMARK    1  A    between atoms: C_1  and  C_2
REMARK    2  A    between atoms: C_2  and  C_3
REMARK    3  A    between atoms: C_3  and  C_4
REMARK    4  A    between atoms: C_4  and  C_5
REMARK    5  A    between atoms: C_5  and  C_6
REMARK    6  A    between atoms: C_6  and  N_7
REMARK    7  A    between atoms: N_10  and  C_11
REMARK    8  A    between atoms: N_17  and  C_18
REMARK    9  A    between atoms: C_18  and  C_19
REMARK   10  A    between atoms: C_22  and  C_23
REMARK   11  A    between atoms: C_23  and  O_25
REMARK   12  A    between atoms: C_27  and  O_28
REMARK   13  A    between atoms: O_28  and  C_29
REMARK                            x       y       z     vdW  Elec       q    Type
REMARK                         _______ _______ _______ _____ _____    ______ ____
ROOT
ATOM      1  C   UNL     1       3.436   6.925  17.804  0.00  0.00    +0.000 A 
ATOM      2  C   UNL     1       3.175   5.834  18.631  0.00  0.00    +0.000 A 
ATOM      3  C   UNL     1       2.423   5.964  19.798  0.00  0.00    +0.000 A 
ATOM      4  C   UNL     1       1.856   7.206  20.127  0.00  0.00    +0.000 A 
ATOM      5  C   UNL     1       1.035   7.633  21.201  0.00  0.00    +0.000 A 
ATOM      6  C   UNL     1       0.706   8.942  20.976  0.00  0.00    +0.000 A 
ATOM      7  N   UNL     1       1.285   9.333  19.782  0.00  0.00    +0.000 N 
ATOM      8  C   UNL     1       2.095   8.310  19.295  0.00  0.00    +0.000 A 
ATOM      9  C   UNL     1       2.982   8.207  18.190  0.00  0.00    +0.000 A 
ENDROOT
BRANCH   1  13
ATOM     10  N   UNL     1       5.638   5.915  15.055  0.00  0.00    +0.000 N 
ATOM     11  C   UNL     1       5.113   5.868  16.325  0.00  0.00    +0.000 C 
ATOM     12  O   UNL     1       5.565   5.090  17.146  0.00  0.00    +0.000 OA
ATOM     13  N   UNL     1       4.095   6.780  16.546  0.00  0.00    +0.000 N 
ATOM     14  H   UNL     1       5.146   6.388  14.318  0.00  0.00    +0.000 HD
ATOM     15  H   UNL     1       3.612   7.122  15.735  0.00  0.00    +0.000 HD
BRANCH  10  16
ATOM     16  C   UNL     1       6.723   4.999  14.714  0.00  0.00    +0.000 C 
BRANCH  16  17
ATOM     17  C   UNL     1       6.243   3.724  14.015  0.00  0.00    +0.000 C 
BRANCH  17  18
ATOM     18  C   UNL     1       6.530   3.758  12.510  0.00  0.00    +0.000 C 
BRANCH  18  19
ATOM     19  C   UNL     1       5.572   2.860  11.729  0.00  0.00    +0.000 C 
BRANCH  19  21
ATOM     20  C   UNL     1       3.497   3.387  10.400  0.00  0.00    +0.000 C 
ATOM     21  C   UNL     1       4.134   3.383  11.781  0.00  0.00    +0.000 C 
ENDBRANCH  19  21
ENDBRANCH  18  19
ENDBRANCH  17  18
ENDBRANCH  16  17
ENDBRANCH  10  16
ENDBRANCH   1  13
BRANCH   7  22
ATOM     22  C   UNL     1       0.930  10.622  19.148  0.00  0.00    +0.000 C 
BRANCH  22  23
ATOM     23  C   UNL     1      -0.480  10.707  18.602  0.00  0.00    +0.000 A 
ATOM     24  C   UNL     1      -0.861   9.701  17.685  0.00  0.00    +0.000 A 
ATOM     25  C   UNL     1      -1.994   9.814  16.888  0.00  0.00    +0.000 A 
ATOM     26  C   UNL     1      -2.833  10.906  17.035  0.00  0.00    +0.000 A 
ATOM     27  C   UNL     1      -2.584  11.819  18.060  0.00  0.00    +0.000 A 
ATOM     28  C   UNL     1      -1.402  11.746  18.838  0.00  0.00    +0.000 A 
BRANCH  26  29
ATOM     29  C   UNL     1      -3.901  11.063  16.007  0.00  0.00    +0.000 C 
ATOM     30  O   UNL     1      -3.653  11.132  14.824  0.00  0.00    +0.000 OA
BRANCH  29  31
ATOM     31  O   UNL     1      -5.141  11.274  16.503  0.00  0.00    +0.000 OA
ATOM     32  H   UNL     1      -5.669  11.988  16.117  0.00  0.00    +0.000 HD
ENDBRANCH  29  31
ENDBRANCH  26  29
BRANCH  28  33
ATOM     33  O   UNL     1      -1.345  12.813  19.689  0.00  0.00    +0.000 OA
ATOM     34  C   UNL     1      -0.659  14.006  19.356  0.00  0.00    +0.000 C 
ENDBRANCH  28  33
ENDBRANCH  22  23
ENDBRANCH   7  22
TORSDOF 11
ENDMDL
MODEL 2
REMARK VINA RESULT:      -7.8      2.023      3.213
REMARK  Name = 
REMARK  13 active torsions:
REMARK  status: ('A' for Active; 'I' for Inactive)
REMARK    1  A    between atoms: C_1  and  C_2
REMARK    2  A    between atoms: C_2  and  C_3
REMARK    3  A    between atoms: C_3  and  C_4
REMARK    4  A    between atoms: C_4  and  C_5
REMARK    5  A    between atoms: C_5  and  C_6
REMARK    6  A    between atoms: C_6  and  N_7
REMARK    7  A    between atoms: N_10  and  C_11
REMARK    8  A    between atoms: N_17  and  C_18
REMARK    9  A    between atoms: C_18  and  C_19
REMARK   10  A    between atoms: C_22  and  C_23
REMARK   11  A    between atoms: C_23  and  O_25
REMARK   12  A    between atoms: C_27  and  O_28
REMARK   13  A    between atoms: O_28  and  C_29
REMARK                            x       y       z     vdW  Elec       q    Type
REMARK                         _______ _______ _______ _____ _____    ______ ____
ROOT
ATOM      1  C   UNL     1       4.027   5.043  17.098  0.00  0.00    +0.000 A 
ATOM      2  C   UNL     1       3.300   3.877  16.867  0.00  0.00    +0.000 A 
ATOM      3  C   UNL     1       2.330   3.430  17.764  0.00  0.00    +0.000 A 
ATOM      4  C   UNL     1       2.024   4.198  18.899  0.00  0.00    +0.000 A 
ATOM      5  C   UNL     1       1.088   4.029  19.950  0.00  0.00    +0.000 A 
ATOM      6  C   UNL     1       1.164   5.133  20.755  0.00  0.00    +0.000 A 
ATOM      7  N   UNL     1       2.108   5.991  20.221  0.00  0.00    +0.000 N 
ATOM      8  C   UNL     1       2.736   5.384  19.136  0.00  0.00    +0.000 A 
ATOM      9  C   UNL     1       3.822   5.757  18.301  0.00  0.00    +0.000 A 
ENDROOT
BRANCH   1  13
ATOM     10  N   UNL     1       6.606   5.503  14.535  0.00  0.00    +0.000 N 
ATOM     11  C   UNL     1       5.794   4.789  15.386  0.00  0.00    +0.000 C 
ATOM     12  O   UNL     1       5.895   3.578  15.456  0.00  0.00    +0.000 OA
ATOM     13  N   UNL     1       4.929   5.576  16.129  0.00  0.00    +0.000 N 
ATOM     14  H   UNL     1       6.394   6.459  14.312  0.00  0.00    +0.000 HD
ATOM     15  H   UNL     1       4.720   6.486  15.761  0.00  0.00    +0.000 HD
BRANCH  10  16
ATOM     16  C   UNL     1       7.563   4.772  13.709  0.00  0.00    +0.000 C 
BRANCH  16  17
ATOM     17  C   UNL     1       7.147   4.681  12.237  0.00  0.00    +0.000 C 
BRANCH  17  18
ATOM     18  C   UNL     1       7.065   3.227  11.760  0.00  0.00    +0.000 C 
BRANCH  18  19
ATOM     19  C   UNL     1       5.688   2.620  12.024  0.00  0.00    +0.000 C 
BRANCH  19  21
ATOM     20  C   UNL     1       3.676   3.347  10.692  0.00  0.00    +0.000 C 
ATOM     21  C   UNL     1       4.573   3.659  11.880  0.00  0.00    +0.000 C 
ENDBRANCH  19  21
ENDBRANCH  18  19
ENDBRANCH  17  18
ENDBRANCH  16  17
ENDBRANCH  10  16
ENDBRANCH   1  13
BRANCH   7  22
ATOM     22  C   UNL     1       2.259   7.371  20.732  0.00  0.00    +0.000 C 
BRANCH  22  23
ATOM     23  C   UNL     1       1.288   8.383  20.160  0.00  0.00    +0.000 A 
ATOM     24  C   UNL     1       1.550   8.833  18.846  0.00  0.00    +0.000 A 
ATOM     25  C   UNL     1       0.934   9.958  18.310  0.00  0.00    +0.000 A 
ATOM     26  C   UNL     1      -0.029  10.631  19.044  0.00  0.00    +0.000 A 
ATOM     27  C   UNL     1      -0.442  10.102  20.267  0.00  0.00    +0.000 A 
ATOM     28  C   UNL     1       0.220   8.992  20.848  0.00  0.00    +0.000 A 
BRANCH  26  29
ATOM     29  C   UNL     1      -0.484  11.939  18.494  0.00  0.00    +0.000 C 
ATOM     30  O   UNL     1      -1.656  12.204  18.341  0.00  0.00    +0.000 OA
BRANCH  29  31
ATOM     31  O   UNL     1       0.507  12.740  18.040  0.00  0.00    +0.000 OA
ATOM     32  H   UNL     1       0.561  12.898  17.086  0.00  0.00    +0.000 HD
ENDBRANCH  29  31
ENDBRANCH  26  29
BRANCH  28  33
ATOM     33  O   UNL     1      -0.300   8.744  22.087  0.00  0.00    +0.000 OA
ATOM     34  C   UNL     1      -0.473   9.766  23.050  0.00  0.00    +0.000 C 
ENDBRANCH  28  33
ENDBRANCH  22  23
ENDBRANCH   7  22
TORSDOF 11
ENDMDL
MODEL 3
REMARK VINA RESULT:      -7.7      0.888      1.080
REMARK  Name = 
REMARK  13 active torsions:
REMARK  status: ('A' for Active; 'I' for Inactive)
REMARK    1  A    between atoms: C_1  and  C_2
REMARK    2  A    between atoms: C_2  and  C_3
REMARK    3  A    between atoms: C_3  and  C_4
REMARK    4  A    between atoms: C_4  and  C_5
REMARK    5  A    between atoms: C_5  and  C_6
REMARK    6  A    between atoms: C_6  and  N_7
REMARK    7  A    between atoms: N_10  and  C_11
REMARK    8  A    between atoms: N_17  and  C_18
REMARK    9  A    between atoms: C_18  and  C_19
REMARK   10  A    between atoms: C_22  and  C_23
REMARK   11  A    between atoms: C_23  and  O_25
REMARK   12  A    between atoms: C_27  and  O_28
REMARK   13  A    between atoms: O_28  and  C_29
REMARK                            x       y       z     vdW  Elec       q    Type
REMARK                         _______ _______ _______ _____ _____    ______ ____
ROOT
ATOM      1  C   UNL     1       2.716   6.072  18.657  0.00  0.00    +0.000 A 
ATOM      2  C   UNL     1       2.366   5.359  19.801  0.00  0.00    +0.000 A 
ATOM      3  C   UNL     1       1.792   5.986  20.907  0.00  0.00    +0.000 A 
ATOM      4  C   UNL     1       1.496   7.357  20.854  0.00  0.00    +0.000 A 
ATOM      5  C   UNL     1       0.895   8.246  21.780  0.00  0.00    +0.000 A 
ATOM      6  C   UNL     1       0.779   9.465  21.169  0.00  0.00    +0.000 A 
ATOM      7  N   UNL     1       1.273   9.351  19.882  0.00  0.00    +0.000 N 
ATOM      8  C   UNL     1       1.826   8.086  19.702  0.00  0.00    +0.000 A 
ATOM      9  C   UNL     1       2.544   7.475  18.639  0.00  0.00    +0.000 A 
ENDROOT
BRANCH   1  13
ATOM     10  N   UNL     1       4.745   4.419  16.092  0.00  0.00    +0.000 N 
ATOM     11  C   UNL     1       4.490   4.984  17.320  0.00  0.00    +0.000 C 
ATOM     12  O   UNL     1       5.381   5.087  18.144  0.00  0.00    +0.000 OA
ATOM     13  N   UNL     1       3.185   5.423  17.476  0.00  0.00    +0.000 N 
ATOM     14  H   UNL     1       3.990   4.137  15.494  0.00  0.00    +0.000 HD
ATOM     15  H   UNL     1       2.495   5.004  16.878  0.00  0.00    +0.000 HD
BRANCH  10  16
ATOM     16  C   UNL     1       6.093   3.928  15.818  0.00  0.00    +0.000 C 
BRANCH  16  17
ATOM     17  C   UNL     1       6.977   4.953  15.101  0.00  0.00    +0.000 C 
BRANCH  17  18
ATOM     18  C   UNL     1       7.004   4.719  13.586  0.00  0.00    +0.000 C 
BRANCH  18  19
ATOM     19  C   UNL     1       6.202   3.479  13.190  0.00  0.00    +0.000 C 
BRANCH  19  21
ATOM     20  C   UNL     1       4.658   2.794  11.321  0.00  0.00    +0.000 C 
ATOM     21  C   UNL     1       4.957   3.844  12.379  0.00  0.00    +0.000 C 
ENDBRANCH  19  21
ENDBRANCH  18  19
ENDBRANCH  17  18
ENDBRANCH  16  17
ENDBRANCH  10  16
ENDBRANCH   1  13
BRANCH   7  22
ATOM     22  C   UNL     1       1.078  10.432  18.892  0.00  0.00    +0.000 C 
BRANCH  22  23
ATOM     23  C   UNL     1      -0.345  10.623  18.413  0.00  0.00    +0.000 A 
ATOM     24  C   UNL     1      -0.898   9.571  17.648  0.00  0.00    +0.000 A 
ATOM     25  C   UNL     1      -2.061   9.726  16.902  0.00  0.00    +0.000 A 
ATOM     26  C   UNL     1      -2.760  10.921  16.958  0.00  0.00    +0.000 A 
ATOM     27  C   UNL     1      -2.342  11.910  17.848  0.00  0.00    +0.000 A 
ATOM     28  C   UNL     1      -1.127  11.786  18.567  0.00  0.00    +0.000 A 
BRANCH  26  29
ATOM     29  C   UNL     1      -3.868  11.085  15.975  0.00  0.00    +0.000 C 
ATOM     30  O   UNL     1      -3.675  11.100  14.780  0.00  0.00    +0.000 OA
BRANCH  29  31
ATOM     31  O   UNL     1      -5.073  11.368  16.520  0.00  0.00    +0.000 OA
ATOM     32  H   UNL     1      -5.365  10.838  17.276  0.00  0.00    +0.000 HD
ENDBRANCH  29  31
ENDBRANCH  26  29
BRANCH  28  33
ATOM     33  O   UNL     1      -0.893  12.930  19.276  0.00  0.00    +0.000 OA
ATOM     34  C   UNL     1      -0.206  14.035  18.719  0.00  0.00    +0.000 C 
ENDBRANCH  28  33
ENDBRANCH  22  23
ENDBRANCH   7  22
TORSDOF 11
ENDMDL
MODEL 4
REMARK VINA RESULT:      -7.7      0.807      1.074
REMARK  Name = 
REMARK  13 active torsions:
REMARK  status: ('A' for Active; 'I' for Inactive)
REMARK    1  A    between atoms: C_1  and  C_2
REMARK    2  A    between atoms: C_2  and  C_3
REMARK    3  A    between atoms: C_3  and  C_4
REMARK    4  A    between atoms: C_4  and  C_5
REMARK    5  A    between atoms: C_5  and  C_6
REMARK    6  A    between atoms: C_6  and  N_7
REMARK    7  A    between atoms: N_10  and  C_11
REMARK    8  A    between atoms: N_17  and  C_18
REMARK    9  A    between atoms: C_18  and  C_19
REMARK   10  A    between atoms: C_22  and  C_23
REMARK   11  A    between atoms: C_23  and  O_25
REMARK   12  A    between atoms: C_27  and  O_28
REMARK   13  A    between atoms: O_28  and  C_29
REMARK                            x       y       z     vdW  Elec       q    Type
REMARK                         _______ _______ _______ _____ _____    ______ ____
ROOT
ATOM      1  C   UNL     1       3.141   7.080  18.090  0.00  0.00    +0.000 A 
ATOM      2  C   UNL     1       2.928   6.013  18.961  0.00  0.00    +0.000 A 
ATOM      3  C   UNL     1       2.212   6.169  20.148  0.00  0.00    +0.000 A 
ATOM      4  C   UNL     1       1.633   7.412  20.454  0.00  0.00    +0.000 A 
ATOM      5  C   UNL     1       0.840   7.860  21.539  0.00  0.00    +0.000 A 
ATOM      6  C   UNL     1       0.480   9.155  21.283  0.00  0.00    +0.000 A 
ATOM      7  N   UNL     1       1.012   9.516  20.058  0.00  0.00    +0.000 N 
ATOM      8  C   UNL     1       1.825   8.491  19.578  0.00  0.00    +0.000 A 
ATOM      9  C   UNL     1       2.676   8.367  18.449  0.00  0.00    +0.000 A 
ENDROOT
BRANCH   1  13
ATOM     10  N   UNL     1       5.338   6.102  15.325  0.00  0.00    +0.000 N 
ATOM     11  C   UNL     1       4.874   6.105  16.620  0.00  0.00    +0.000 C 
ATOM     12  O   UNL     1       5.453   5.463  17.478  0.00  0.00    +0.000 OA
ATOM     13  N   UNL     1       3.761   6.905  16.817  0.00  0.00    +0.000 N 
ATOM     14  H   UNL     1       4.762   6.446  14.578  0.00  0.00    +0.000 HD
ATOM     15  H   UNL     1       3.207   7.113  16.006  0.00  0.00    +0.000 HD
BRANCH  10  16
ATOM     16  C   UNL     1       6.513   5.297  15.007  0.00  0.00    +0.000 C 
BRANCH  16  17
ATOM     17  C   UNL     1       6.168   3.939  14.388  0.00  0.00    +0.000 C 
BRANCH  17  18
ATOM     18  C   UNL     1       6.579   3.866  12.913  0.00  0.00    +0.000 C 
BRANCH  18  19
ATOM     19  C   UNL     1       5.443   3.342  12.033  0.00  0.00    +0.000 C 
BRANCH  19  21
ATOM     20  C   UNL     1       7.209   1.825  11.070  0.00  0.00    +0.000 C 
ATOM     21  C   UNL     1       5.750   1.948  11.482  0.00  0.00    +0.000 C 
ENDBRANCH  19  21
ENDBRANCH  18  19
ENDBRANCH  17  18
ENDBRANCH  16  17
ENDBRANCH  10  16
ENDBRANCH   1  13
BRANCH   7  22
ATOM     22  C   UNL     1       0.613  10.776  19.394  0.00  0.00    +0.000 C 
BRANCH  22  23
ATOM     23  C   UNL     1      -0.764  10.767  18.764  0.00  0.00    +0.000 A 
ATOM     24  C   UNL     1      -0.966   9.854  17.705  0.00  0.00    +0.000 A 
ATOM     25  C   UNL     1      -2.058   9.937  16.850  0.00  0.00    +0.000 A 
ATOM     26  C   UNL     1      -3.035  10.894  17.072  0.00  0.00    +0.000 A 
ATOM     27  C   UNL     1      -2.958  11.687  18.217  0.00  0.00    +0.000 A 
ATOM     28  C   UNL     1      -1.821  11.651  19.061  0.00  0.00    +0.000 A 
BRANCH  26  29
ATOM     29  C   UNL     1      -4.055  11.059  15.998  0.00  0.00    +0.000 C 
ATOM     30  O   UNL     1      -3.758  11.102  14.825  0.00  0.00    +0.000 OA
BRANCH  29  31
ATOM     31  O   UNL     1      -5.308  11.310  16.440  0.00  0.00    +0.000 OA
ATOM     32  H   UNL     1      -6.048  10.919  15.952  0.00  0.00    +0.000 HD
ENDBRANCH  29  31
ENDBRANCH  26  29
BRANCH  28  33
ATOM     33  O   UNL     1      -1.945  12.596  20.040  0.00  0.00    +0.000 OA
ATOM     34  C   UNL     1      -2.102  12.252  21.404  0.00  0.00    +0.000 C 
ENDBRANCH  28  33
ENDBRANCH  22  23
ENDBRANCH   7  22
TORSDOF 11
ENDMDL
MODEL 5
REMARK VINA RESULT:      -7.6      2.822      9.144
REMARK  Name = 
REMARK  13 active torsions:
REMARK  status: ('A' for Active; 'I' for Inactive)
REMARK    1  A    between atoms: C_1  and  C_2
REMARK    2  A    between atoms: C_2  and  C_3
REMARK    3  A    between atoms: C_3  and  C_4
REMARK    4  A    between atoms: C_4  and  C_5
REMARK    5  A    between atoms: C_5  and  C_6
REMARK    6  A    between atoms: C_6  and  N_7
REMARK    7  A    between atoms: N_10  and  C_11
REMARK    8  A    between atoms: N_17  and  C_18
REMARK    9  A    between atoms: C_18  and  C_19
REMARK   10  A    between atoms: C_22  and  C_23
REMARK   11  A    between atoms: C_23  and  O_25
REMARK   12  A    between atoms: C_27  and  O_28
REMARK   13  A    between atoms: O_28  and  C_29
REMARK                            x       y       z     vdW  Elec       q    Type
REMARK                         _______ _______ _______ _____ _____    ______ ____
ROOT
ATOM      1  C   UNL     1       1.934   6.557  20.136  0.00  0.00    +0.000 A 
ATOM      2  C   UNL     1       1.056   5.650  20.727  0.00  0.00    +0.000 A 
ATOM      3  C   UNL     1       1.289   4.276  20.689  0.00  0.00    +0.000 A 
ATOM      4  C   UNL     1       2.464   3.784  20.098  0.00  0.00    +0.000 A 
ATOM      5  C   UNL     1       2.984   2.475  19.940  0.00  0.00    +0.000 A 
ATOM      6  C   UNL     1       4.217   2.587  19.357  0.00  0.00    +0.000 A 
ATOM      7  N   UNL     1       4.485   3.931  19.168  0.00  0.00    +0.000 N 
ATOM      8  C   UNL     1       3.366   4.686  19.514  0.00  0.00    +0.000 A 
ATOM      9  C   UNL     1       3.055   6.068  19.425  0.00  0.00    +0.000 A 
ENDROOT
BRANCH   1  13
ATOM     10  N   UNL     1       1.559  10.155  19.555  0.00  0.00    +0.000 N 
ATOM     11  C   UNL     1       1.670   8.831  19.201  0.00  0.00    +0.000 C 
ATOM     12  O   UNL     1       1.700   8.512  18.025  0.00  0.00    +0.000 OA
ATOM     13  N   UNL     1       1.773   7.968  20.278  0.00  0.00    +0.000 N 
ATOM     14  H   UNL     1       1.322  10.412  20.496  0.00  0.00    +0.000 HD
ATOM     15  H   UNL     1       1.422   8.302  21.158  0.00  0.00    +0.000 HD
BRANCH  10  16
ATOM     16  C   UNL     1       1.451  11.154  18.495  0.00  0.00    +0.000 C 
BRANCH  16  17
ATOM     17  C   UNL     1       0.399  12.230  18.781  0.00  0.00    +0.000 C 
BRANCH  17  18
ATOM     18  C   UNL     1      -0.969  11.616  19.097  0.00  0.00    +0.000 C 
BRANCH  18  19
ATOM     19  C   UNL     1      -1.849  11.519  17.851  0.00  0.00    +0.000 C 
BRANCH  19  21
ATOM     20  C   UNL     1      -3.184   9.751  16.651  0.00  0.00    +0.000 C 
ATOM     21  C   UNL     1      -1.835  10.109  17.255  0.00  0.00    +0.000 C 
ENDBRANCH  19  21
ENDBRANCH  18  19
ENDBRANCH  17  18
ENDBRANCH  16  17
ENDBRANCH  10  16
ENDBRANCH   1  13
BRANCH   7  22
ATOM     22  C   UNL     1       5.832   4.391  18.768  0.00  0.00    +0.000 C 
BRANCH  22  23
ATOM     23  C   UNL     1       6.019   4.634  17.285  0.00  0.00    +0.000 A 
ATOM     24  C   UNL     1       5.205   3.874  16.416  0.00  0.00    +0.000 A 
ATOM     25  C   UNL     1       5.467   3.770  15.054  0.00  0.00    +0.000 A 
ATOM     26  C   UNL     1       6.511   4.489  14.498  0.00  0.00    +0.000 A 
ATOM     27  C   UNL     1       7.214   5.391  15.296  0.00  0.00    +0.000 A 
ATOM     28  C   UNL     1       6.996   5.461  16.694  0.00  0.00    +0.000 A 
BRANCH  26  29
ATOM     29  C   UNL     1       6.860   4.163  13.086  0.00  0.00    +0.000 C 
ATOM     30  O   UNL     1       7.519   4.906  12.394  0.00  0.00    +0.000 OA
BRANCH  29  31
ATOM     31  O   UNL     1       6.259   3.055  12.594  0.00  0.00    +0.000 OA
ATOM     32  H   UNL     1       6.661   2.196  12.790  0.00  0.00    +0.000 HD
ENDBRANCH  29  31
ENDBRANCH  26  29
BRANCH  28  33
ATOM     33  O   UNL     1       7.883   6.335  17.255  0.00  0.00    +0.000 OA
ATOM     34  C   UNL     1       7.587   7.709  17.417  0.00  0.00    +0.000 C 
ENDBRANCH  28  33
ENDBRANCH  22  23
ENDBRANCH   7  22
TORSDOF 11
ENDMDL
MODEL 6
REMARK VINA RESULT:      -7.6      2.155      3.536
REMARK  Name = 
REMARK  13 active torsions:
REMARK  status: ('A' for Active; 'I' for Inactive)
REMARK    1  A    between atoms: C_1  and  C_2
REMARK    2  A    between atoms: C_2  and  C_3
REMARK    3  A    between atoms: C_3  and  C_4
REMARK    4  A    between atoms: C_4  and  C_5
REMARK    5  A    between atoms: C_5  and  C_6
REMARK    6  A    between atoms: C_6  and  N_7
REMARK    7  A    between atoms: N_10  and  C_11
REMARK    8  A    between atoms: N_17  and  C_18
REMARK    9  A    between atoms: C_18  and  C_19
REMARK   10  A    between atoms: C_22  and  C_23
REMARK   11  A    between atoms: C_23  and  O_25
REMARK   12  A    between atoms: C_27  and  O_28
REMARK   13  A    between atoms: O_28  and  C_29
REMARK                            x       y       z     vdW  Elec       q    Type
REMARK                         _______ _______ _______ _____ _____    ______ ____
ROOT
ATOM      1  C   UNL     1       4.221   3.174  17.683  0.00  0.00    +0.000 A 
ATOM      2  C   UNL     1       3.266   2.177  17.873  0.00  0.00    +0.000 A 
ATOM      3  C   UNL     1       2.188   2.351  18.741  0.00  0.00    +0.000 A 
ATOM      4  C   UNL     1       2.015   3.580  19.398  0.00  0.00    +0.000 A 
ATOM      5  C   UNL     1       1.025   4.060  20.291  0.00  0.00    +0.000 A 
ATOM      6  C   UNL     1       1.310   5.371  20.560  0.00  0.00    +0.000 A 
ATOM      7  N   UNL     1       2.439   5.723  19.842  0.00  0.00    +0.000 N 
ATOM      8  C   UNL     1       2.959   4.600  19.204  0.00  0.00    +0.000 A 
ATOM      9  C   UNL     1       4.131   4.367  18.437  0.00  0.00    +0.000 A 
ENDROOT
BRANCH   1  13
ATOM     10  N   UNL     1       6.540   3.713  14.898  0.00  0.00    +0.000 N 
ATOM     11  C   UNL     1       5.531   4.041  15.773  0.00  0.00    +0.000 C 
ATOM     12  O   UNL     1       4.951   5.107  15.667  0.00  0.00    +0.000 OA
ATOM     13  N   UNL     1       5.254   3.056  16.706  0.00  0.00    +0.000 N 
ATOM     14  H   UNL     1       7.159   2.948  15.098  0.00  0.00    +0.000 HD
ATOM     15  H   UNL     1       5.985   2.392  16.891  0.00  0.00    +0.000 HD
BRANCH  10  16
ATOM     16  C   UNL     1       6.909   4.678  13.866  0.00  0.00    +0.000 C 
BRANCH  16  17
ATOM     17  C   UNL     1       6.810   4.114  12.445  0.00  0.00    +0.000 C 
BRANCH  17  18
ATOM     18  C   UNL     1       6.236   2.693  12.437  0.00  0.00    +0.000 C 
BRANCH  18  19
ATOM     19  C   UNL     1       5.236   2.492  11.298  0.00  0.00    +0.000 C 
BRANCH  19  21
ATOM     20  C   UNL     1       3.052   3.267  10.312  0.00  0.00    +0.000 C 
ATOM     21  C   UNL     1       4.197   3.614  11.250  0.00  0.00    +0.000 C 
ENDBRANCH  19  21
ENDBRANCH  18  19
ENDBRANCH  17  18
ENDBRANCH  16  17
ENDBRANCH  10  16
ENDBRANCH   1  13
BRANCH   7  22
ATOM     22  C   UNL     1       2.868   7.135  19.741  0.00  0.00    +0.000 C 
BRANCH  22  23
ATOM     23  C   UNL     1       1.753   8.136  19.521  0.00  0.00    +0.000 A 
ATOM     24  C   UNL     1       1.592   8.619  18.202  0.00  0.00    +0.000 A 
ATOM     25  C   UNL     1       0.824   9.740  17.911  0.00  0.00    +0.000 A 
ATOM     26  C   UNL     1       0.124  10.376  18.922  0.00  0.00    +0.000 A 
ATOM     27  C   UNL     1       0.114   9.813  20.198  0.00  0.00    +0.000 A 
ATOM     28  C   UNL     1       0.939   8.707  20.520  0.00  0.00    +0.000 A 
BRANCH  26  29
ATOM     29  C   UNL     1      -0.498  11.685  18.573  0.00  0.00    +0.000 C 
ATOM     30  O   UNL     1      -1.589  11.765  18.054  0.00  0.00    +0.000 OA
BRANCH  29  31
ATOM     31  O   UNL     1       0.308  12.759  18.738  0.00  0.00    +0.000 OA
ATOM     32  H   UNL     1       0.502  13.304  17.962  0.00  0.00    +0.000 HD
ENDBRANCH  29  31
ENDBRANCH  26  29
BRANCH  28  33
ATOM     33  O   UNL     1       0.828   8.422  21.851  0.00  0.00    +0.000 OA
ATOM     34  C   UNL     1       0.871   9.430  22.843  0.00  0.00    +0.000 C 
ENDBRANCH  28  33
ENDBRANCH  22  23
ENDBRANCH   7  22
TORSDOF 11
ENDMDL
MODEL 7
REMARK VINA RESULT:      -7.5      2.796      9.081
REMARK  Name = 
REMARK  13 active torsions:
REMARK  status: ('A' for Active; 'I' for Inactive)
REMARK    1  A    between atoms: C_1  and  C_2
REMARK    2  A    between atoms: C_2  and  C_3
REMARK    3  A    between atoms: C_3  and  C_4
REMARK    4  A    between atoms: C_4  and  C_5
REMARK    5  A    between atoms: C_5  and  C_6
REMARK    6  A    between atoms: C_6  and  N_7
REMARK    7  A    between atoms: N_10  and  C_11
REMARK    8  A    between atoms: N_17  and  C_18
REMARK    9  A    between atoms: C_18  and  C_19
REMARK   10  A    between atoms: C_22  and  C_23
REMARK   11  A    between atoms: C_23  and  O_25
REMARK   12  A    between atoms: C_27  and  O_28
REMARK   13  A    between atoms: O_28  and  C_29
REMARK                            x       y       z     vdW  Elec       q    Type
REMARK                         _______ _______ _______ _____ _____    ______ ____
ROOT
ATOM      1  C   UNL     1       2.077   6.756  19.101  0.00  0.00    +0.000 A 
ATOM      2  C   UNL     1       1.621   6.488  20.390  0.00  0.00    +0.000 A 
ATOM      3  C   UNL     1       1.824   5.248  20.994  0.00  0.00    +0.000 A 
ATOM      4  C   UNL     1       2.558   4.257  20.323  0.00  0.00    +0.000 A 
ATOM      5  C   UNL     1       2.951   2.944  20.682  0.00  0.00    +0.000 A 
ATOM      6  C   UNL     1       3.731   2.453  19.671  0.00  0.00    +0.000 A 
ATOM      7  N   UNL     1       3.850   3.434  18.703  0.00  0.00    +0.000 N 
ATOM      8  C   UNL     1       3.039   4.518  19.031  0.00  0.00    +0.000 A 
ATOM      9  C   UNL     1       2.705   5.726  18.363  0.00  0.00    +0.000 A 
ENDROOT
BRANCH   1  13
ATOM     10  N   UNL     1       1.305  10.264  18.375  0.00  0.00    +0.000 N 
ATOM     11  C   UNL     1       1.301   9.105  19.115  0.00  0.00    +0.000 C 
ATOM     12  O   UNL     1       0.705   9.057  20.176  0.00  0.00    +0.000 OA
ATOM     13  N   UNL     1       1.987   8.058  18.522  0.00  0.00    +0.000 N 
ATOM     14  H   UNL     1       1.955  10.384  17.619  0.00  0.00    +0.000 HD
ATOM     15  H   UNL     1       2.681   8.303  17.838  0.00  0.00    +0.000 HD
BRANCH  10  16
ATOM     16  C   UNL     1       0.604  11.431  18.904  0.00  0.00    +0.000 C 
BRANCH  16  17
ATOM     17  C   UNL     1      -0.911  11.378  18.683  0.00  0.00    +0.000 C 
BRANCH  17  18
ATOM     18  C   UNL     1      -1.287  10.415  17.552  0.00  0.00    +0.000 C 
BRANCH  18  19
ATOM     19  C   UNL     1      -2.791  10.418  17.281  0.00  0.00    +0.000 C 
BRANCH  19  21
ATOM     20  C   UNL     1      -2.933  10.027  14.796  0.00  0.00    +0.000 C 
ATOM     21  C   UNL     1      -3.121  11.035  15.919  0.00  0.00    +0.000 C 
ENDBRANCH  19  21
ENDBRANCH  18  19
ENDBRANCH  17  18
ENDBRANCH  16  17
ENDBRANCH  10  16
ENDBRANCH   1  13
BRANCH   7  22
ATOM     22  C   UNL     1       4.815   3.295  17.591  0.00  0.00    +0.000 C 
BRANCH  22  23
ATOM     23  C   UNL     1       5.848   4.398  17.490  0.00  0.00    +0.000 A 
ATOM     24  C   UNL     1       6.520   4.742  18.685  0.00  0.00    +0.000 A 
ATOM     25  C   UNL     1       7.262   5.911  18.809  0.00  0.00    +0.000 A 
ATOM     26  C   UNL     1       7.425   6.743  17.714  0.00  0.00    +0.000 A 
ATOM     27  C   UNL     1       6.931   6.336  16.475  0.00  0.00    +0.000 A 
ATOM     28  C   UNL     1       6.124   5.179  16.349  0.00  0.00    +0.000 A 
BRANCH  26  29
ATOM     29  C   UNL     1       8.047   8.071  17.980  0.00  0.00    +0.000 C 
ATOM     30  O   UNL     1       7.942   8.999  17.210  0.00  0.00    +0.000 OA
BRANCH  29  31
ATOM     31  O   UNL     1       8.857   8.112  19.062  0.00  0.00    +0.000 OA
ATOM     32  H   UNL     1       8.462   7.949  19.931  0.00  0.00    +0.000 HD
ENDBRANCH  29  31
ENDBRANCH  26  29
BRANCH  28  33
ATOM     33  O   UNL     1       5.679   5.065  15.062  0.00  0.00    +0.000 OA
ATOM     34  C   UNL     1       6.448   4.442  14.051  0.00  0.00    +0.000 C 
ENDBRANCH  28  33
ENDBRANCH  22  23
ENDBRANCH   7  22
TORSDOF 11
ENDMDL
MODEL 8
REMARK VINA RESULT:      -7.5      2.215      4.149
REMARK  Name = 
REMARK  13 active torsions:
REMARK  status: ('A' for Active; 'I' for Inactive)
REMARK    1  A    between atoms: C_1  and  C_2
REMARK    2  A    between atoms: C_2  and  C_3
REMARK    3  A    between atoms: C_3  and  C_4
REMARK    4  A    between atoms: C_4  and  C_5
REMARK    5  A    between atoms: C_5  and  C_6
REMARK    6  A    between atoms: C_6  and  N_7
REMARK    7  A    between atoms: N_10  and  C_11
REMARK    8  A    between atoms: N_17  and  C_18
REMARK    9  A    between atoms: C_18  and  C_19
REMARK   10  A    between atoms: C_22  and  C_23
REMARK   11  A    between atoms: C_23  and  O_25
REMARK   12  A    between atoms: C_27  and  O_28
REMARK   13  A    between atoms: O_28  and  C_29
REMARK                            x       y       z     vdW  Elec       q    Type
REMARK                         _______ _______ _______ _____ _____    ______ ____
ROOT
ATOM      1  C   UNL     1       4.534   3.424  17.611  0.00  0.00    +0.000 A 
ATOM      2  C   UNL     1       3.602   2.509  17.125  0.00  0.00    +0.000 A 
ATOM      3  C   UNL     1       2.345   2.365  17.711  0.00  0.00    +0.000 A 
ATOM      4  C   UNL     1       1.974   3.199  18.778  0.00  0.00    +0.000 A 
ATOM      5  C   UNL     1       0.783   3.313  19.538  0.00  0.00    +0.000 A 
ATOM      6  C   UNL     1       0.945   4.359  20.407  0.00  0.00    +0.000 A 
ATOM      7  N   UNL     1       2.196   4.909  20.192  0.00  0.00    +0.000 N 
ATOM      8  C   UNL     1       2.896   4.137  19.267  0.00  0.00    +0.000 A 
ATOM      9  C   UNL     1       4.223   4.179  18.765  0.00  0.00    +0.000 A 
ENDROOT
BRANCH   1  13
ATOM     10  N   UNL     1       7.163   4.581  15.334  0.00  0.00    +0.000 N 
ATOM     11  C   UNL     1       5.891   4.514  15.852  0.00  0.00    +0.000 C 
ATOM     12  O   UNL     1       4.985   5.143  15.336  0.00  0.00    +0.000 OA
ATOM     13  N   UNL     1       5.772   3.668  16.943  0.00  0.00    +0.000 N 
ATOM     14  H   UNL     1       7.947   4.245  15.864  0.00  0.00    +0.000 HD
ATOM     15  H   UNL     1       6.614   3.471  17.454  0.00  0.00    +0.000 HD
BRANCH  10  16
ATOM     16  C   UNL     1       7.399   5.438  14.176  0.00  0.00    +0.000 C 
BRANCH  16  17
ATOM     17  C   UNL     1       8.046   4.701  12.999  0.00  0.00    +0.000 C 
BRANCH  17  18
ATOM     18  C   UNL     1       7.037   4.430  11.877  0.00  0.00    +0.000 C 
BRANCH  18  19
ATOM     19  C   UNL     1       6.262   3.134  12.112  0.00  0.00    +0.000 C 
BRANCH  19  21
ATOM     20  C   UNL     1       3.988   3.237  11.033  0.00  0.00    +0.000 C 
ATOM     21  C   UNL     1       4.770   3.397  12.327  0.00  0.00    +0.000 C 
ENDBRANCH  19  21
ENDBRANCH  18  19
ENDBRANCH  17  18
ENDBRANCH  16  17
ENDBRANCH  10  16
ENDBRANCH   1  13
BRANCH   7  22
ATOM     22  C   UNL     1       2.581   6.194  20.814  0.00  0.00    +0.000 C 
BRANCH  22  23
ATOM     23  C   UNL     1       2.085   7.433  20.099  0.00  0.00    +0.000 A 
ATOM     24  C   UNL     1       1.285   8.319  20.857  0.00  0.00    +0.000 A 
ATOM     25  C   UNL     1       0.526   9.323  20.268  0.00  0.00    +0.000 A 
ATOM     26  C   UNL     1       0.599   9.528  18.900  0.00  0.00    +0.000 A 
ATOM     27  C   UNL     1       1.519   8.794  18.153  0.00  0.00    +0.000 A 
ATOM     28  C   UNL     1       2.254   7.729  18.731  0.00  0.00    +0.000 A 
BRANCH  26  29
ATOM     29  C   UNL     1      -0.397  10.473  18.319  0.00  0.00    +0.000 C 
ATOM     30  O   UNL     1      -0.665  11.532  18.842  0.00  0.00    +0.000 OA
BRANCH  29  31
ATOM     31  O   UNL     1      -1.084   9.992  17.259  0.00  0.00    +0.000 OA
ATOM     32  H   UNL     1      -1.164  10.557  16.476  0.00  0.00    +0.000 HD
ENDBRANCH  29  31
ENDBRANCH  26  29
BRANCH  28  33
ATOM     33  O   UNL     1       2.994   7.104  17.769  0.00  0.00    +0.000 OA
ATOM     34  C   UNL     1       4.309   7.514  17.445  0.00  0.00    +0.000 C 
ENDBRANCH  28  33
ENDBRANCH  22  23
ENDBRANCH   7  22
TORSDOF 11
ENDMDL
MODEL 9
REMARK VINA RESULT:      -7.4      1.774      3.306
REMARK  Name = 
REMARK  13 active torsions:
REMARK  status: ('A' for Active; 'I' for Inactive)
REMARK    1  A    between atoms: C_1  and  C_2
REMARK    2  A    between atoms: C_2  and  C_3
REMARK    3  A    between atoms: C_3  and  C_4
REMARK    4  A    between atoms: C_4  and  C_5
REMARK    5  A    between atoms: C_5  and  C_6
REMARK    6  A    between atoms: C_6  and  N_7
REMARK    7  A    between atoms: N_10  and  C_11
REMARK    8  A    between atoms: N_17  and  C_18
REMARK    9  A    between atoms: C_18  and  C_19
REMARK   10  A    between atoms: C_22  and  C_23
REMARK   11  A    between atoms: C_23  and  O_25
REMARK   12  A    between atoms: C_27  and  O_28
REMARK   13  A    between atoms: O_28  and  C_29
REMARK                            x       y       z     vdW  Elec       q    Type
REMARK                         _______ _______ _______ _____ _____    ______ ____
ROOT
ATOM      1  C   UNL     1       3.646   4.906  17.983  0.00  0.00    +0.000 A 
ATOM      2  C   UNL     1       3.361   4.278  19.194  0.00  0.00    +0.000 A 
ATOM      3  C   UNL     1       2.741   4.957  20.243  0.00  0.00    +0.000 A 
ATOM      4  C   UNL     1       2.333   6.288  20.066  0.00  0.00    +0.000 A 
ATOM      5  C   UNL     1       1.665   7.209  20.912  0.00  0.00    +0.000 A 
ATOM      6  C   UNL     1       1.446   8.351  20.190  0.00  0.00    +0.000 A 
ATOM      7  N   UNL     1       1.942   8.157  18.914  0.00  0.00    +0.000 N 
ATOM      8  C   UNL     1       2.597   6.930  18.846  0.00  0.00    +0.000 A 
ATOM      9  C   UNL     1       3.358   6.283  17.836  0.00  0.00    +0.000 A 
ENDROOT
BRANCH   1  13
ATOM     10  N   UNL     1       5.542   3.820  15.042  0.00  0.00    +0.000 N 
ATOM     11  C   UNL     1       5.226   4.641  16.099  0.00  0.00    +0.000 C 
ATOM     12  O   UNL     1       5.844   5.675  16.278  0.00  0.00    +0.000 OA
ATOM     13  N   UNL     1       4.162   4.190  16.862  0.00  0.00    +0.000 N 
ATOM     14  H   UNL     1       5.193   2.879  15.006  0.00  0.00    +0.000 HD
ATOM     15  H   UNL     1       3.958   3.208  16.814  0.00  0.00    +0.000 HD
BRANCH  10  16
ATOM     16  C   UNL     1       6.645   4.205  14.166  0.00  0.00    +0.000 C 
BRANCH  16  17
ATOM     17  C   UNL     1       6.440   3.777  12.709  0.00  0.00    +0.000 C 
BRANCH  17  18
ATOM     18  C   UNL     1       4.965   3.844  12.301  0.00  0.00    +0.000 C 
BRANCH  18  19
ATOM     19  C   UNL     1       4.635   2.836  11.199  0.00  0.00    +0.000 C 
BRANCH  19  21
ATOM     20  C   UNL     1       3.074   4.174   9.744  0.00  0.00    +0.000 C 
ATOM     21  C   UNL     1       3.198   2.995  10.696  0.00  0.00    +0.000 C 
ENDBRANCH  19  21
ENDBRANCH  18  19
ENDBRANCH  17  18
ENDBRANCH  16  17
ENDBRANCH  10  16
ENDBRANCH   1  13
BRANCH   7  22
ATOM     22  C   UNL     1       1.655   9.121  17.830  0.00  0.00    +0.000 C 
BRANCH  22  23
ATOM     23  C   UNL     1       1.197  10.490  18.286  0.00  0.00    +0.000 A 
ATOM     24  C   UNL     1       2.199  11.479  18.411  0.00  0.00    +0.000 A 
ATOM     25  C   UNL     1       1.984  12.672  19.092  0.00  0.00    +0.000 A 
ATOM     26  C   UNL     1       0.730  12.955  19.606  0.00  0.00    +0.000 A 
ATOM     27  C   UNL     1      -0.325  12.084  19.336  0.00  0.00    +0.000 A 
ATOM     28  C   UNL     1      -0.106  10.839  18.696  0.00  0.00    +0.000 A 
BRANCH  26  29
ATOM     29  C   UNL     1       0.634  14.144  20.499  0.00  0.00    +0.000 C 
ATOM     30  O   UNL     1       0.432  15.259  20.072  0.00  0.00    +0.000 OA
BRANCH  29  31
ATOM     31  O   UNL     1       0.941  13.907  21.795  0.00  0.00    +0.000 OA
ATOM     32  H   UNL     1       0.970  14.663  22.400  0.00  0.00    +0.000 HD
ENDBRANCH  29  31
ENDBRANCH  26  29
BRANCH  28  33
ATOM     33  O   UNL     1      -1.273  10.131  18.653  0.00  0.00    +0.000 OA
ATOM     34  C   UNL     1      -2.097  10.106  17.502  0.00  0.00    +0.000 C 
ENDBRANCH  28  33
ENDBRANCH  22  23
ENDBRANCH   7  22
TORSDOF 11
ENDMDL
