MODEL 1
REMARK VINA RESULT:      -9.3      0.000      0.000
REMARK  Name = 
REMARK  8 active torsions:
REMARK  status: ('A' for Active; 'I' for Inactive)
REMARK    1  A    between atoms: C_1  and  O_2
REMARK    2  A    between atoms: O_2  and  C_3
REMARK    3  A    between atoms: C_7  and  C_8
REMARK    4  A    between atoms: C_8  and  N_9
REMARK    5  A    between atoms: C_14  and  C_15
REMARK    6  A    between atoms: N_20  and  C_21
REMARK    7  A    between atoms: C_23  and  C_24
REMARK    8  A    between atoms: C_27  and  C_28
REMARK                            x       y       z     vdW  Elec       q    Type
REMARK                         _______ _______ _______ _____ _____    ______ ____
ROOT
ATOM      1  N   UNL     1       6.798   5.166  14.966  0.00  0.00    +0.000 N 
ATOM      2  N   UNL     1       7.605   6.109  15.525  0.00  0.00    +0.000 NA
ATOM      3  N   UNL     1       7.127   6.457  16.703  0.00  0.00    +0.000 NA
ATOM      4  C   UNL     1       6.048   5.683  16.952  0.00  0.00    +0.000 A 
ATOM      5  C   UNL     1       5.218   5.725  18.094  0.00  0.00    +0.000 A 
ATOM      6  C   UNL     1       4.074   4.921  18.259  0.00  0.00    +0.000 A 
ATOM      7  C   UNL     1       3.852   3.979  17.243  0.00  0.00    +0.000 A 
ATOM      8  C   UNL     1       4.714   3.881  16.056  0.00  0.00    +0.000 A 
ATOM      9  C   UNL     1       5.800   4.795  15.897  0.00  0.00    +0.000 A 
ENDROOT
BRANCH   6  10
ATOM     10  C   UNL     1       3.137   5.450  19.343  0.00  0.00    +0.000 C 
ATOM     11  O   UNL     1       3.076   4.705  20.334  0.00  0.00    +0.000 OA
ATOM     12  N   UNL     1       2.352   6.614  19.353  0.00  0.00    +0.000 N 
ATOM     13  C   UNL     1       1.432   6.813  20.512  0.00  0.00    +0.000 C 
ATOM     14  C   UNL     1       1.399   8.272  21.026  0.00  0.00    +0.000 C 
ATOM     15  N   UNL     1       1.088   9.186  19.906  0.00  0.00    +0.000 N 
ATOM     16  C   UNL     1       2.038   9.020  18.778  0.00  0.00    +0.000 C 
ATOM     17  C   UNL     1       2.049   7.546  18.260  0.00  0.00    +0.000 C 
BRANCH  15  18
ATOM     18  C   UNL     1       0.145  10.205  20.049  0.00  0.00    +0.000 A 
ATOM     19  C   UNL     1       0.028  10.917  21.277  0.00  0.00    +0.000 A 
ATOM     20  C   UNL     1      -0.983  11.870  21.543  0.00  0.00    +0.000 A 
ATOM     21  C   UNL     1      -1.144  12.512  22.895  0.00  0.00    +0.000 C 
ATOM     22  C   UNL     1      -1.888  12.187  20.540  0.00  0.00    +0.000 A 
ATOM     23  C   UNL     1      -1.794  11.548  19.314  0.00  0.00    +0.000 A 
ATOM     24  C   UNL     1      -0.813  10.548  19.061  0.00  0.00    +0.000 A 
ATOM     25  C   UNL     1      -0.927   9.868  17.723  0.00  0.00    +0.000 C 
ENDBRANCH  15  18
ENDBRANCH   6  10
BRANCH   1  26
ATOM     26  C   UNL     1       7.299   4.662  13.657  0.00  0.00    +0.000 C 
BRANCH  26  31
ATOM     27  C   UNL     1       5.994   1.769  11.346  0.00  0.00    +0.000 A 
ATOM     28  C   UNL     1       4.675   2.164  11.133  0.00  0.00    +0.000 A 
ATOM     29  C   UNL     1       4.212   3.361  11.668  0.00  0.00    +0.000 A 
ATOM     30  C   UNL     1       5.047   4.154  12.467  0.00  0.00    +0.000 A 
ATOM     31  C   UNL     1       6.364   3.772  12.776  0.00  0.00    +0.000 A 
ATOM     32  C   UNL     1       6.839   2.569  12.149  0.00  0.00    +0.000 A 
BRANCH  27  34
ATOM     33  C   UNL     1       6.044  -0.637  11.344  0.00  0.00    +0.000 C 
ATOM     34  O   UNL     1       6.280   0.600  10.694  0.00  0.00    +0.000 OA
ENDBRANCH  27  34
ENDBRANCH  26  31
ENDBRANCH   1  26
TORSDOF 5
ENDMDL
MODEL 2
REMARK VINA RESULT:      -8.9      3.740      6.237
REMARK  Name = 
REMARK  8 active torsions:
REMARK  status: ('A' for Active; 'I' for Inactive)
REMARK    1  A    between atoms: C_1  and  O_2
REMARK    2  A    between atoms: O_2  and  C_3
REMARK    3  A    between atoms: C_7  and  C_8
REMARK    4  A    between atoms: C_8  and  N_9
REMARK    5  A    between atoms: C_14  and  C_15
REMARK    6  A    between atoms: N_20  and  C_21
REMARK    7  A    between atoms: C_23  and  C_24
REMARK    8  A    between atoms: C_27  and  C_28
REMARK                            x       y       z     vdW  Elec       q    Type
REMARK                         _______ _______ _______ _____ _____    ______ ____
ROOT
ATOM      1  N   UNL     1       2.839   5.234  19.147  0.00  0.00    +0.000 N 
ATOM      2  N   UNL     1       2.492   4.756  20.374  0.00  0.00    +0.000 NA
ATOM      3  N   UNL     1       1.940   5.720  21.082  0.00  0.00    +0.000 NA
ATOM      4  C   UNL     1       1.851   6.811  20.291  0.00  0.00    +0.000 A 
ATOM      5  C   UNL     1       1.336   8.078  20.646  0.00  0.00    +0.000 A 
ATOM      6  C   UNL     1       1.327   9.189  19.780  0.00  0.00    +0.000 A 
ATOM      7  C   UNL     1       1.781   8.936  18.476  0.00  0.00    +0.000 A 
ATOM      8  C   UNL     1       2.291   7.621  18.060  0.00  0.00    +0.000 A 
ATOM      9  C   UNL     1       2.371   6.562  19.014  0.00  0.00    +0.000 A 
ENDROOT
BRANCH   6  10
ATOM     10  C   UNL     1       1.127  10.509  20.522  0.00  0.00    +0.000 C 
ATOM     11  O   UNL     1       1.158  10.378  21.755  0.00  0.00    +0.000 OA
ATOM     12  N   UNL     1       0.901  11.796  20.007  0.00  0.00    +0.000 N 
ATOM     13  C   UNL     1       0.618  12.887  20.986  0.00  0.00    +0.000 C 
ATOM     14  C   UNL     1       1.328  14.218  20.643  0.00  0.00    +0.000 C 
ATOM     15  N   UNL     1       0.996  14.615  19.257  0.00  0.00    +0.000 N 
ATOM     16  C   UNL     1       1.327  13.546  18.282  0.00  0.00    +0.000 C 
ATOM     17  C   UNL     1       0.593  12.212  18.634  0.00  0.00    +0.000 C 
BRANCH  15  18
ATOM     18  C   UNL     1       0.629  15.926  18.951  0.00  0.00    +0.000 A 
ATOM     19  C   UNL     1      -0.697  16.385  19.199  0.00  0.00    +0.000 A 
ATOM     20  C   UNL     1      -1.180  17.652  18.801  0.00  0.00    +0.000 A 
ATOM     21  C   UNL     1      -2.621  18.052  18.974  0.00  0.00    +0.000 C 
ATOM     22  C   UNL     1      -0.310  18.540  18.184  0.00  0.00    +0.000 A 
ATOM     23  C   UNL     1       1.002  18.155  17.953  0.00  0.00    +0.000 A 
ATOM     24  C   UNL     1       1.477  16.860  18.302  0.00  0.00    +0.000 A 
ATOM     25  C   UNL     1       2.888  16.562  17.871  0.00  0.00    +0.000 C 
ENDBRANCH  15  18
ENDBRANCH   6  10
BRANCH   1  26
ATOM     26  C   UNL     1       3.412   4.193  18.248  0.00  0.00    +0.000 C 
BRANCH  26  31
ATOM     27  C   UNL     1       6.526   6.071  16.768  0.00  0.00    +0.000 A 
ATOM     28  C   UNL     1       6.867   5.237  15.705  0.00  0.00    +0.000 A 
ATOM     29  C   UNL     1       6.091   4.119  15.421  0.00  0.00    +0.000 A 
ATOM     30  C   UNL     1       4.994   3.790  16.228  0.00  0.00    +0.000 A 
ATOM     31  C   UNL     1       4.643   4.553  17.355  0.00  0.00    +0.000 A 
ATOM     32  C   UNL     1       5.417   5.743  17.582  0.00  0.00    +0.000 A 
BRANCH  27  34
ATOM     33  C   UNL     1       7.957   7.475  18.099  0.00  0.00    +0.000 C 
ATOM     34  O   UNL     1       7.368   7.147  16.853  0.00  0.00    +0.000 OA
ENDBRANCH  27  34
ENDBRANCH  26  31
ENDBRANCH   1  26
TORSDOF 5
ENDMDL
MODEL 3
REMARK VINA RESULT:      -8.8      3.619      5.791
REMARK  Name = 
REMARK  8 active torsions:
REMARK  status: ('A' for Active; 'I' for Inactive)
REMARK    1  A    between atoms: C_1  and  O_2
REMARK    2  A    between atoms: O_2  and  C_3
REMARK    3  A    between atoms: C_7  and  C_8
REMARK    4  A    between atoms: C_8  and  N_9
REMARK    5  A    between atoms: C_14  and  C_15
REMARK    6  A    between atoms: N_20  and  C_21
REMARK    7  A    between atoms: C_23  and  C_24
REMARK    8  A    between atoms: C_27  and  C_28
REMARK                            x       y       z     vdW  Elec       q    Type
REMARK                         _______ _______ _______ _____ _____    ______ ____
ROOT
ATOM      1  N   UNL     1       2.973   4.947  19.334  0.00  0.00    +0.000 N 
ATOM      2  N   UNL     1       2.529   4.471  20.529  0.00  0.00    +0.000 NA
ATOM      3  N   UNL     1       1.924   5.435  21.192  0.00  0.00    +0.000 NA
ATOM      4  C   UNL     1       1.900   6.526  20.396  0.00  0.00    +0.000 A 
ATOM      5  C   UNL     1       1.359   7.794  20.708  0.00  0.00    +0.000 A 
ATOM      6  C   UNL     1       1.420   8.904  19.845  0.00  0.00    +0.000 A 
ATOM      7  C   UNL     1       1.975   8.650  18.581  0.00  0.00    +0.000 A 
ATOM      8  C   UNL     1       2.516   7.335  18.207  0.00  0.00    +0.000 A 
ATOM      9  C   UNL     1       2.518   6.276  19.164  0.00  0.00    +0.000 A 
ENDROOT
BRANCH   6  10
ATOM     10  C   UNL     1       1.163  10.225  20.568  0.00  0.00    +0.000 C 
ATOM     11  O   UNL     1       1.092  10.094  21.800  0.00  0.00    +0.000 OA
ATOM     12  N   UNL     1       0.983  11.512  20.037  0.00  0.00    +0.000 N 
ATOM     13  C   UNL     1       0.624  12.604  20.990  0.00  0.00    +0.000 C 
ATOM     14  C   UNL     1       1.362  13.933  20.706  0.00  0.00    +0.000 C 
ATOM     15  N   UNL     1       1.146  14.331  19.298  0.00  0.00    +0.000 N 
ATOM     16  C   UNL     1       1.553  13.261  18.354  0.00  0.00    +0.000 C 
ATOM     17  C   UNL     1       0.789  11.929  18.644  0.00  0.00    +0.000 C 
BRANCH  15  18
ATOM     18  C   UNL     1       0.809  15.643  18.964  0.00  0.00    +0.000 A 
ATOM     19  C   UNL     1      -0.498  16.145  19.226  0.00  0.00    +0.000 A 
ATOM     20  C   UNL     1      -0.955  17.415  18.803  0.00  0.00    +0.000 A 
ATOM     21  C   UNL     1      -2.381  17.859  18.995  0.00  0.00    +0.000 C 
ATOM     22  C   UNL     1      -0.074  18.260  18.144  0.00  0.00    +0.000 A 
ATOM     23  C   UNL     1       1.221  17.833  17.897  0.00  0.00    +0.000 A 
ATOM     24  C   UNL     1       1.668  16.535  18.271  0.00  0.00    +0.000 A 
ATOM     25  C   UNL     1       3.061  16.186  17.820  0.00  0.00    +0.000 C 
ENDBRANCH  15  18
ENDBRANCH   6  10
BRANCH   1  26
ATOM     26  C   UNL     1       3.615   3.906  18.484  0.00  0.00    +0.000 C 
BRANCH  26  31
ATOM     27  C   UNL     1       6.055   4.694  15.511  0.00  0.00    +0.000 A 
ATOM     28  C   UNL     1       7.255   4.894  16.190  0.00  0.00    +0.000 A 
ATOM     29  C   UNL     1       7.311   4.730  17.569  0.00  0.00    +0.000 A 
ATOM     30  C   UNL     1       6.155   4.414  18.295  0.00  0.00    +0.000 A 
ATOM     31  C   UNL     1       4.902   4.270  17.676  0.00  0.00    +0.000 A 
ATOM     32  C   UNL     1       4.887   4.371  16.242  0.00  0.00    +0.000 A 
BRANCH  27  34
ATOM     33  C   UNL     1       6.194   3.694  13.326  0.00  0.00    +0.000 C 
ATOM     34  O   UNL     1       6.210   4.841  14.159  0.00  0.00    +0.000 OA
ENDBRANCH  27  34
ENDBRANCH  26  31
ENDBRANCH   1  26
TORSDOF 5
ENDMDL
MODEL 4
REMARK VINA RESULT:      -8.7      3.288      5.815
REMARK  Name = 
REMARK  8 active torsions:
REMARK  status: ('A' for Active; 'I' for Inactive)
REMARK    1  A    between atoms: C_1  and  O_2
REMARK    2  A    between atoms: O_2  and  C_3
REMARK    3  A    between atoms: C_7  and  C_8
REMARK    4  A    between atoms: C_8  and  N_9
REMARK    5  A    between atoms: C_14  and  C_15
REMARK    6  A    between atoms: N_20  and  C_21
REMARK    7  A    between atoms: C_23  and  C_24
REMARK    8  A    between atoms: C_27  and  C_28
REMARK                            x       y       z     vdW  Elec       q    Type
REMARK                         _______ _______ _______ _____ _____    ______ ____
ROOT
ATOM      1  N   UNL     1       3.034   4.649  19.265  0.00  0.00    +0.000 N 
ATOM      2  N   UNL     1       2.598   4.099  20.432  0.00  0.00    +0.000 NA
ATOM      3  N   UNL     1       1.981   5.016  21.149  0.00  0.00    +0.000 NA
ATOM      4  C   UNL     1       1.942   6.150  20.418  0.00  0.00    +0.000 A 
ATOM      5  C   UNL     1       1.386   7.391  20.803  0.00  0.00    +0.000 A 
ATOM      6  C   UNL     1       1.432   8.550  20.005  0.00  0.00    +0.000 A 
ATOM      7  C   UNL     1       1.988   8.376  18.729  0.00  0.00    +0.000 A 
ATOM      8  C   UNL     1       2.545   7.092  18.278  0.00  0.00    +0.000 A 
ATOM      9  C   UNL     1       2.562   5.979  19.173  0.00  0.00    +0.000 A 
ENDROOT
BRANCH   6  10
ATOM     10  C   UNL     1       1.159   9.823  20.804  0.00  0.00    +0.000 C 
ATOM     11  O   UNL     1       1.494   9.726  21.995  0.00  0.00    +0.000 OA
ATOM     12  N   UNL     1       0.581  11.033  20.384  0.00  0.00    +0.000 N 
ATOM     13  C   UNL     1       0.328  12.070  21.427  0.00  0.00    +0.000 C 
ATOM     14  C   UNL     1       0.674  13.505  20.963  0.00  0.00    +0.000 C 
ATOM     15  N   UNL     1      -0.034  13.802  19.698  0.00  0.00    +0.000 N 
ATOM     16  C   UNL     1       0.264  12.795  18.649  0.00  0.00    +0.000 C 
ATOM     17  C   UNL     1      -0.104  11.354  19.127  0.00  0.00    +0.000 C 
BRANCH  15  18
ATOM     18  C   UNL     1      -0.703  15.013  19.515  0.00  0.00    +0.000 A 
ATOM     19  C   UNL     1      -0.251  15.950  18.542  0.00  0.00    +0.000 A 
ATOM     20  C   UNL     1      -0.792  17.247  18.385  0.00  0.00    +0.000 A 
ATOM     21  C   UNL     1      -0.207  18.250  17.426  0.00  0.00    +0.000 C 
ATOM     22  C   UNL     1      -1.868  17.626  19.176  0.00  0.00    +0.000 A 
ATOM     23  C   UNL     1      -2.368  16.736  20.113  0.00  0.00    +0.000 A 
ATOM     24  C   UNL     1      -1.790  15.451  20.313  0.00  0.00    +0.000 A 
ATOM     25  C   UNL     1      -2.375  14.660  21.451  0.00  0.00    +0.000 C 
ENDBRANCH  15  18
ENDBRANCH   6  10
BRANCH   1  26
ATOM     26  C   UNL     1       3.688   3.667  18.356  0.00  0.00    +0.000 C 
BRANCH  26  31
ATOM     27  C   UNL     1       6.796   5.514  16.826  0.00  0.00    +0.000 A 
ATOM     28  C   UNL     1       6.718   5.119  15.493  0.00  0.00    +0.000 A 
ATOM     29  C   UNL     1       5.664   4.320  15.063  0.00  0.00    +0.000 A 
ATOM     30  C   UNL     1       4.702   3.862  15.973  0.00  0.00    +0.000 A 
ATOM     31  C   UNL     1       4.767   4.168  17.343  0.00  0.00    +0.000 A 
ATOM     32  C   UNL     1       5.824   5.056  17.746  0.00  0.00    +0.000 A 
BRANCH  27  34
ATOM     33  C   UNL     1       7.773   7.350  18.038  0.00  0.00    +0.000 C 
ATOM     34  O   UNL     1       7.863   6.343  17.044  0.00  0.00    +0.000 OA
ENDBRANCH  27  34
ENDBRANCH  26  31
ENDBRANCH   1  26
TORSDOF 5
ENDMDL
MODEL 5
REMARK VINA RESULT:      -8.6      3.479      6.301
REMARK  Name = 
REMARK  8 active torsions:
REMARK  status: ('A' for Active; 'I' for Inactive)
REMARK    1  A    between atoms: C_1  and  O_2
REMARK    2  A    between atoms: O_2  and  C_3
REMARK    3  A    between atoms: C_7  and  C_8
REMARK    4  A    between atoms: C_8  and  N_9
REMARK    5  A    between atoms: C_14  and  C_15
REMARK    6  A    between atoms: N_20  and  C_21
REMARK    7  A    between atoms: C_23  and  C_24
REMARK    8  A    between atoms: C_27  and  C_28
REMARK                            x       y       z     vdW  Elec       q    Type
REMARK                         _______ _______ _______ _____ _____    ______ ____
ROOT
ATOM      1  N   UNL     1       2.745   6.102  19.495  0.00  0.00    +0.000 N 
ATOM      2  N   UNL     1       2.097   5.941  20.681  0.00  0.00    +0.000 NA
ATOM      3  N   UNL     1       1.458   7.050  20.989  0.00  0.00    +0.000 NA
ATOM      4  C   UNL     1       1.620   7.915  19.965  0.00  0.00    +0.000 A 
ATOM      5  C   UNL     1       1.117   9.232  19.877  0.00  0.00    +0.000 A 
ATOM      6  C   UNL     1       1.375  10.097  18.796  0.00  0.00    +0.000 A 
ATOM      7  C   UNL     1       2.099   9.531  17.736  0.00  0.00    +0.000 A 
ATOM      8  C   UNL     1       2.609   8.154  17.776  0.00  0.00    +0.000 A 
ATOM      9  C   UNL     1       2.402   7.359  18.944  0.00  0.00    +0.000 A 
ENDROOT
BRANCH   6  10
ATOM     10  C   UNL     1       1.091  11.560  19.135  0.00  0.00    +0.000 C 
ATOM     11  O   UNL     1       1.625  12.351  18.343  0.00  0.00    +0.000 OA
ATOM     12  N   UNL     1       0.350  12.101  20.199  0.00  0.00    +0.000 N 
ATOM     13  C   UNL     1       0.346  13.587  20.346  0.00  0.00    +0.000 C 
ATOM     14  C   UNL     1      -1.042  14.163  20.712  0.00  0.00    +0.000 C 
ATOM     15  N   UNL     1      -1.560  13.482  21.920  0.00  0.00    +0.000 N 
ATOM     16  C   UNL     1      -1.602  12.009  21.747  0.00  0.00    +0.000 C 
ATOM     17  C   UNL     1      -0.191  11.440  21.392  0.00  0.00    +0.000 C 
BRANCH  15  18
ATOM     18  C   UNL     1      -2.128  14.208  22.968  0.00  0.00    +0.000 A 
ATOM     19  C   UNL     1      -1.315  14.719  24.020  0.00  0.00    +0.000 A 
ATOM     20  C   UNL     1      -1.828  15.349  25.177  0.00  0.00    +0.000 A 
ATOM     21  C   UNL     1      -0.943  15.767  26.322  0.00  0.00    +0.000 C 
ATOM     22  C   UNL     1      -3.197  15.545  25.285  0.00  0.00    +0.000 A 
ATOM     23  C   UNL     1      -4.029  15.099  24.270  0.00  0.00    +0.000 A 
ATOM     24  C   UNL     1      -3.522  14.414  23.129  0.00  0.00    +0.000 A 
ATOM     25  C   UNL     1      -4.569  13.890  22.184  0.00  0.00    +0.000 C 
ENDBRANCH  15  18
ENDBRANCH   6  10
BRANCH   1  26
ATOM     26  C   UNL     1       3.444   4.871  19.031  0.00  0.00    +0.000 C 
BRANCH  26  31
ATOM     27  C   UNL     1       6.495   6.009  16.837  0.00  0.00    +0.000 A 
ATOM     28  C   UNL     1       6.337   5.201  15.712  0.00  0.00    +0.000 A 
ATOM     29  C   UNL     1       5.248   4.343  15.618  0.00  0.00    +0.000 A 
ATOM     30  C   UNL     1       4.329   4.241  16.672  0.00  0.00    +0.000 A 
ATOM     31  C   UNL     1       4.475   4.976  17.861  0.00  0.00    +0.000 A 
ATOM     32  C   UNL     1       5.567   5.910  17.900  0.00  0.00    +0.000 A 
BRANCH  27  34
ATOM     33  C   UNL     1       7.733   7.924  17.604  0.00  0.00    +0.000 C 
ATOM     34  O   UNL     1       7.587   6.826  16.720  0.00  0.00    +0.000 OA
ENDBRANCH  27  34
ENDBRANCH  26  31
ENDBRANCH   1  26
TORSDOF 5
ENDMDL
MODEL 6
REMARK VINA RESULT:      -8.6      0.974      1.578
REMARK  Name = 
REMARK  8 active torsions:
REMARK  status: ('A' for Active; 'I' for Inactive)
REMARK    1  A    between atoms: C_1  and  O_2
REMARK    2  A    between atoms: O_2  and  C_3
REMARK    3  A    between atoms: C_7  and  C_8
REMARK    4  A    between atoms: C_8  and  N_9
REMARK    5  A    between atoms: C_14  and  C_15
REMARK    6  A    between atoms: N_20  and  C_21
REMARK    7  A    between atoms: C_23  and  C_24
REMARK    8  A    between atoms: C_27  and  C_28
REMARK                            x       y       z     vdW  Elec       q    Type
REMARK                         _______ _______ _______ _____ _____    ______ ____
ROOT
ATOM      1  N   UNL     1       6.912   4.976  14.689  0.00  0.00    +0.000 N 
ATOM      2  N   UNL     1       7.758   5.890  15.239  0.00  0.00    +0.000 NA
ATOM      3  N   UNL     1       7.310   6.247  16.426  0.00  0.00    +0.000 NA
ATOM      4  C   UNL     1       6.212   5.508  16.689  0.00  0.00    +0.000 A 
ATOM      5  C   UNL     1       5.402   5.570  17.846  0.00  0.00    +0.000 A 
ATOM      6  C   UNL     1       4.235   4.803  18.026  0.00  0.00    +0.000 A 
ATOM      7  C   UNL     1       3.966   3.874  17.009  0.00  0.00    +0.000 A 
ATOM      8  C   UNL     1       4.805   3.754  15.808  0.00  0.00    +0.000 A 
ATOM      9  C   UNL     1       5.917   4.633  15.635  0.00  0.00    +0.000 A 
ENDROOT
BRANCH   6  10
ATOM     10  C   UNL     1       3.334   5.356  19.128  0.00  0.00    +0.000 C 
ATOM     11  O   UNL     1       3.331   4.651  20.149  0.00  0.00    +0.000 OA
ATOM     12  N   UNL     1       2.524   6.504  19.125  0.00  0.00    +0.000 N 
ATOM     13  C   UNL     1       1.650   6.731  20.314  0.00  0.00    +0.000 C 
ATOM     14  C   UNL     1       1.607   8.209  20.770  0.00  0.00    +0.000 C 
ATOM     15  N   UNL     1       1.228   9.070  19.629  0.00  0.00    +0.000 N 
ATOM     16  C   UNL     1       2.132   8.878  18.468  0.00  0.00    +0.000 C 
ATOM     17  C   UNL     1       2.155   7.384  18.010  0.00  0.00    +0.000 C 
BRANCH  15  18
ATOM     18  C   UNL     1       0.269  10.074  19.772  0.00  0.00    +0.000 A 
ATOM     19  C   UNL     1       0.179  10.823  20.980  0.00  0.00    +0.000 A 
ATOM     20  C   UNL     1      -0.842  11.764  21.250  0.00  0.00    +0.000 A 
ATOM     21  C   UNL     1      -0.971  12.446  22.587  0.00  0.00    +0.000 C 
ATOM     22  C   UNL     1      -1.786  12.031  20.269  0.00  0.00    +0.000 A 
ATOM     23  C   UNL     1      -1.720  11.355  19.061  0.00  0.00    +0.000 A 
ATOM     24  C   UNL     1      -0.728  10.367  18.806  0.00  0.00    +0.000 A 
ATOM     25  C   UNL     1      -0.872   9.643  17.495  0.00  0.00    +0.000 C 
ENDBRANCH  15  18
ENDBRANCH   6  10
BRANCH   1  26
ATOM     26  C   UNL     1       7.374   4.462  13.370  0.00  0.00    +0.000 C 
BRANCH  26  31
ATOM     27  C   UNL     1       4.214   3.438  11.278  0.00  0.00    +0.000 A 
ATOM     28  C   UNL     1       4.551   2.141  10.894  0.00  0.00    +0.000 A 
ATOM     29  C   UNL     1       5.739   1.571  11.334  0.00  0.00    +0.000 A 
ATOM     30  C   UNL     1       6.634   2.308  12.122  0.00  0.00    +0.000 A 
ATOM     31  C   UNL     1       6.383   3.644  12.482  0.00  0.00    +0.000 A 
ATOM     32  C   UNL     1       5.114   4.183  12.075  0.00  0.00    +0.000 A 
BRANCH  27  34
ATOM     33  C   UNL     1       2.855   4.203   9.445  0.00  0.00    +0.000 C 
ATOM     34  O   UNL     1       2.985   3.801  10.798  0.00  0.00    +0.000 OA
ENDBRANCH  27  34
ENDBRANCH  26  31
ENDBRANCH   1  26
TORSDOF 5
ENDMDL
MODEL 7
REMARK VINA RESULT:      -8.5      3.167      5.363
REMARK  Name = 
REMARK  8 active torsions:
REMARK  status: ('A' for Active; 'I' for Inactive)
REMARK    1  A    between atoms: C_1  and  O_2
REMARK    2  A    between atoms: O_2  and  C_3
REMARK    3  A    between atoms: C_7  and  C_8
REMARK    4  A    between atoms: C_8  and  N_9
REMARK    5  A    between atoms: C_14  and  C_15
REMARK    6  A    between atoms: N_20  and  C_21
REMARK    7  A    between atoms: C_23  and  C_24
REMARK    8  A    between atoms: C_27  and  C_28
REMARK                            x       y       z     vdW  Elec       q    Type
REMARK                         _______ _______ _______ _____ _____    ______ ____
ROOT
ATOM      1  N   UNL     1       3.219   4.164  18.977  0.00  0.00    +0.000 N 
ATOM      2  N   UNL     1       2.677   3.447  19.999  0.00  0.00    +0.000 NA
ATOM      3  N   UNL     1       1.970   4.246  20.773  0.00  0.00    +0.000 NA
ATOM      4  C   UNL     1       1.984   5.475  20.214  0.00  0.00    +0.000 A 
ATOM      5  C   UNL     1       1.367   6.643  20.714  0.00  0.00    +0.000 A 
ATOM      6  C   UNL     1       1.471   7.907  20.101  0.00  0.00    +0.000 A 
ATOM      7  C   UNL     1       2.160   7.924  18.879  0.00  0.00    +0.000 A 
ATOM      8  C   UNL     1       2.786   6.723  18.309  0.00  0.00    +0.000 A 
ATOM      9  C   UNL     1       2.733   5.491  19.030  0.00  0.00    +0.000 A 
ENDROOT
BRANCH   6  10
ATOM     10  C   UNL     1       1.091   9.048  21.043  0.00  0.00    +0.000 C 
ATOM     11  O   UNL     1       1.495   8.871  22.203  0.00  0.00    +0.000 OA
ATOM     12  N   UNL     1       0.355  10.215  20.779  0.00  0.00    +0.000 N 
ATOM     13  C   UNL     1       0.035  11.101  21.937  0.00  0.00    +0.000 C 
ATOM     14  C   UNL     1       0.186  12.607  21.618  0.00  0.00    +0.000 C 
ATOM     15  N   UNL     1      -0.615  12.944  20.421  0.00  0.00    +0.000 N 
ATOM     16  C   UNL     1      -0.255  12.094  19.258  0.00  0.00    +0.000 C 
ATOM     17  C   UNL     1      -0.426  10.578  19.592  0.00  0.00    +0.000 C 
BRANCH  15  18
ATOM     18  C   UNL     1      -1.429  14.077  20.395  0.00  0.00    +0.000 A 
ATOM     19  C   UNL     1      -0.914  15.330  19.958  0.00  0.00    +0.000 A 
ATOM     20  C   UNL     1      -1.634  16.546  20.023  0.00  0.00    +0.000 A 
ATOM     21  C   UNL     1      -1.010  17.868  19.663  0.00  0.00    +0.000 C 
ATOM     22  C   UNL     1      -2.943  16.527  20.483  0.00  0.00    +0.000 A 
ATOM     23  C   UNL     1      -3.504  15.325  20.886  0.00  0.00    +0.000 A 
ATOM     24  C   UNL     1      -2.764  14.109  20.874  0.00  0.00    +0.000 A 
ATOM     25  C   UNL     1      -3.480  12.922  21.459  0.00  0.00    +0.000 C 
ENDBRANCH  15  18
ENDBRANCH   6  10
BRANCH   1  26
ATOM     26  C   UNL     1       3.983   3.328  18.010  0.00  0.00    +0.000 C 
BRANCH  26  31
ATOM     27  C   UNL     1       6.739   5.732  16.581  0.00  0.00    +0.000 A 
ATOM     28  C   UNL     1       6.802   5.314  15.253  0.00  0.00    +0.000 A 
ATOM     29  C   UNL     1       5.947   4.320  14.794  0.00  0.00    +0.000 A 
ATOM     30  C   UNL     1       5.051   3.692  15.670  0.00  0.00    +0.000 A 
ATOM     31  C   UNL     1       4.990   4.020  17.035  0.00  0.00    +0.000 A 
ATOM     32  C   UNL     1       5.834   5.102  17.466  0.00  0.00    +0.000 A 
BRANCH  27  34
ATOM     33  C   UNL     1       7.831   7.179  18.164  0.00  0.00    +0.000 C 
ATOM     34  O   UNL     1       7.613   6.756  16.829  0.00  0.00    +0.000 OA
ENDBRANCH  27  34
ENDBRANCH  26  31
ENDBRANCH   1  26
TORSDOF 5
ENDMDL
MODEL 8
REMARK VINA RESULT:      -8.5      3.185      5.351
REMARK  Name = 
REMARK  8 active torsions:
REMARK  status: ('A' for Active; 'I' for Inactive)
REMARK    1  A    between atoms: C_1  and  O_2
REMARK    2  A    between atoms: O_2  and  C_3
REMARK    3  A    between atoms: C_7  and  C_8
REMARK    4  A    between atoms: C_8  and  N_9
REMARK    5  A    between atoms: C_14  and  C_15
REMARK    6  A    between atoms: N_20  and  C_21
REMARK    7  A    between atoms: C_23  and  C_24
REMARK    8  A    between atoms: C_27  and  C_28
REMARK                            x       y       z     vdW  Elec       q    Type
REMARK                         _______ _______ _______ _____ _____    ______ ____
ROOT
ATOM      1  N   UNL     1       3.287   4.093  19.145  0.00  0.00    +0.000 N 
ATOM      2  N   UNL     1       2.702   3.341  20.118  0.00  0.00    +0.000 NA
ATOM      3  N   UNL     1       1.966   4.114  20.890  0.00  0.00    +0.000 NA
ATOM      4  C   UNL     1       2.005   5.363  20.377  0.00  0.00    +0.000 A 
ATOM      5  C   UNL     1       1.369   6.514  20.893  0.00  0.00    +0.000 A 
ATOM      6  C   UNL     1       1.500   7.799  20.331  0.00  0.00    +0.000 A 
ATOM      7  C   UNL     1       2.239   7.858  19.139  0.00  0.00    +0.000 A 
ATOM      8  C   UNL     1       2.885   6.675  18.552  0.00  0.00    +0.000 A 
ATOM      9  C   UNL     1       2.801   5.419  19.225  0.00  0.00    +0.000 A 
ENDROOT
BRANCH   6  10
ATOM     10  C   UNL     1       1.085   8.906  21.297  0.00  0.00    +0.000 C 
ATOM     11  O   UNL     1       1.712   8.875  22.366  0.00  0.00    +0.000 OA
ATOM     12  N   UNL     1       0.107   9.903  21.143  0.00  0.00    +0.000 N 
ATOM     13  C   UNL     1      -0.166  10.784  22.317  0.00  0.00    +0.000 C 
ATOM     14  C   UNL     1      -0.359  12.271  21.936  0.00  0.00    +0.000 C 
ATOM     15  N   UNL     1      -1.407  12.386  20.899  0.00  0.00    +0.000 N 
ATOM     16  C   UNL     1      -1.104  11.548  19.712  0.00  0.00    +0.000 C 
ATOM     17  C   UNL     1      -0.925  10.048  20.110  0.00  0.00    +0.000 C 
BRANCH  15  18
ATOM     18  C   UNL     1      -2.412  13.350  20.995  0.00  0.00    +0.000 A 
ATOM     19  C   UNL     1      -3.742  12.978  21.346  0.00  0.00    +0.000 A 
ATOM     20  C   UNL     1      -4.838  13.871  21.339  0.00  0.00    +0.000 A 
ATOM     21  C   UNL     1      -6.248  13.412  21.600  0.00  0.00    +0.000 C 
ATOM     22  C   UNL     1      -4.616  15.205  21.030  0.00  0.00    +0.000 A 
ATOM     23  C   UNL     1      -3.333  15.626  20.717  0.00  0.00    +0.000 A 
ATOM     24  C   UNL     1      -2.236  14.719  20.669  0.00  0.00    +0.000 A 
ATOM     25  C   UNL     1      -0.939  15.314  20.192  0.00  0.00    +0.000 C 
ENDBRANCH  15  18
ENDBRANCH   6  10
BRANCH   1  26
ATOM     26  C   UNL     1       4.089   3.290  18.180  0.00  0.00    +0.000 C 
BRANCH  26  31
ATOM     27  C   UNL     1       6.706   5.734  16.571  0.00  0.00    +0.000 A 
ATOM     28  C   UNL     1       6.586   5.410  15.221  0.00  0.00    +0.000 A 
ATOM     29  C   UNL     1       5.651   4.468  14.811  0.00  0.00    +0.000 A 
ATOM     30  C   UNL     1       4.857   3.797  15.751  0.00  0.00    +0.000 A 
ATOM     31  C   UNL     1       4.982   4.029  17.132  0.00  0.00    +0.000 A 
ATOM     32  C   UNL     1       5.904   5.061  17.522  0.00  0.00    +0.000 A 
BRANCH  27  34
ATOM     33  C   UNL     1       7.877   7.192  18.086  0.00  0.00    +0.000 C 
ATOM     34  O   UNL     1       7.634   6.720  16.772  0.00  0.00    +0.000 OA
ENDBRANCH  27  34
ENDBRANCH  26  31
ENDBRANCH   1  26
TORSDOF 5
ENDMDL
MODEL 9
REMARK VINA RESULT:      -8.4      3.659      6.191
REMARK  Name = 
REMARK  8 active torsions:
REMARK  status: ('A' for Active; 'I' for Inactive)
REMARK    1  A    between atoms: C_1  and  O_2
REMARK    2  A    between atoms: O_2  and  C_3
REMARK    3  A    between atoms: C_7  and  C_8
REMARK    4  A    between atoms: C_8  and  N_9
REMARK    5  A    between atoms: C_14  and  C_15
REMARK    6  A    between atoms: N_20  and  C_21
REMARK    7  A    between atoms: C_23  and  C_24
REMARK    8  A    between atoms: C_27  and  C_28
REMARK                            x       y       z     vdW  Elec       q    Type
REMARK                         _______ _______ _______ _____ _____    ______ ____
ROOT
ATOM      1  N   UNL     1       3.052   4.757  19.412  0.00  0.00    +0.000 N 
ATOM      2  N   UNL     1       2.530   4.210  20.544  0.00  0.00    +0.000 NA
ATOM      3  N   UNL     1       1.817   5.114  21.183  0.00  0.00    +0.000 NA
ATOM      4  C   UNL     1       1.806   6.235  20.429  0.00  0.00    +0.000 A 
ATOM      5  C   UNL     1       1.173   7.460  20.737  0.00  0.00    +0.000 A 
ATOM      6  C   UNL     1       1.251   8.607  19.924  0.00  0.00    +0.000 A 
ATOM      7  C   UNL     1       1.929   8.433  18.708  0.00  0.00    +0.000 A 
ATOM      8  C   UNL     1       2.570   7.164  18.336  0.00  0.00    +0.000 A 
ATOM      9  C   UNL     1       2.544   6.067  19.250  0.00  0.00    +0.000 A 
ENDROOT
BRANCH   6  10
ATOM     10  C   UNL     1       0.860   9.882  20.669  0.00  0.00    +0.000 C 
ATOM     11  O   UNL     1       0.360   9.656  21.782  0.00  0.00    +0.000 OA
ATOM     12  N   UNL     1       0.972  11.222  20.263  0.00  0.00    +0.000 N 
ATOM     13  C   UNL     1       0.390  12.262  21.162  0.00  0.00    +0.000 C 
ATOM     14  C   UNL     1       1.278  13.521  21.299  0.00  0.00    +0.000 C 
ATOM     15  N   UNL     1       1.591  14.057  19.957  0.00  0.00    +0.000 N 
ATOM     16  C   UNL     1       2.217  13.032  19.085  0.00  0.00    +0.000 C 
ATOM     17  C   UNL     1       1.302  11.774  18.944  0.00  0.00    +0.000 C 
BRANCH  15  18
ATOM     18  C   UNL     1       1.490  15.422  19.685  0.00  0.00    +0.000 A 
ATOM     19  C   UNL     1       0.373  15.937  18.967  0.00  0.00    +0.000 A 
ATOM     20  C   UNL     1       0.260  17.281  18.542  0.00  0.00    +0.000 A 
ATOM     21  C   UNL     1      -0.880  17.757  17.681  0.00  0.00    +0.000 C 
ATOM     22  C   UNL     1       1.259  18.181  18.887  0.00  0.00    +0.000 A 
ATOM     23  C   UNL     1       2.350  17.737  19.618  0.00  0.00    +0.000 A 
ATOM     24  C   UNL     1       2.494  16.374  19.999  0.00  0.00    +0.000 A 
ATOM     25  C   UNL     1       3.793  16.037  20.680  0.00  0.00    +0.000 C 
ENDBRANCH  15  18
ENDBRANCH   6  10
BRANCH   1  26
ATOM     26  C   UNL     1       3.822   3.785  18.586  0.00  0.00    +0.000 C 
BRANCH  26  31
ATOM     27  C   UNL     1       6.979   5.744  17.318  0.00  0.00    +0.000 A 
ATOM     28  C   UNL     1       7.064   5.298  16.000  0.00  0.00    +0.000 A 
ATOM     29  C   UNL     1       6.105   4.429  15.496  0.00  0.00    +0.000 A 
ATOM     30  C   UNL     1       5.075   3.951  16.317  0.00  0.00    +0.000 A 
ATOM     31  C   UNL     1       4.977   4.308  17.673  0.00  0.00    +0.000 A 
ATOM     32  C   UNL     1       5.939   5.265  18.148  0.00  0.00    +0.000 A 
BRANCH  27  34
ATOM     33  C   UNL     1       7.680   8.022  17.648  0.00  0.00    +0.000 C 
ATOM     34  O   UNL     1       7.974   6.636  17.613  0.00  0.00    +0.000 OA
ENDBRANCH  27  34
ENDBRANCH  26  31
ENDBRANCH   1  26
TORSDOF 5
ENDMDL
