MODEL 1
REMARK VINA RESULT:      -5.9      0.000      0.000
REMARK  Name = 
REMARK  2 active torsions:
REMARK  status: ('A' for Active; 'I' for Inactive)
REMARK    1  A    between atoms: N_1  and  C_2
REMARK    2  A    between atoms: C_4  and  C_6
REMARK                            x       y       z     vdW  Elec       q    Type
REMARK                         _______ _______ _______ _____ _____    ______ ____
ROOT
ATOM      1  C   UNL     1       7.660   5.575  18.426  0.00  0.00    +0.000 C 
ATOM      2  C   UNL     1       7.348   6.866  17.730  0.00  0.00    +0.000 C 
ATOM      3  C   UNL     1       6.703   5.597  17.243  0.00  0.00    +0.000 C 
ATOM      4  F   UNL     1       7.245   5.093  16.060  0.00  0.00    +0.000 F 
ENDROOT
BRANCH   3   5
ATOM      5  C   UNL     1       5.239   5.285  17.429  0.00  0.00    +0.000 A 
ATOM      6  C   UNL     1       4.305   6.245  17.866  0.00  0.00    +0.000 A 
ATOM      7  C   UNL     1       2.948   5.931  18.005  0.00  0.00    +0.000 A 
ATOM      8  C   UNL     1       2.507   4.653  17.699  0.00  0.00    +0.000 A 
ATOM      9  F   UNL     1       1.207   4.353  17.822  0.00  0.00    +0.000 F 
ATOM     10  C   UNL     1       3.393   3.682  17.256  0.00  0.00    +0.000 A 
ATOM     11  C   UNL     1       4.747   4.000  17.123  0.00  0.00    +0.000 A 
ENDBRANCH   3   5
BRANCH   1  12
ATOM     12  N   UNL     1       7.207   5.421  19.817  0.00  0.00    +0.000 NA
ATOM     13  H   UNL     1       6.770   6.279  20.153  0.00  0.00    +0.000 HD
ATOM     14  H   UNL     1       7.999   5.242  20.435  0.00  0.00    +0.000 HD
ENDBRANCH   1  12
TORSDOF 2
ENDMDL
MODEL 2
REMARK VINA RESULT:      -5.8      1.690      2.083
REMARK  Name = 
REMARK  2 active torsions:
REMARK  status: ('A' for Active; 'I' for Inactive)
REMARK    1  A    between atoms: N_1  and  C_2
REMARK    2  A    between atoms: C_4  and  C_6
REMARK                            x       y       z     vdW  Elec       q    Type
REMARK                         _______ _______ _______ _____ _____    ______ ____
ROOT
ATOM      1  C   UNL     1       6.389   4.526  16.987  0.00  0.00    +0.000 C 
ATOM      2  C   UNL     1       5.730   5.836  16.675  0.00  0.00    +0.000 C 
ATOM      3  C   UNL     1       4.993   4.558  16.384  0.00  0.00    +0.000 C 
ATOM      4  F   UNL     1       4.945   4.214  15.033  0.00  0.00    +0.000 F 
ENDROOT
BRANCH   3   5
ATOM      5  C   UNL     1       3.798   4.090  17.179  0.00  0.00    +0.000 A 
ATOM      6  C   UNL     1       2.905   4.979  17.808  0.00  0.00    +0.000 A 
ATOM      7  C   UNL     1       1.793   4.514  18.517  0.00  0.00    +0.000 A 
ATOM      8  C   UNL     1       1.553   3.151  18.599  0.00  0.00    +0.000 A 
ATOM      9  F   UNL     1       0.483   2.705  19.270  0.00  0.00    +0.000 F 
ATOM     10  C   UNL     1       2.404   2.243  17.985  0.00  0.00    +0.000 A 
ATOM     11  C   UNL     1       3.515   2.712  17.281  0.00  0.00    +0.000 A 
ENDBRANCH   3   5
BRANCH   1  12
ATOM     12  N   UNL     1       6.643   4.208  18.401  0.00  0.00    +0.000 NA
ATOM     13  H   UNL     1       5.864   3.686  18.801  0.00  0.00    +0.000 HD
ATOM     14  H   UNL     1       6.729   5.062  18.951  0.00  0.00    +0.000 HD
ENDBRANCH   1  12
TORSDOF 2
ENDMDL
MODEL 3
REMARK VINA RESULT:      -5.8      0.137      1.397
REMARK  Name = 
REMARK  2 active torsions:
REMARK  status: ('A' for Active; 'I' for Inactive)
REMARK    1  A    between atoms: N_1  and  C_2
REMARK    2  A    between atoms: C_4  and  C_6
REMARK                            x       y       z     vdW  Elec       q    Type
REMARK                         _______ _______ _______ _____ _____    ______ ____
ROOT
ATOM      1  C   UNL     1       7.615   5.448  18.401  0.00  0.00    +0.000 C 
ATOM      2  C   UNL     1       7.331   6.723  17.664  0.00  0.00    +0.000 C 
ATOM      3  C   UNL     1       6.701   5.444  17.185  0.00  0.00    +0.000 C 
ATOM      4  F   UNL     1       7.283   4.910  16.034  0.00  0.00    +0.000 F 
ENDROOT
BRANCH   3   5
ATOM      5  C   UNL     1       5.230   5.139  17.326  0.00  0.00    +0.000 A 
ATOM      6  C   UNL     1       4.688   3.864  17.071  0.00  0.00    +0.000 A 
ATOM      7  C   UNL     1       3.323   3.607  17.235  0.00  0.00    +0.000 A 
ATOM      8  C   UNL     1       2.482   4.622  17.665  0.00  0.00    +0.000 A 
ATOM      9  F   UNL     1       1.176   4.375  17.831  0.00  0.00    +0.000 F 
ATOM     10  C   UNL     1       2.978   5.889  17.936  0.00  0.00    +0.000 A 
ATOM     11  C   UNL     1       4.342   6.141  17.767  0.00  0.00    +0.000 A 
ENDBRANCH   3   5
BRANCH   1  12
ATOM     12  N   UNL     1       7.113   5.329  19.778  0.00  0.00    +0.000 NA
ATOM     13  H   UNL     1       7.773   5.734  20.442  0.00  0.00    +0.000 HD
ATOM     14  H   UNL     1       7.009   4.349  20.040  0.00  0.00    +0.000 HD
ENDBRANCH   1  12
TORSDOF 2
ENDMDL
MODEL 4
REMARK VINA RESULT:      -5.8      1.567      2.542
REMARK  Name = 
REMARK  2 active torsions:
REMARK  status: ('A' for Active; 'I' for Inactive)
REMARK    1  A    between atoms: N_1  and  C_2
REMARK    2  A    between atoms: C_4  and  C_6
REMARK                            x       y       z     vdW  Elec       q    Type
REMARK                         _______ _______ _______ _____ _____    ______ ____
ROOT
ATOM      1  C   UNL     1       6.190   4.722  17.514  0.00  0.00    +0.000 C 
ATOM      2  C   UNL     1       5.434   5.919  17.019  0.00  0.00    +0.000 C 
ATOM      3  C   UNL     1       4.918   4.542  16.699  0.00  0.00    +0.000 C 
ATOM      4  F   UNL     1       5.136   4.136  15.382  0.00  0.00    +0.000 F 
ENDROOT
BRANCH   3   5
ATOM      5  C   UNL     1       3.677   3.954  17.325  0.00  0.00    +0.000 A 
ATOM      6  C   UNL     1       3.516   2.573  17.547  0.00  0.00    +0.000 A 
ATOM      7  C   UNL     1       2.364   2.062  18.153  0.00  0.00    +0.000 A 
ATOM      8  C   UNL     1       1.358   2.929  18.553  0.00  0.00    +0.000 A 
ATOM      9  F   UNL     1       0.258   2.441  19.141  0.00  0.00    +0.000 F 
ATOM     10  C   UNL     1       1.482   4.297  18.360  0.00  0.00    +0.000 A 
ATOM     11  C   UNL     1       2.634   4.802  17.753  0.00  0.00    +0.000 A 
ENDBRANCH   3   5
BRANCH   1  12
ATOM     12  N   UNL     1       6.246   4.503  18.968  0.00  0.00    +0.000 NA
ATOM     13  H   UNL     1       6.204   3.508  19.187  0.00  0.00    +0.000 HD
ATOM     14  H   UNL     1       5.442   4.932  19.427  0.00  0.00    +0.000 HD
ENDBRANCH   1  12
TORSDOF 2
ENDMDL
MODEL 5
REMARK VINA RESULT:      -5.7      1.434      2.090
REMARK  Name = 
REMARK  2 active torsions:
REMARK  status: ('A' for Active; 'I' for Inactive)
REMARK    1  A    between atoms: N_1  and  C_2
REMARK    2  A    between atoms: C_4  and  C_6
REMARK                            x       y       z     vdW  Elec       q    Type
REMARK                         _______ _______ _______ _____ _____    ______ ____
ROOT
ATOM      1  C   UNL     1       6.749   4.773  16.846  0.00  0.00    +0.000 C 
ATOM      2  C   UNL     1       6.348   6.211  16.695  0.00  0.00    +0.000 C 
ATOM      3  C   UNL     1       5.367   5.133  16.321  0.00  0.00    +0.000 C 
ATOM      4  F   UNL     1       5.211   4.947  14.947  0.00  0.00    +0.000 F 
ENDROOT
BRANCH   3   5
ATOM      5  C   UNL     1       4.130   4.821  17.126  0.00  0.00    +0.000 A 
ATOM      6  C   UNL     1       3.510   3.556  17.112  0.00  0.00    +0.000 A 
ATOM      7  C   UNL     1       2.378   3.290  17.889  0.00  0.00    +0.000 A 
ATOM      8  C   UNL     1       1.855   4.286  18.700  0.00  0.00    +0.000 A 
ATOM      9  F   UNL     1       0.776   4.030  19.452  0.00  0.00    +0.000 F 
ATOM     10  C   UNL     1       2.441   5.542  18.750  0.00  0.00    +0.000 A 
ATOM     11  C   UNL     1       3.570   5.803  17.969  0.00  0.00    +0.000 A 
ENDBRANCH   3   5
BRANCH   1  12
ATOM     12  N   UNL     1       6.979   4.268  18.208  0.00  0.00    +0.000 NA
ATOM     13  H   UNL     1       7.548   4.921  18.747  0.00  0.00    +0.000 HD
ATOM     14  H   UNL     1       7.498   3.390  18.183  0.00  0.00    +0.000 HD
ENDBRANCH   1  12
TORSDOF 2
ENDMDL
MODEL 6
REMARK VINA RESULT:      -5.6      1.711      2.279
REMARK  Name = 
REMARK  2 active torsions:
REMARK  status: ('A' for Active; 'I' for Inactive)
REMARK    1  A    between atoms: N_1  and  C_2
REMARK    2  A    between atoms: C_4  and  C_6
REMARK                            x       y       z     vdW  Elec       q    Type
REMARK                         _______ _______ _______ _____ _____    ______ ____
ROOT
ATOM      1  C   UNL     1       7.281   6.107  17.552  0.00  0.00    +0.000 C 
ATOM      2  C   UNL     1       7.569   4.649  17.753  0.00  0.00    +0.000 C 
ATOM      3  C   UNL     1       6.428   5.282  18.503  0.00  0.00    +0.000 C 
ATOM      4  F   UNL     1       6.686   5.518  19.853  0.00  0.00    +0.000 F 
ENDROOT
BRANCH   3   5
ATOM      5  C   UNL     1       4.977   5.004  18.195  0.00  0.00    +0.000 A 
ATOM      6  C   UNL     1       4.550   3.844  17.519  0.00  0.00    +0.000 A 
ATOM      7  C   UNL     1       3.194   3.604  17.270  0.00  0.00    +0.000 A 
ATOM      8  C   UNL     1       2.246   4.518  17.703  0.00  0.00    +0.000 A 
ATOM      9  F   UNL     1       0.947   4.284  17.474  0.00  0.00    +0.000 F 
ATOM     10  C   UNL     1       2.625   5.667  18.381  0.00  0.00    +0.000 A 
ATOM     11  C   UNL     1       3.980   5.904  18.624  0.00  0.00    +0.000 A 
ENDBRANCH   3   5
BRANCH   1  12
ATOM     12  N   UNL     1       6.813   6.533  16.224  0.00  0.00    +0.000 NA
ATOM     13  H   UNL     1       7.600   6.775  15.622  0.00  0.00    +0.000 HD
ATOM     14  H   UNL     1       6.240   7.373  16.297  0.00  0.00    +0.000 HD
ENDBRANCH   1  12
TORSDOF 2
ENDMDL
MODEL 7
REMARK VINA RESULT:      -5.6      3.654      4.639
REMARK  Name = 
REMARK  2 active torsions:
REMARK  status: ('A' for Active; 'I' for Inactive)
REMARK    1  A    between atoms: N_1  and  C_2
REMARK    2  A    between atoms: C_4  and  C_6
REMARK                            x       y       z     vdW  Elec       q    Type
REMARK                         _______ _______ _______ _____ _____    ______ ____
ROOT
ATOM      1  C   UNL     1       3.542   1.836  19.075  0.00  0.00    +0.000 C 
ATOM      2  C   UNL     1       3.101   2.054  17.658  0.00  0.00    +0.000 C 
ATOM      3  C   UNL     1       2.306   2.670  18.777  0.00  0.00    +0.000 C 
ATOM      4  F   UNL     1       1.100   2.024  19.051  0.00  0.00    +0.000 F 
ENDROOT
BRANCH   3   5
ATOM      5  C   UNL     1       2.287   4.152  19.064  0.00  0.00    +0.000 A 
ATOM      6  C   UNL     1       2.632   5.119  18.100  0.00  0.00    +0.000 A 
ATOM      7  C   UNL     1       2.581   6.487  18.389  0.00  0.00    +0.000 A 
ATOM      8  C   UNL     1       2.173   6.906  19.647  0.00  0.00    +0.000 A 
ATOM      9  F   UNL     1       2.114   8.215  19.922  0.00  0.00    +0.000 F 
ATOM     10  C   UNL     1       1.816   5.985  20.621  0.00  0.00    +0.000 A 
ATOM     11  C   UNL     1       1.872   4.620  20.327  0.00  0.00    +0.000 A 
ENDBRANCH   3   5
BRANCH   1  12
ATOM     12  N   UNL     1       4.824   2.427  19.489  0.00  0.00    +0.000 NA
ATOM     13  H   UNL     1       5.302   2.852  18.695  0.00  0.00    +0.000 HD
ATOM     14  H   UNL     1       5.452   1.707  19.849  0.00  0.00    +0.000 HD
ENDBRANCH   1  12
TORSDOF 2
ENDMDL
MODEL 8
REMARK VINA RESULT:      -5.6      1.709      1.814
REMARK  Name = 
REMARK  2 active torsions:
REMARK  status: ('A' for Active; 'I' for Inactive)
REMARK    1  A    between atoms: N_1  and  C_2
REMARK    2  A    between atoms: C_4  and  C_6
REMARK                            x       y       z     vdW  Elec       q    Type
REMARK                         _______ _______ _______ _____ _____    ______ ____
ROOT
ATOM      1  C   UNL     1       7.238   6.233  17.635  0.00  0.00    +0.000 C 
ATOM      2  C   UNL     1       7.531   4.766  17.740  0.00  0.00    +0.000 C 
ATOM      3  C   UNL     1       6.420   5.353  18.567  0.00  0.00    +0.000 C 
ATOM      4  F   UNL     1       6.727   5.510  19.918  0.00  0.00    +0.000 F 
ENDROOT
BRANCH   3   5
ATOM      5  C   UNL     1       4.958   5.092  18.296  0.00  0.00    +0.000 A 
ATOM      6  C   UNL     1       3.942   5.996  18.663  0.00  0.00    +0.000 A 
ATOM      7  C   UNL     1       2.598   5.737  18.376  0.00  0.00    +0.000 A 
ATOM      8  C   UNL     1       2.252   4.571  17.709  0.00  0.00    +0.000 A 
ATOM      9  F   UNL     1       0.966   4.325  17.425  0.00  0.00    +0.000 F 
ATOM     10  C   UNL     1       3.224   3.659  17.322  0.00  0.00    +0.000 A 
ATOM     11  C   UNL     1       4.565   3.922  17.614  0.00  0.00    +0.000 A 
ENDBRANCH   3   5
BRANCH   1  12
ATOM     12  N   UNL     1       6.723   6.736  16.352  0.00  0.00    +0.000 NA
ATOM     13  H   UNL     1       6.602   7.748  16.380  0.00  0.00    +0.000 HD
ATOM     14  H   UNL     1       5.802   6.343  16.156  0.00  0.00    +0.000 HD
ENDBRANCH   1  12
TORSDOF 2
ENDMDL
MODEL 9
REMARK VINA RESULT:      -5.6      3.643      4.583
REMARK  Name = 
REMARK  2 active torsions:
REMARK  status: ('A' for Active; 'I' for Inactive)
REMARK    1  A    between atoms: N_1  and  C_2
REMARK    2  A    between atoms: C_4  and  C_6
REMARK                            x       y       z     vdW  Elec       q    Type
REMARK                         _______ _______ _______ _____ _____    ______ ____
ROOT
ATOM      1  C   UNL     1       3.609   1.847  19.188  0.00  0.00    +0.000 C 
ATOM      2  C   UNL     1       3.162   2.007  17.765  0.00  0.00    +0.000 C 
ATOM      3  C   UNL     1       2.339   2.620  18.865  0.00  0.00    +0.000 C 
ATOM      4  F   UNL     1       1.161   1.932  19.156  0.00  0.00    +0.000 F 
ENDROOT
BRANCH   3   5
ATOM      5  C   UNL     1       2.257   4.107  19.109  0.00  0.00    +0.000 A 
ATOM      6  C   UNL     1       1.887   4.656  20.353  0.00  0.00    +0.000 A 
ATOM      7  C   UNL     1       1.845   6.039  20.555  0.00  0.00    +0.000 A 
ATOM      8  C   UNL     1       2.181   6.894  19.517  0.00  0.00    +0.000 A 
ATOM      9  F   UNL     1       2.150   8.219  19.711  0.00  0.00    +0.000 F 
ATOM     10  C   UNL     1       2.560   6.393  18.279  0.00  0.00    +0.000 A 
ATOM     11  C   UNL     1       2.597   5.011  18.082  0.00  0.00    +0.000 A 
ENDBRANCH   3   5
BRANCH   1  12
ATOM     12  N   UNL     1       4.864   2.503  19.587  0.00  0.00    +0.000 NA
ATOM     13  H   UNL     1       5.258   3.034  18.812  0.00  0.00    +0.000 HD
ATOM     14  H   UNL     1       5.565   1.809  19.845  0.00  0.00    +0.000 HD
ENDBRANCH   1  12
TORSDOF 2
ENDMDL
