MODEL 1
REMARK VINA RESULT:      -7.1      0.000      0.000
REMARK  Name = 
REMARK  6 active torsions:
REMARK  status: ('A' for Active; 'I' for Inactive)
REMARK    1  A    between atoms: C_1  and  C_2
REMARK    2  A    between atoms: C_2  and  N_3
REMARK    3  A    between atoms: N_11  and  S_12
REMARK    4  A    between atoms: S_12  and  C_15
REMARK    5  A    between atoms: C_18  and  O_19
REMARK    6  A    between atoms: O_19  and  C_20
REMARK                            x       y       z     vdW  Elec       q    Type
REMARK                         _______ _______ _______ _____ _____    ______ ____
ROOT
ATOM      1  N   UNL     1       1.610   4.013  19.214  0.00  0.00    +0.000 N 
ATOM      2  C   UNL     1       2.123   2.848  18.608  0.00  0.00    +0.000 C 
ATOM      3  O   UNL     1       1.878   1.695  18.921  0.00  0.00    +0.000 OA
ATOM      4  C   UNL     1       3.115   3.296  17.516  0.00  0.00    +0.000 C 
ATOM      5  C   UNL     1       3.504   4.626  18.124  0.00  0.00    +0.000 C 
ATOM      6  C   UNL     1       2.131   5.135  18.507  0.00  0.00    +0.000 C 
ATOM      7  C   UNL     1       2.456   6.495  19.058  0.00  0.00    +0.000 C 
ATOM      8  C   UNL     1       3.492   6.991  18.020  0.00  0.00    +0.000 C 
ATOM      9  N   UNL     1       4.073   5.752  17.350  0.00  0.00    +0.000 NA
ENDROOT
BRANCH   9  10
ATOM     10  S   UNL     1       5.783   5.698  17.269  0.00  0.00    +0.000 S 
ATOM     11  O   UNL     1       6.244   7.069  17.288  0.00  0.00    +0.000 OA
ATOM     12  O   UNL     1       6.233   4.739  18.258  0.00  0.00    +0.000 OA
BRANCH  10  13
ATOM     13  C   UNL     1       6.121   5.012  15.668  0.00  0.00    +0.000 A 
ATOM     14  C   UNL     1       5.209   4.129  15.082  0.00  0.00    +0.000 A 
ATOM     15  C   UNL     1       5.469   3.621  13.807  0.00  0.00    +0.000 A 
ATOM     16  C   UNL     1       6.615   4.005  13.106  0.00  0.00    +0.000 A 
ATOM     17  C   UNL     1       7.523   4.888  13.699  0.00  0.00    +0.000 A 
ATOM     18  C   UNL     1       7.275   5.394  14.982  0.00  0.00    +0.000 A 
BRANCH  16  19
ATOM     19  O   UNL     1       6.767   3.422  11.879  0.00  0.00    +0.000 OA
ATOM     20  C   UNL     1       5.798   2.441  11.529  0.00  0.00    +0.000 C 
ENDBRANCH  16  19
ENDBRANCH  10  13
ENDBRANCH   9  10
BRANCH   1  22
ATOM     21  C   UNL     1       2.118   3.640  21.603  0.00  0.00    +0.000 C 
ATOM     22  C   UNL     1       1.081   4.053  20.568  0.00  0.00    +0.000 C 
ENDBRANCH   1  22
TORSDOF 4
ENDMDL
MODEL 2
REMARK VINA RESULT:      -7.1      2.597      6.657
REMARK  Name = 
REMARK  6 active torsions:
REMARK  status: ('A' for Active; 'I' for Inactive)
REMARK    1  A    between atoms: C_1  and  C_2
REMARK    2  A    between atoms: C_2  and  N_3
REMARK    3  A    between atoms: N_11  and  S_12
REMARK    4  A    between atoms: S_12  and  C_15
REMARK    5  A    between atoms: C_18  and  O_19
REMARK    6  A    between atoms: O_19  and  C_20
REMARK                            x       y       z     vdW  Elec       q    Type
REMARK                         _______ _______ _______ _____ _____    ______ ____
ROOT
ATOM      1  N   UNL     1       6.915   5.293  16.801  0.00  0.00    +0.000 N 
ATOM      2  C   UNL     1       6.327   5.028  15.547  0.00  0.00    +0.000 C 
ATOM      3  O   UNL     1       6.592   5.572  14.488  0.00  0.00    +0.000 OA
ATOM      4  C   UNL     1       5.229   3.969  15.768  0.00  0.00    +0.000 C 
ATOM      5  C   UNL     1       4.921   4.291  17.215  0.00  0.00    +0.000 C 
ATOM      6  C   UNL     1       6.333   4.404  17.749  0.00  0.00    +0.000 C 
ATOM      7  C   UNL     1       6.083   4.656  19.210  0.00  0.00    +0.000 C 
ATOM      8  C   UNL     1       4.947   3.642  19.492  0.00  0.00    +0.000 C 
ATOM      9  N   UNL     1       4.285   3.339  18.153  0.00  0.00    +0.000 NA
ENDROOT
BRANCH   9  10
ATOM     10  S   UNL     1       2.575   3.448  18.143  0.00  0.00    +0.000 S 
ATOM     11  O   UNL     1       2.170   3.509  16.756  0.00  0.00    +0.000 OA
ATOM     12  O   UNL     1       2.070   2.420  19.030  0.00  0.00    +0.000 OA
BRANCH  10  13
ATOM     13  C   UNL     1       2.236   5.018  18.898  0.00  0.00    +0.000 A 
ATOM     14  C   UNL     1       1.755   5.071  20.210  0.00  0.00    +0.000 A 
ATOM     15  C   UNL     1       1.523   6.313  20.805  0.00  0.00    +0.000 A 
ATOM     16  C   UNL     1       1.790   7.497  20.113  0.00  0.00    +0.000 A 
ATOM     17  C   UNL     1       2.270   7.436  18.802  0.00  0.00    +0.000 A 
ATOM     18  C   UNL     1       2.495   6.195  18.192  0.00  0.00    +0.000 A 
BRANCH  16  19
ATOM     19  O   UNL     1       1.501   8.646  20.796  0.00  0.00    +0.000 OA
ATOM     20  C   UNL     1       0.877   9.681  20.044  0.00  0.00    +0.000 C 
ENDBRANCH  16  19
ENDBRANCH  10  13
ENDBRANCH   9  10
BRANCH   1  22
ATOM     21  C   UNL     1       6.603   7.680  17.361  0.00  0.00    +0.000 C 
ATOM     22  C   UNL     1       7.587   6.540  17.131  0.00  0.00    +0.000 C 
ENDBRANCH   1  22
TORSDOF 4
ENDMDL
MODEL 3
REMARK VINA RESULT:      -6.9      2.629      6.802
REMARK  Name = 
REMARK  6 active torsions:
REMARK  status: ('A' for Active; 'I' for Inactive)
REMARK    1  A    between atoms: C_1  and  C_2
REMARK    2  A    between atoms: C_2  and  N_3
REMARK    3  A    between atoms: N_11  and  S_12
REMARK    4  A    between atoms: S_12  and  C_15
REMARK    5  A    between atoms: C_18  and  O_19
REMARK    6  A    between atoms: O_19  and  C_20
REMARK                            x       y       z     vdW  Elec       q    Type
REMARK                         _______ _______ _______ _____ _____    ______ ____
ROOT
ATOM      1  N   UNL     1       6.939   5.314  16.806  0.00  0.00    +0.000 N 
ATOM      2  C   UNL     1       6.338   5.034  15.562  0.00  0.00    +0.000 C 
ATOM      3  O   UNL     1       6.601   5.556  14.492  0.00  0.00    +0.000 OA
ATOM      4  C   UNL     1       5.229   3.993  15.811  0.00  0.00    +0.000 C 
ATOM      5  C   UNL     1       4.937   4.344  17.254  0.00  0.00    +0.000 C 
ATOM      6  C   UNL     1       6.354   4.448  17.775  0.00  0.00    +0.000 C 
ATOM      7  C   UNL     1       6.119   4.730  19.232  0.00  0.00    +0.000 C 
ATOM      8  C   UNL     1       4.973   3.735  19.541  0.00  0.00    +0.000 C 
ATOM      9  N   UNL     1       4.296   3.417  18.214  0.00  0.00    +0.000 NA
ENDROOT
BRANCH   9  10
ATOM     10  S   UNL     1       2.588   3.547  18.215  0.00  0.00    +0.000 S 
ATOM     11  O   UNL     1       2.174   3.616  16.831  0.00  0.00    +0.000 OA
ATOM     12  O   UNL     1       2.076   2.522  19.103  0.00  0.00    +0.000 OA
BRANCH  10  13
ATOM     13  C   UNL     1       2.273   5.119  18.976  0.00  0.00    +0.000 A 
ATOM     14  C   UNL     1       2.511   6.298  18.263  0.00  0.00    +0.000 A 
ATOM     15  C   UNL     1       2.228   7.529  18.861  0.00  0.00    +0.000 A 
ATOM     16  C   UNL     1       1.689   7.589  20.149  0.00  0.00    +0.000 A 
ATOM     17  C   UNL     1       1.454   6.406  20.855  0.00  0.00    +0.000 A 
ATOM     18  C   UNL     1       1.745   5.167  20.268  0.00  0.00    +0.000 A 
BRANCH  16  19
ATOM     19  O   UNL     1       1.478   8.852  20.630  0.00  0.00    +0.000 OA
ATOM     20  C   UNL     1       1.244   8.957  22.029  0.00  0.00    +0.000 C 
ENDBRANCH  16  19
ENDBRANCH  10  13
ENDBRANCH   9  10
BRANCH   1  22
ATOM     21  C   UNL     1       6.661   7.706  17.358  0.00  0.00    +0.000 C 
ATOM     22  C   UNL     1       7.629   6.558  17.109  0.00  0.00    +0.000 C 
ENDBRANCH   1  22
TORSDOF 4
ENDMDL
MODEL 4
REMARK VINA RESULT:      -6.9      2.462      3.994
REMARK  Name = 
REMARK  6 active torsions:
REMARK  status: ('A' for Active; 'I' for Inactive)
REMARK    1  A    between atoms: C_1  and  C_2
REMARK    2  A    between atoms: C_2  and  N_3
REMARK    3  A    between atoms: N_11  and  S_12
REMARK    4  A    between atoms: S_12  and  C_15
REMARK    5  A    between atoms: C_18  and  O_19
REMARK    6  A    between atoms: O_19  and  C_20
REMARK                            x       y       z     vdW  Elec       q    Type
REMARK                         _______ _______ _______ _____ _____    ______ ____
ROOT
ATOM      1  N   UNL     1       1.670   8.391  19.360  0.00  0.00    +0.000 N 
ATOM      2  C   UNL     1       2.341   8.670  18.152  0.00  0.00    +0.000 C 
ATOM      3  O   UNL     1       2.115   9.593  17.388  0.00  0.00    +0.000 OA
ATOM      4  C   UNL     1       3.374   7.547  17.930  0.00  0.00    +0.000 C 
ATOM      5  C   UNL     1       2.665   6.459  18.708  0.00  0.00    +0.000 C 
ATOM      6  C   UNL     1       2.284   7.246  19.943  0.00  0.00    +0.000 C 
ATOM      7  C   UNL     1       1.632   6.186  20.786  0.00  0.00    +0.000 C 
ATOM      8  C   UNL     1       2.608   5.002  20.573  0.00  0.00    +0.000 C 
ATOM      9  N   UNL     1       3.346   5.269  19.267  0.00  0.00    +0.000 NA
ENDROOT
BRANCH   9  10
ATOM     10  S   UNL     1       3.386   3.956  18.168  0.00  0.00    +0.000 S 
ATOM     11  O   UNL     1       3.707   2.776  18.939  0.00  0.00    +0.000 OA
ATOM     12  O   UNL     1       2.181   4.026  17.365  0.00  0.00    +0.000 OA
BRANCH  10  13
ATOM     13  C   UNL     1       4.758   4.323  17.104  0.00  0.00    +0.000 A 
ATOM     14  C   UNL     1       4.556   4.458  15.726  0.00  0.00    +0.000 A 
ATOM     15  C   UNL     1       5.636   4.780  14.903  0.00  0.00    +0.000 A 
ATOM     16  C   UNL     1       6.907   4.991  15.444  0.00  0.00    +0.000 A 
ATOM     17  C   UNL     1       7.102   4.854  16.821  0.00  0.00    +0.000 A 
ATOM     18  C   UNL     1       6.026   4.521  17.654  0.00  0.00    +0.000 A 
BRANCH  16  19
ATOM     19  O   UNL     1       7.885   5.278  14.532  0.00  0.00    +0.000 OA
ATOM     20  C   UNL     1       7.577   4.991  13.173  0.00  0.00    +0.000 C 
ENDBRANCH  16  19
ENDBRANCH  10  13
ENDBRANCH   9  10
BRANCH   1  22
ATOM     21  C   UNL     1       0.349  10.148  20.490  0.00  0.00    +0.000 C 
ATOM     22  C   UNL     1       0.330   8.866  19.668  0.00  0.00    +0.000 C 
ENDBRANCH   1  22
TORSDOF 4
ENDMDL
MODEL 5
REMARK VINA RESULT:      -6.7      2.825      4.162
REMARK  Name = 
REMARK  6 active torsions:
REMARK  status: ('A' for Active; 'I' for Inactive)
REMARK    1  A    between atoms: C_1  and  C_2
REMARK    2  A    between atoms: C_2  and  N_3
REMARK    3  A    between atoms: N_11  and  S_12
REMARK    4  A    between atoms: S_12  and  C_15
REMARK    5  A    between atoms: C_18  and  O_19
REMARK    6  A    between atoms: O_19  and  C_20
REMARK                            x       y       z     vdW  Elec       q    Type
REMARK                         _______ _______ _______ _____ _____    ______ ____
ROOT
ATOM      1  N   UNL     1       1.208   3.700  19.651  0.00  0.00    +0.000 N 
ATOM      2  C   UNL     1       1.002   2.876  18.526  0.00  0.00    +0.000 C 
ATOM      3  O   UNL     1       0.365   1.837  18.491  0.00  0.00    +0.000 OA
ATOM      4  C   UNL     1       1.795   3.489  17.354  0.00  0.00    +0.000 C 
ATOM      5  C   UNL     1       2.856   4.194  18.171  0.00  0.00    +0.000 C 
ATOM      6  C   UNL     1       1.977   4.823  19.230  0.00  0.00    +0.000 C 
ATOM      7  C   UNL     1       2.983   5.599  20.034  0.00  0.00    +0.000 C 
ATOM      8  C   UNL     1       3.848   6.214  18.906  0.00  0.00    +0.000 C 
ATOM      9  N   UNL     1       3.652   5.339  17.674  0.00  0.00    +0.000 NA
ENDROOT
BRANCH   9  10
ATOM     10  S   UNL     1       5.095   4.848  16.891  0.00  0.00    +0.000 S 
ATOM     11  O   UNL     1       5.414   3.531  17.393  0.00  0.00    +0.000 OA
ATOM     12  O   UNL     1       4.921   5.092  15.472  0.00  0.00    +0.000 OA
BRANCH  10  13
ATOM     13  C   UNL     1       6.319   5.989  17.482  0.00  0.00    +0.000 A 
ATOM     14  C   UNL     1       6.360   7.292  16.975  0.00  0.00    +0.000 A 
ATOM     15  C   UNL     1       7.307   8.190  17.472  0.00  0.00    +0.000 A 
ATOM     16  C   UNL     1       8.193   7.807  18.483  0.00  0.00    +0.000 A 
ATOM     17  C   UNL     1       8.146   6.503  18.983  0.00  0.00    +0.000 A 
ATOM     18  C   UNL     1       7.207   5.591  18.484  0.00  0.00    +0.000 A 
BRANCH  16  19
ATOM     19  O   UNL     1       9.085   8.770  18.867  0.00  0.00    +0.000 OA
ATOM     20  C   UNL     1       8.821  10.089  18.401  0.00  0.00    +0.000 C 
ENDBRANCH  16  19
ENDBRANCH  10  13
ENDBRANCH   9  10
BRANCH   1  22
ATOM     21  C   UNL     1       2.386   2.614  21.532  0.00  0.00    +0.000 C 
ATOM     22  C   UNL     1       1.093   3.237  21.024  0.00  0.00    +0.000 C 
ENDBRANCH   1  22
TORSDOF 4
ENDMDL
MODEL 6
REMARK VINA RESULT:      -6.6      2.313      3.827
REMARK  Name = 
REMARK  6 active torsions:
REMARK  status: ('A' for Active; 'I' for Inactive)
REMARK    1  A    between atoms: C_1  and  C_2
REMARK    2  A    between atoms: C_2  and  N_3
REMARK    3  A    between atoms: N_11  and  S_12
REMARK    4  A    between atoms: S_12  and  C_15
REMARK    5  A    between atoms: C_18  and  O_19
REMARK    6  A    between atoms: O_19  and  C_20
REMARK                            x       y       z     vdW  Elec       q    Type
REMARK                         _______ _______ _______ _____ _____    ______ ____
ROOT
ATOM      1  N   UNL     1       1.823   7.878  19.644  0.00  0.00    +0.000 N 
ATOM      2  C   UNL     1       2.436   8.326  18.457  0.00  0.00    +0.000 C 
ATOM      3  O   UNL     1       2.178   9.348  17.844  0.00  0.00    +0.000 OA
ATOM      4  C   UNL     1       3.451   7.248  18.027  0.00  0.00    +0.000 C 
ATOM      5  C   UNL     1       2.775   6.059  18.676  0.00  0.00    +0.000 C 
ATOM      6  C   UNL     1       2.458   6.662  20.028  0.00  0.00    +0.000 C 
ATOM      7  C   UNL     1       1.843   5.492  20.742  0.00  0.00    +0.000 C 
ATOM      8  C   UNL     1       2.801   4.352  20.315  0.00  0.00    +0.000 C 
ATOM      9  N   UNL     1       3.476   4.804  19.027  0.00  0.00    +0.000 NA
ENDROOT
BRANCH   9  10
ATOM     10  S   UNL     1       3.456   3.660  17.751  0.00  0.00    +0.000 S 
ATOM     11  O   UNL     1       3.807   2.383  18.331  0.00  0.00    +0.000 OA
ATOM     12  O   UNL     1       2.214   3.842  17.026  0.00  0.00    +0.000 OA
BRANCH  10  13
ATOM     13  C   UNL     1       4.777   4.177  16.684  0.00  0.00    +0.000 A 
ATOM     14  C   UNL     1       5.991   4.600  17.234  0.00  0.00    +0.000 A 
ATOM     15  C   UNL     1       7.035   4.973  16.384  0.00  0.00    +0.000 A 
ATOM     16  C   UNL     1       6.885   4.903  14.996  0.00  0.00    +0.000 A 
ATOM     17  C   UNL     1       5.668   4.479  14.455  0.00  0.00    +0.000 A 
ATOM     18  C   UNL     1       4.611   4.113  15.299  0.00  0.00    +0.000 A 
BRANCH  16  19
ATOM     19  O   UNL     1       7.970   5.316  14.274  0.00  0.00    +0.000 OA
ATOM     20  C   UNL     1       7.852   5.224  12.859  0.00  0.00    +0.000 C 
ENDBRANCH  16  19
ENDBRANCH  10  13
ENDBRANCH   9  10
BRANCH   1  22
ATOM     21  C   UNL     1       0.570   9.307  21.223  0.00  0.00    +0.000 C 
ATOM     22  C   UNL     1       0.502   8.301  20.082  0.00  0.00    +0.000 C 
ENDBRANCH   1  22
TORSDOF 4
ENDMDL
MODEL 7
REMARK VINA RESULT:      -6.6      0.928      1.413
REMARK  Name = 
REMARK  6 active torsions:
REMARK  status: ('A' for Active; 'I' for Inactive)
REMARK    1  A    between atoms: C_1  and  C_2
REMARK    2  A    between atoms: C_2  and  N_3
REMARK    3  A    between atoms: N_11  and  S_12
REMARK    4  A    between atoms: S_12  and  C_15
REMARK    5  A    between atoms: C_18  and  O_19
REMARK    6  A    between atoms: O_19  and  C_20
REMARK                            x       y       z     vdW  Elec       q    Type
REMARK                         _______ _______ _______ _____ _____    ______ ____
ROOT
ATOM      1  N   UNL     1       2.870   3.403  19.382  0.00  0.00    +0.000 N 
ATOM      2  C   UNL     1       3.448   2.373  18.612  0.00  0.00    +0.000 C 
ATOM      3  O   UNL     1       3.520   1.193  18.909  0.00  0.00    +0.000 OA
ATOM      4  C   UNL     1       4.045   3.024  17.348  0.00  0.00    +0.000 C 
ATOM      5  C   UNL     1       4.292   4.402  17.923  0.00  0.00    +0.000 C 
ATOM      6  C   UNL     1       2.975   4.612  18.637  0.00  0.00    +0.000 C 
ATOM      7  C   UNL     1       3.142   6.007  19.172  0.00  0.00    +0.000 C 
ATOM      8  C   UNL     1       3.783   6.713  17.952  0.00  0.00    +0.000 C 
ATOM      9  N   UNL     1       4.426   5.626  17.101  0.00  0.00    +0.000 NA
ENDROOT
BRANCH   9  10
ATOM     10  S   UNL     1       6.044   5.928  16.628  0.00  0.00    +0.000 S 
ATOM     11  O   UNL     1       6.153   7.352  16.402  0.00  0.00    +0.000 OA
ATOM     12  O   UNL     1       6.906   5.248  17.574  0.00  0.00    +0.000 OA
BRANCH  10  13
ATOM     13  C   UNL     1       6.203   5.097  15.068  0.00  0.00    +0.000 A 
ATOM     14  C   UNL     1       7.401   5.183  14.351  0.00  0.00    +0.000 A 
ATOM     15  C   UNL     1       7.526   4.497  13.141  0.00  0.00    +0.000 A 
ATOM     16  C   UNL     1       6.479   3.709  12.656  0.00  0.00    +0.000 A 
ATOM     17  C   UNL     1       5.285   3.628  13.378  0.00  0.00    +0.000 A 
ATOM     18  C   UNL     1       5.146   4.321  14.588  0.00  0.00    +0.000 A 
BRANCH  16  19
ATOM     19  O   UNL     1       6.716   3.107  11.451  0.00  0.00    +0.000 OA
ATOM     20  C   UNL     1       6.150   1.813  11.276  0.00  0.00    +0.000 C 
ENDBRANCH  16  19
ENDBRANCH  10  13
ENDBRANCH   9  10
BRANCH   1  22
ATOM     21  C   UNL     1       1.274   2.861  21.189  0.00  0.00    +0.000 C 
ATOM     22  C   UNL     1       2.677   3.325  20.821  0.00  0.00    +0.000 C 
ENDBRANCH   1  22
TORSDOF 4
ENDMDL
MODEL 8
REMARK VINA RESULT:      -6.6      2.887      4.203
REMARK  Name = 
REMARK  6 active torsions:
REMARK  status: ('A' for Active; 'I' for Inactive)
REMARK    1  A    between atoms: C_1  and  C_2
REMARK    2  A    between atoms: C_2  and  N_3
REMARK    3  A    between atoms: N_11  and  S_12
REMARK    4  A    between atoms: S_12  and  C_15
REMARK    5  A    between atoms: C_18  and  O_19
REMARK    6  A    between atoms: O_19  and  C_20
REMARK                            x       y       z     vdW  Elec       q    Type
REMARK                         _______ _______ _______ _____ _____    ______ ____
ROOT
ATOM      1  N   UNL     1       1.176   3.687  19.692  0.00  0.00    +0.000 N 
ATOM      2  C   UNL     1       1.009   2.861  18.562  0.00  0.00    +0.000 C 
ATOM      3  O   UNL     1       0.385   1.814  18.510  0.00  0.00    +0.000 OA
ATOM      4  C   UNL     1       1.825   3.483  17.412  0.00  0.00    +0.000 C 
ATOM      5  C   UNL     1       2.856   4.200  18.256  0.00  0.00    +0.000 C 
ATOM      6  C   UNL     1       1.942   4.818  19.292  0.00  0.00    +0.000 C 
ATOM      7  C   UNL     1       2.917   5.605  20.122  0.00  0.00    +0.000 C 
ATOM      8  C   UNL     1       3.804   6.231  19.017  0.00  0.00    +0.000 C 
ATOM      9  N   UNL     1       3.652   5.355  17.781  0.00  0.00    +0.000 NA
ENDROOT
BRANCH   9  10
ATOM     10  S   UNL     1       5.120   4.881  17.035  0.00  0.00    +0.000 S 
ATOM     11  O   UNL     1       5.480   3.600  17.601  0.00  0.00    +0.000 OA
ATOM     12  O   UNL     1       4.955   5.053  15.605  0.00  0.00    +0.000 OA
BRANCH  10  13
ATOM     13  C   UNL     1       6.296   6.090  17.586  0.00  0.00    +0.000 A 
ATOM     14  C   UNL     1       7.209   5.766  18.594  0.00  0.00    +0.000 A 
ATOM     15  C   UNL     1       8.152   6.715  18.996  0.00  0.00    +0.000 A 
ATOM     16  C   UNL     1       8.205   7.970  18.385  0.00  0.00    +0.000 A 
ATOM     17  C   UNL     1       7.289   8.287  17.378  0.00  0.00    +0.000 A 
ATOM     18  C   UNL     1       6.333   7.346  16.976  0.00  0.00    +0.000 A 
BRANCH  16  19
ATOM     19  O   UNL     1       9.157   8.817  18.882  0.00  0.00    +0.000 OA
ATOM     20  C   UNL     1       8.948  10.204  18.643  0.00  0.00    +0.000 C 
ENDBRANCH  16  19
ENDBRANCH  10  13
ENDBRANCH   9  10
BRANCH   1  22
ATOM     21  C   UNL     1       2.293   2.547  21.578  0.00  0.00    +0.000 C 
ATOM     22  C   UNL     1       1.029   3.222  21.062  0.00  0.00    +0.000 C 
ENDBRANCH   1  22
TORSDOF 4
ENDMDL
MODEL 9
REMARK VINA RESULT:      -6.5      1.032      1.225
REMARK  Name = 
REMARK  6 active torsions:
REMARK  status: ('A' for Active; 'I' for Inactive)
REMARK    1  A    between atoms: C_1  and  C_2
REMARK    2  A    between atoms: C_2  and  N_3
REMARK    3  A    between atoms: N_11  and  S_12
REMARK    4  A    between atoms: S_12  and  C_15
REMARK    5  A    between atoms: C_18  and  O_19
REMARK    6  A    between atoms: O_19  and  C_20
REMARK                            x       y       z     vdW  Elec       q    Type
REMARK                         _______ _______ _______ _____ _____    ______ ____
ROOT
ATOM      1  N   UNL     1       1.447   3.455  19.582  0.00  0.00    +0.000 N 
ATOM      2  C   UNL     1       2.012   2.590  18.623  0.00  0.00    +0.000 C 
ATOM      3  O   UNL     1       1.922   1.374  18.595  0.00  0.00    +0.000 OA
ATOM      4  C   UNL     1       2.833   3.458  17.649  0.00  0.00    +0.000 C 
ATOM      5  C   UNL     1       3.144   4.596  18.598  0.00  0.00    +0.000 C 
ATOM      6  C   UNL     1       1.772   4.790  19.208  0.00  0.00    +0.000 C 
ATOM      7  C   UNL     1       2.010   5.964  20.116  0.00  0.00    +0.000 C 
ATOM      8  C   UNL     1       2.876   6.868  19.203  0.00  0.00    +0.000 C 
ATOM      9  N   UNL     1       3.509   5.960  18.156  0.00  0.00    +0.000 NA
ENDROOT
BRANCH   9  10
ATOM     10  S   UNL     1       5.198   6.155  17.947  0.00  0.00    +0.000 S 
ATOM     11  O   UNL     1       5.437   7.570  17.775  0.00  0.00    +0.000 OA
ATOM     12  O   UNL     1       5.854   5.402  18.998  0.00  0.00    +0.000 OA
BRANCH  10  13
ATOM     13  C   UNL     1       5.541   5.335  16.410  0.00  0.00    +0.000 A 
ATOM     14  C   UNL     1       5.292   5.990  15.200  0.00  0.00    +0.000 A 
ATOM     15  C   UNL     1       5.597   5.348  13.998  0.00  0.00    +0.000 A 
ATOM     16  C   UNL     1       6.170   4.073  13.995  0.00  0.00    +0.000 A 
ATOM     17  C   UNL     1       6.416   3.425  15.209  0.00  0.00    +0.000 A 
ATOM     18  C   UNL     1       6.103   4.056  16.420  0.00  0.00    +0.000 A 
BRANCH  16  19
ATOM     19  O   UNL     1       6.400   3.544  12.755  0.00  0.00    +0.000 OA
ATOM     20  C   UNL     1       5.250   3.124  12.031  0.00  0.00    +0.000 C 
ENDBRANCH  16  19
ENDBRANCH  10  13
ENDBRANCH   9  10
BRANCH   1  22
ATOM     21  C   UNL     1       2.265   2.733  21.799  0.00  0.00    +0.000 C 
ATOM     22  C   UNL     1       1.059   3.036  20.920  0.00  0.00    +0.000 C 
ENDBRANCH   1  22
TORSDOF 4
ENDMDL
