MODEL 1
REMARK VINA RESULT:      -7.2      0.000      0.000
REMARK  Name = 
REMARK  12 active torsions:
REMARK  status: ('A' for Active; 'I' for Inactive)
REMARK    1  A    between atoms: C_1  and  O_2
REMARK    2  A    between atoms: O_2  and  C_3
REMARK    3  A    between atoms: C_6  and  C_7
REMARK    4  A    between atoms: C_7  and  N_8
REMARK    5  A    between atoms: N_8  and  C_9
REMARK    6  A    between atoms: N_12  and  C_13
REMARK    7  A    between atoms: N_12  and  C_16
REMARK    8  A    between atoms: C_13  and  C_14
REMARK    9  A    between atoms: C_14  and  O_15
REMARK   10  A    between atoms: C_16  and  C_17
REMARK   11  A    between atoms: C_17  and  O_18
REMARK   12  A    between atoms: N_24  and  C_25
REMARK                            x       y       z     vdW  Elec       q    Type
REMARK                         _______ _______ _______ _____ _____    ______ ____
ROOT
ATOM      1  C   UNL     1       3.349   6.069  19.112  0.00  0.00    +0.000 A 
ATOM      2  N   UNL     1       3.009   4.808  19.541  0.00  0.00    +0.000 NA
ATOM      3  C   UNL     1       3.417   3.693  18.864  0.00  0.00    +0.000 A 
ATOM      4  N   UNL     1       3.050   2.454  19.359  0.00  0.00    +0.000 N 
ATOM      5  N   UNL     1       4.141   3.728  17.735  0.00  0.00    +0.000 NA
ATOM      6  C   UNL     1       4.459   4.965  17.325  0.00  0.00    +0.000 A 
ATOM      7  C   UNL     1       4.112   6.156  17.933  0.00  0.00    +0.000 A 
ATOM      8  N   UNL     1       4.626   7.228  17.232  0.00  0.00    +0.000 NA
ATOM      9  C   UNL     1       5.261   6.680  16.195  0.00  0.00    +0.000 A 
ATOM     10  N   UNL     1       5.180   5.319  16.218  0.00  0.00    +0.000 N 
ENDROOT
BRANCH  10  11
ATOM     11  C   UNL     1       5.772   4.423  15.237  0.00  0.00    +0.000 C 
ATOM     12  C   UNL     1       4.866   4.084  14.051  0.00  0.00    +0.000 C 
ATOM     13  C   UNL     1       5.812   3.635  12.944  0.00  0.00    +0.000 C 
ATOM     14  C   UNL     1       7.171   4.259  13.244  0.00  0.00    +0.000 C 
ATOM     15  C   UNL     1       7.063   4.947  14.601  0.00  0.00    +0.000 C 
ENDBRANCH  10  11
BRANCH   1  16
ATOM     16  N   UNL     1       2.939   7.239  19.774  0.00  0.00    +0.000 N 
ATOM     17  H   UNL     1       2.832   7.019  20.763  0.00  0.00    +0.000 HD
BRANCH  16  18
ATOM     18  C   UNL     1       1.807   7.951  19.211  0.00  0.00    +0.000 C 
BRANCH  18  22
ATOM     19  C   UNL     1      -0.107  10.431  22.248  0.00  0.00    +0.000 A 
ATOM     20  C   UNL     1       0.616   9.293  22.603  0.00  0.00    +0.000 A 
ATOM     21  C   UNL     1       1.243   8.505  21.629  0.00  0.00    +0.000 A 
ATOM     22  C   UNL     1       1.126   8.816  20.263  0.00  0.00    +0.000 A 
ATOM     23  C   UNL     1       0.390   9.961  19.922  0.00  0.00    +0.000 A 
ATOM     24  C   UNL     1      -0.217  10.763  20.899  0.00  0.00    +0.000 A 
BRANCH  19  26
ATOM     25  C   UNL     1      -1.788  11.943  22.948  0.00  0.00    +0.000 C 
ATOM     26  O   UNL     1      -0.670  11.126  23.284  0.00  0.00    +0.000 OA
ENDBRANCH  19  26
ENDBRANCH  18  22
ENDBRANCH  16  18
ENDBRANCH   1  16
BRANCH   4  27
ATOM     27  C   UNL     1       3.805   1.220  19.040  0.00  0.00    +0.000 C 
BRANCH  27  28
ATOM     28  C   UNL     1       4.944   0.851  20.014  0.00  0.00    +0.000 C 
BRANCH  28  29
ATOM     29  O   UNL     1       5.074   1.769  21.093  0.00  0.00    +0.000 OA
ATOM     30  H   UNL     1       4.481   2.512  20.877  0.00  0.00    +0.000 HD
ENDBRANCH  28  29
ENDBRANCH  27  28
ENDBRANCH   4  27
BRANCH   4  31
ATOM     31  C   UNL     1       1.649   2.291  19.804  0.00  0.00    +0.000 C 
BRANCH  31  32
ATOM     32  C   UNL     1       1.400   2.525  21.309  0.00  0.00    +0.000 C 
BRANCH  32  33
ATOM     33  O   UNL     1       2.613   2.747  22.032  0.00  0.00    +0.000 OA
ATOM     34  H   UNL     1       2.911   3.640  21.782  0.00  0.00    +0.000 HD
ENDBRANCH  32  33
ENDBRANCH  31  32
ENDBRANCH   4  31
TORSDOF 11
ENDMDL
MODEL 2
REMARK VINA RESULT:      -7.0      0.824      1.204
REMARK  Name = 
REMARK  12 active torsions:
REMARK  status: ('A' for Active; 'I' for Inactive)
REMARK    1  A    between atoms: C_1  and  O_2
REMARK    2  A    between atoms: O_2  and  C_3
REMARK    3  A    between atoms: C_6  and  C_7
REMARK    4  A    between atoms: C_7  and  N_8
REMARK    5  A    between atoms: N_8  and  C_9
REMARK    6  A    between atoms: N_12  and  C_13
REMARK    7  A    between atoms: N_12  and  C_16
REMARK    8  A    between atoms: C_13  and  C_14
REMARK    9  A    between atoms: C_14  and  O_15
REMARK   10  A    between atoms: C_16  and  C_17
REMARK   11  A    between atoms: C_17  and  O_18
REMARK   12  A    between atoms: N_24  and  C_25
REMARK                            x       y       z     vdW  Elec       q    Type
REMARK                         _______ _______ _______ _____ _____    ______ ____
ROOT
ATOM      1  C   UNL     1       3.580   6.245  18.156  0.00  0.00    +0.000 A 
ATOM      2  N   UNL     1       3.115   5.042  18.632  0.00  0.00    +0.000 NA
ATOM      3  C   UNL     1       3.422   3.865  18.009  0.00  0.00    +0.000 A 
ATOM      4  N   UNL     1       2.932   2.690  18.551  0.00  0.00    +0.000 N 
ATOM      5  N   UNL     1       4.161   3.782  16.893  0.00  0.00    +0.000 NA
ATOM      6  C   UNL     1       4.602   4.964  16.437  0.00  0.00    +0.000 A 
ATOM      7  C   UNL     1       4.363   6.208  16.988  0.00  0.00    +0.000 A 
ATOM      8  N   UNL     1       4.987   7.195  16.252  0.00  0.00    +0.000 NA
ATOM      9  C   UNL     1       5.580   6.544  15.249  0.00  0.00    +0.000 A 
ATOM     10  N   UNL     1       5.368   5.198  15.328  0.00  0.00    +0.000 N 
ENDROOT
BRANCH  10  11
ATOM     11  C   UNL     1       5.883   4.209  14.395  0.00  0.00    +0.000 C 
ATOM     12  C   UNL     1       4.887   3.758  13.325  0.00  0.00    +0.000 C 
ATOM     13  C   UNL     1       5.744   3.200  12.196  0.00  0.00    +0.000 C 
ATOM     14  C   UNL     1       7.121   3.845  12.324  0.00  0.00    +0.000 C 
ATOM     15  C   UNL     1       7.118   4.663  13.611  0.00  0.00    +0.000 C 
ENDBRANCH  10  11
BRANCH   1  16
ATOM     16  N   UNL     1       3.276   7.476  18.762  0.00  0.00    +0.000 N 
ATOM     17  H   UNL     1       3.481   7.397  19.756  0.00  0.00    +0.000 HD
BRANCH  16  18
ATOM     18  C   UNL     1       1.970   8.043  18.481  0.00  0.00    +0.000 C 
BRANCH  18  22
ATOM     19  C   UNL     1       0.313  10.076  21.968  0.00  0.00    +0.000 A 
ATOM     20  C   UNL     1       0.289  10.677  20.710  0.00  0.00    +0.000 A 
ATOM     21  C   UNL     1       0.808  10.017  19.588  0.00  0.00    +0.000 A 
ATOM     22  C   UNL     1       1.405   8.750  19.705  0.00  0.00    +0.000 A 
ATOM     23  C   UNL     1       1.425   8.162  20.979  0.00  0.00    +0.000 A 
ATOM     24  C   UNL     1       0.884   8.812  22.098  0.00  0.00    +0.000 A 
BRANCH  19  26
ATOM     25  C   UNL     1      -1.379  11.581  22.658  0.00  0.00    +0.000 C 
ATOM     26  O   UNL     1      -0.227  10.810  22.989  0.00  0.00    +0.000 OA
ENDBRANCH  19  26
ENDBRANCH  18  22
ENDBRANCH  16  18
ENDBRANCH   1  16
BRANCH   4  27
ATOM     27  C   UNL     1       3.569   1.377  18.296  0.00  0.00    +0.000 C 
BRANCH  27  28
ATOM     28  C   UNL     1       4.502   0.850  19.406  0.00  0.00    +0.000 C 
BRANCH  28  29
ATOM     29  O   UNL     1       5.083   1.889  20.185  0.00  0.00    +0.000 OA
ATOM     30  H   UNL     1       5.795   1.464  20.698  0.00  0.00    +0.000 HD
ENDBRANCH  28  29
ENDBRANCH  27  28
ENDBRANCH   4  27
BRANCH   4  31
ATOM     31  C   UNL     1       1.516   2.681  18.978  0.00  0.00    +0.000 C 
BRANCH  31  32
ATOM     32  C   UNL     1       1.279   2.887  20.489  0.00  0.00    +0.000 C 
BRANCH  32  33
ATOM     33  O   UNL     1       2.501   3.041  21.215  0.00  0.00    +0.000 OA
ATOM     34  H   UNL     1       2.834   2.139  21.367  0.00  0.00    +0.000 HD
ENDBRANCH  32  33
ENDBRANCH  31  32
ENDBRANCH   4  31
TORSDOF 11
ENDMDL
MODEL 3
REMARK VINA RESULT:      -7.0      1.643      2.208
REMARK  Name = 
REMARK  12 active torsions:
REMARK  status: ('A' for Active; 'I' for Inactive)
REMARK    1  A    between atoms: C_1  and  O_2
REMARK    2  A    between atoms: O_2  and  C_3
REMARK    3  A    between atoms: C_6  and  C_7
REMARK    4  A    between atoms: C_7  and  N_8
REMARK    5  A    between atoms: N_8  and  C_9
REMARK    6  A    between atoms: N_12  and  C_13
REMARK    7  A    between atoms: N_12  and  C_16
REMARK    8  A    between atoms: C_13  and  C_14
REMARK    9  A    between atoms: C_14  and  O_15
REMARK   10  A    between atoms: C_16  and  C_17
REMARK   11  A    between atoms: C_17  and  O_18
REMARK   12  A    between atoms: N_24  and  C_25
REMARK                            x       y       z     vdW  Elec       q    Type
REMARK                         _______ _______ _______ _____ _____    ______ ____
ROOT
ATOM      1  C   UNL     1       1.965   6.633  20.027  0.00  0.00    +0.000 A 
ATOM      2  N   UNL     1       2.110   5.350  20.497  0.00  0.00    +0.000 NA
ATOM      3  C   UNL     1       2.987   4.476  19.918  0.00  0.00    +0.000 A 
ATOM      4  N   UNL     1       3.093   3.204  20.451  0.00  0.00    +0.000 N 
ATOM      5  N   UNL     1       3.742   4.774  18.850  0.00  0.00    +0.000 NA
ATOM      6  C   UNL     1       3.585   6.027  18.398  0.00  0.00    +0.000 A 
ATOM      7  C   UNL     1       2.740   6.994  18.909  0.00  0.00    +0.000 A 
ATOM      8  N   UNL     1       2.854   8.168  18.192  0.00  0.00    +0.000 NA
ATOM      9  C   UNL     1       3.749   7.897  17.241  0.00  0.00    +0.000 A 
ATOM     10  N   UNL     1       4.209   6.616  17.334  0.00  0.00    +0.000 N 
ENDROOT
BRANCH  10  11
ATOM     11  C   UNL     1       5.196   6.010  16.454  0.00  0.00    +0.000 C 
ATOM     12  C   UNL     1       6.564   5.768  17.096  0.00  0.00    +0.000 C 
ATOM     13  C   UNL     1       7.216   4.686  16.245  0.00  0.00    +0.000 C 
ATOM     14  C   UNL     1       6.087   3.922  15.560  0.00  0.00    +0.000 C 
ATOM     15  C   UNL     1       4.786   4.647  15.888  0.00  0.00    +0.000 C 
ENDBRANCH  10  11
BRANCH   1  16
ATOM     16  N   UNL     1       1.066   7.557  20.588  0.00  0.00    +0.000 N 
ATOM     17  H   UNL     1       0.604   8.049  19.825  0.00  0.00    +0.000 HD
BRANCH  16  18
ATOM     18  C   UNL     1       1.586   8.438  21.617  0.00  0.00    +0.000 C 
BRANCH  18  22
ATOM     19  C   UNL     1      -1.120  11.771  22.393  0.00  0.00    +0.000 A 
ATOM     20  C   UNL     1      -1.092  10.661  23.235  0.00  0.00    +0.000 A 
ATOM     21  C   UNL     1      -0.213   9.597  22.994  0.00  0.00    +0.000 A 
ATOM     22  C   UNL     1       0.637   9.601  21.873  0.00  0.00    +0.000 A 
ATOM     23  C   UNL     1       0.592  10.724  21.034  0.00  0.00    +0.000 A 
ATOM     24  C   UNL     1      -0.271  11.800  21.289  0.00  0.00    +0.000 A 
BRANCH  19  26
ATOM     25  C   UNL     1      -3.152  12.326  23.475  0.00  0.00    +0.000 C 
ATOM     26  O   UNL     1      -2.014  12.751  22.730  0.00  0.00    +0.000 OA
ENDBRANCH  19  26
ENDBRANCH  18  22
ENDBRANCH  16  18
ENDBRANCH   1  16
BRANCH   4  27
ATOM     27  C   UNL     1       4.299   2.366  20.262  0.00  0.00    +0.000 C 
BRANCH  27  28
ATOM     28  C   UNL     1       4.208   1.283  19.167  0.00  0.00    +0.000 C 
BRANCH  28  29
ATOM     29  O   UNL     1       3.964   1.820  17.872  0.00  0.00    +0.000 OA
ATOM     30  H   UNL     1       4.844   2.013  17.499  0.00  0.00    +0.000 HD
ENDBRANCH  28  29
ENDBRANCH  27  28
ENDBRANCH   4  27
BRANCH   4  31
ATOM     31  C   UNL     1       1.833   2.506  20.792  0.00  0.00    +0.000 C 
BRANCH  31  32
ATOM     32  C   UNL     1       0.728   2.574  19.717  0.00  0.00    +0.000 C 
BRANCH  32  33
ATOM     33  O   UNL     1       1.035   1.779  18.570  0.00  0.00    +0.000 OA
ATOM     34  H   UNL     1       0.693   0.888  18.766  0.00  0.00    +0.000 HD
ENDBRANCH  32  33
ENDBRANCH  31  32
ENDBRANCH   4  31
TORSDOF 11
ENDMDL
MODEL 4
REMARK VINA RESULT:      -7.0      1.401      1.755
REMARK  Name = 
REMARK  12 active torsions:
REMARK  status: ('A' for Active; 'I' for Inactive)
REMARK    1  A    between atoms: C_1  and  O_2
REMARK    2  A    between atoms: O_2  and  C_3
REMARK    3  A    between atoms: C_6  and  C_7
REMARK    4  A    between atoms: C_7  and  N_8
REMARK    5  A    between atoms: N_8  and  C_9
REMARK    6  A    between atoms: N_12  and  C_13
REMARK    7  A    between atoms: N_12  and  C_16
REMARK    8  A    between atoms: C_13  and  C_14
REMARK    9  A    between atoms: C_14  and  O_15
REMARK   10  A    between atoms: C_16  and  C_17
REMARK   11  A    between atoms: C_17  and  O_18
REMARK   12  A    between atoms: N_24  and  C_25
REMARK                            x       y       z     vdW  Elec       q    Type
REMARK                         _______ _______ _______ _____ _____    ______ ____
ROOT
ATOM      1  C   UNL     1       2.613   6.649  19.406  0.00  0.00    +0.000 A 
ATOM      2  N   UNL     1       2.487   5.425  20.019  0.00  0.00    +0.000 NA
ATOM      3  C   UNL     1       3.164   4.329  19.562  0.00  0.00    +0.000 A 
ATOM      4  N   UNL     1       3.001   3.131  20.235  0.00  0.00    +0.000 N 
ATOM      5  N   UNL     1       3.968   4.342  18.489  0.00  0.00    +0.000 NA
ATOM      6  C   UNL     1       4.076   5.541  17.898  0.00  0.00    +0.000 A 
ATOM      7  C   UNL     1       3.450   6.713  18.277  0.00  0.00    +0.000 A 
ATOM      8  N   UNL     1       3.808   7.749  17.439  0.00  0.00    +0.000 NA
ATOM      9  C   UNL     1       4.631   7.194  16.548  0.00  0.00    +0.000 A 
ATOM     10  N   UNL     1       4.814   5.864  16.793  0.00  0.00    +0.000 N 
ENDROOT
BRANCH  10  11
ATOM     11  C   UNL     1       5.656   4.972  16.011  0.00  0.00    +0.000 C 
ATOM     12  C   UNL     1       5.024   4.471  14.711  0.00  0.00    +0.000 C 
ATOM     13  C   UNL     1       6.198   4.050  13.836  0.00  0.00    +0.000 C 
ATOM     14  C   UNL     1       7.417   4.824  14.329  0.00  0.00    +0.000 C 
ATOM     15  C   UNL     1       6.995   5.582  15.583  0.00  0.00    +0.000 C 
ENDBRANCH  10  11
BRANCH   1  16
ATOM     16  N   UNL     1       1.925   7.795  19.838  0.00  0.00    +0.000 N 
ATOM     17  H   UNL     1       2.565   8.586  19.783  0.00  0.00    +0.000 HD
BRANCH  16  18
ATOM     18  C   UNL     1       1.224   7.703  21.106  0.00  0.00    +0.000 C 
BRANCH  18  22
ATOM     19  C   UNL     1      -0.995  11.369  21.926  0.00  0.00    +0.000 A 
ATOM     20  C   UNL     1      -0.567  11.065  20.635  0.00  0.00    +0.000 A 
ATOM     21  C   UNL     1       0.133   9.880  20.369  0.00  0.00    +0.000 A 
ATOM     22  C   UNL     1       0.459   8.986  21.404  0.00  0.00    +0.000 A 
ATOM     23  C   UNL     1       0.025   9.310  22.698  0.00  0.00    +0.000 A 
ATOM     24  C   UNL     1      -0.697  10.483  22.959  0.00  0.00    +0.000 A 
BRANCH  19  26
ATOM     25  C   UNL     1      -1.181  13.436  23.065  0.00  0.00    +0.000 C 
ATOM     26  O   UNL     1      -1.674  12.549  22.065  0.00  0.00    +0.000 OA
ENDBRANCH  19  26
ENDBRANCH  18  22
ENDBRANCH  16  18
ENDBRANCH   1  16
BRANCH   4  27
ATOM     27  C   UNL     1       4.007   2.045  20.171  0.00  0.00    +0.000 C 
BRANCH  27  28
ATOM     28  C   UNL     1       3.839   1.032  19.020  0.00  0.00    +0.000 C 
BRANCH  28  29
ATOM     29  O   UNL     1       3.900   1.635  17.733  0.00  0.00    +0.000 OA
ATOM     30  H   UNL     1       3.984   0.898  17.102  0.00  0.00    +0.000 HD
ENDBRANCH  28  29
ENDBRANCH  27  28
ENDBRANCH   4  27
BRANCH   4  31
ATOM     31  C   UNL     1       1.622   2.751  20.616  0.00  0.00    +0.000 C 
BRANCH  31  32
ATOM     32  C   UNL     1       0.677   2.423  19.441  0.00  0.00    +0.000 C 
BRANCH  32  33
ATOM     33  O   UNL     1       1.105   3.021  18.215  0.00  0.00    +0.000 OA
ATOM     34  H   UNL     1       1.322   2.280  17.621  0.00  0.00    +0.000 HD
ENDBRANCH  32  33
ENDBRANCH  31  32
ENDBRANCH   4  31
TORSDOF 11
ENDMDL
MODEL 5
REMARK VINA RESULT:      -6.9      1.086      1.221
REMARK  Name = 
REMARK  12 active torsions:
REMARK  status: ('A' for Active; 'I' for Inactive)
REMARK    1  A    between atoms: C_1  and  O_2
REMARK    2  A    between atoms: O_2  and  C_3
REMARK    3  A    between atoms: C_6  and  C_7
REMARK    4  A    between atoms: C_7  and  N_8
REMARK    5  A    between atoms: N_8  and  C_9
REMARK    6  A    between atoms: N_12  and  C_13
REMARK    7  A    between atoms: N_12  and  C_16
REMARK    8  A    between atoms: C_13  and  C_14
REMARK    9  A    between atoms: C_14  and  O_15
REMARK   10  A    between atoms: C_16  and  C_17
REMARK   11  A    between atoms: C_17  and  O_18
REMARK   12  A    between atoms: N_24  and  C_25
REMARK                            x       y       z     vdW  Elec       q    Type
REMARK                         _______ _______ _______ _____ _____    ______ ____
ROOT
ATOM      1  C   UNL     1       2.754   6.546  19.197  0.00  0.00    +0.000 A 
ATOM      2  N   UNL     1       2.590   5.304  19.762  0.00  0.00    +0.000 NA
ATOM      3  C   UNL     1       3.232   4.206  19.262  0.00  0.00    +0.000 A 
ATOM      4  N   UNL     1       3.032   2.988  19.889  0.00  0.00    +0.000 N 
ATOM      5  N   UNL     1       4.035   4.235  18.188  0.00  0.00    +0.000 NA
ATOM      6  C   UNL     1       4.180   5.451  17.643  0.00  0.00    +0.000 A 
ATOM      7  C   UNL     1       3.591   6.627  18.069  0.00  0.00    +0.000 A 
ATOM      8  N   UNL     1       3.981   7.683  17.270  0.00  0.00    +0.000 NA
ATOM      9  C   UNL     1       4.784   7.137  16.356  0.00  0.00    +0.000 A 
ATOM     10  N   UNL     1       4.926   5.794  16.550  0.00  0.00    +0.000 N 
ENDROOT
BRANCH  10  11
ATOM     11  C   UNL     1       5.738   4.907  15.732  0.00  0.00    +0.000 C 
ATOM     12  C   UNL     1       5.037   4.363  14.485  0.00  0.00    +0.000 C 
ATOM     13  C   UNL     1       6.163   3.953  13.544  0.00  0.00    +0.000 C 
ATOM     14  C   UNL     1       7.391   4.766  13.943  0.00  0.00    +0.000 C 
ATOM     15  C   UNL     1       7.031   5.539  15.207  0.00  0.00    +0.000 C 
ENDBRANCH  10  11
BRANCH   1  16
ATOM     16  N   UNL     1       2.103   7.696  19.674  0.00  0.00    +0.000 N 
ATOM     17  H   UNL     1       2.766   8.469  19.643  0.00  0.00    +0.000 HD
BRANCH  16  18
ATOM     18  C   UNL     1       1.407   7.579  20.942  0.00  0.00    +0.000 C 
BRANCH  18  22
ATOM     19  C   UNL     1      -0.834  11.210  21.856  0.00  0.00    +0.000 A 
ATOM     20  C   UNL     1      -0.452  10.330  22.868  0.00  0.00    +0.000 A 
ATOM     21  C   UNL     1       0.280   9.172  22.576  0.00  0.00    +0.000 A 
ATOM     22  C   UNL     1       0.614   8.843  21.251  0.00  0.00    +0.000 A 
ATOM     23  C   UNL     1       0.218   9.737  20.244  0.00  0.00    +0.000 A 
ATOM     24  C   UNL     1      -0.493  10.908  20.540  0.00  0.00    +0.000 A 
BRANCH  19  26
ATOM     25  C   UNL     1      -2.617  12.064  23.158  0.00  0.00    +0.000 C 
ATOM     26  O   UNL     1      -1.540  12.311  22.260  0.00  0.00    +0.000 OA
ENDBRANCH  19  26
ENDBRANCH  18  22
ENDBRANCH  16  18
ENDBRANCH   1  16
BRANCH   4  27
ATOM     27  C   UNL     1       4.004   1.875  19.781  0.00  0.00    +0.000 C 
BRANCH  27  28
ATOM     28  C   UNL     1       3.888   0.994  18.520  0.00  0.00    +0.000 C 
BRANCH  28  29
ATOM     29  O   UNL     1       2.887   1.446  17.615  0.00  0.00    +0.000 OA
ATOM     30  H   UNL     1       2.630   0.662  17.097  0.00  0.00    +0.000 HD
ENDBRANCH  28  29
ENDBRANCH  27  28
ENDBRANCH   4  27
BRANCH   4  31
ATOM     31  C   UNL     1       1.643   2.638  20.259  0.00  0.00    +0.000 C 
BRANCH  31  32
ATOM     32  C   UNL     1       1.351   2.601  21.774  0.00  0.00    +0.000 C 
BRANCH  32  33
ATOM     33  O   UNL     1       2.255   3.416  22.522  0.00  0.00    +0.000 OA
ATOM     34  H   UNL     1       3.147   3.096  22.298  0.00  0.00    +0.000 HD
ENDBRANCH  32  33
ENDBRANCH  31  32
ENDBRANCH   4  31
TORSDOF 11
ENDMDL
MODEL 6
REMARK VINA RESULT:      -6.8      2.161      8.214
REMARK  Name = 
REMARK  12 active torsions:
REMARK  status: ('A' for Active; 'I' for Inactive)
REMARK    1  A    between atoms: C_1  and  O_2
REMARK    2  A    between atoms: O_2  and  C_3
REMARK    3  A    between atoms: C_6  and  C_7
REMARK    4  A    between atoms: C_7  and  N_8
REMARK    5  A    between atoms: N_8  and  C_9
REMARK    6  A    between atoms: N_12  and  C_13
REMARK    7  A    between atoms: N_12  and  C_16
REMARK    8  A    between atoms: C_13  and  C_14
REMARK    9  A    between atoms: C_14  and  O_15
REMARK   10  A    between atoms: C_16  and  C_17
REMARK   11  A    between atoms: C_17  and  O_18
REMARK   12  A    between atoms: N_24  and  C_25
REMARK                            x       y       z     vdW  Elec       q    Type
REMARK                         _______ _______ _______ _____ _____    ______ ____
ROOT
ATOM      1  C   UNL     1       3.788   6.709  17.561  0.00  0.00    +0.000 A 
ATOM      2  N   UNL     1       3.739   5.526  18.259  0.00  0.00    +0.000 NA
ATOM      3  C   UNL     1       2.925   5.376  19.346  0.00  0.00    +0.000 A 
ATOM      4  N   UNL     1       2.915   4.153  19.994  0.00  0.00    +0.000 N 
ATOM      5  N   UNL     1       2.142   6.351  19.833  0.00  0.00    +0.000 NA
ATOM      6  C   UNL     1       2.205   7.501  19.146  0.00  0.00    +0.000 A 
ATOM      7  C   UNL     1       2.981   7.761  18.032  0.00  0.00    +0.000 A 
ATOM      8  N   UNL     1       2.777   9.051  17.587  0.00  0.00    +0.000 NA
ATOM      9  C   UNL     1       1.897   9.569  18.446  0.00  0.00    +0.000 A 
ATOM     10  N   UNL     1       1.532   8.663  19.399  0.00  0.00    +0.000 N 
ENDROOT
BRANCH  10  11
ATOM     11  C   UNL     1       0.586   8.910  20.475  0.00  0.00    +0.000 C 
ATOM     12  C   UNL     1       1.192   8.881  21.880  0.00  0.00    +0.000 C 
ATOM     13  C   UNL     1       0.220   9.672  22.748  0.00  0.00    +0.000 C 
ATOM     14  C   UNL     1      -0.544  10.607  21.817  0.00  0.00    +0.000 C 
ATOM     15  C   UNL     1      -0.131  10.261  20.390  0.00  0.00    +0.000 C 
ENDBRANCH  10  11
BRANCH   1  16
ATOM     16  N   UNL     1       4.620   6.906  16.446  0.00  0.00    +0.000 N 
ATOM     17  H   UNL     1       4.083   6.685  15.609  0.00  0.00    +0.000 HD
BRANCH  16  18
ATOM     18  C   UNL     1       5.927   6.274  16.481  0.00  0.00    +0.000 C 
BRANCH  18  22
ATOM     19  C   UNL     1       6.505   3.764  12.959  0.00  0.00    +0.000 A 
ATOM     20  C   UNL     1       5.410   3.576  13.801  0.00  0.00    +0.000 A 
ATOM     21  C   UNL     1       5.217   4.391  14.924  0.00  0.00    +0.000 A 
ATOM     22  C   UNL     1       6.143   5.395  15.256  0.00  0.00    +0.000 A 
ATOM     23  C   UNL     1       7.242   5.568  14.401  0.00  0.00    +0.000 A 
ATOM     24  C   UNL     1       7.422   4.768  13.263  0.00  0.00    +0.000 A 
BRANCH  19  26
ATOM     25  C   UNL     1       5.355   2.357  11.441  0.00  0.00    +0.000 C 
ATOM     26  O   UNL     1       6.588   2.913  11.890  0.00  0.00    +0.000 OA
ENDBRANCH  19  26
ENDBRANCH  18  22
ENDBRANCH  16  18
ENDBRANCH   1  16
BRANCH   4  27
ATOM     27  C   UNL     1       1.771   3.707  20.823  0.00  0.00    +0.000 C 
BRANCH  27  28
ATOM     28  C   UNL     1       0.621   3.007  20.070  0.00  0.00    +0.000 C 
BRANCH  28  29
ATOM     29  O   UNL     1       0.912   2.779  18.696  0.00  0.00    +0.000 OA
ATOM     30  H   UNL     1       0.115   3.059  18.210  0.00  0.00    +0.000 HD
ENDBRANCH  28  29
ENDBRANCH  27  28
ENDBRANCH   4  27
BRANCH   4  31
ATOM     31  C   UNL     1       4.224   3.514  20.251  0.00  0.00    +0.000 C 
BRANCH  31  32
ATOM     32  C   UNL     1       4.368   2.068  19.730  0.00  0.00    +0.000 C 
BRANCH  32  33
ATOM     33  O   UNL     1       5.403   1.348  20.402  0.00  0.00    +0.000 OA
ATOM     34  H   UNL     1       4.956   0.626  20.879  0.00  0.00    +0.000 HD
ENDBRANCH  32  33
ENDBRANCH  31  32
ENDBRANCH   4  31
TORSDOF 11
ENDMDL
MODEL 7
REMARK VINA RESULT:      -6.8      1.393      1.609
REMARK  Name = 
REMARK  12 active torsions:
REMARK  status: ('A' for Active; 'I' for Inactive)
REMARK    1  A    between atoms: C_1  and  O_2
REMARK    2  A    between atoms: O_2  and  C_3
REMARK    3  A    between atoms: C_6  and  C_7
REMARK    4  A    between atoms: C_7  and  N_8
REMARK    5  A    between atoms: N_8  and  C_9
REMARK    6  A    between atoms: N_12  and  C_13
REMARK    7  A    between atoms: N_12  and  C_16
REMARK    8  A    between atoms: C_13  and  C_14
REMARK    9  A    between atoms: C_14  and  O_15
REMARK   10  A    between atoms: C_16  and  C_17
REMARK   11  A    between atoms: C_17  and  O_18
REMARK   12  A    between atoms: N_24  and  C_25
REMARK                            x       y       z     vdW  Elec       q    Type
REMARK                         _______ _______ _______ _____ _____    ______ ____
ROOT
ATOM      1  C   UNL     1       2.491   6.670  19.604  0.00  0.00    +0.000 A 
ATOM      2  N   UNL     1       2.398   5.467  20.262  0.00  0.00    +0.000 NA
ATOM      3  C   UNL     1       3.112   4.376  19.853  0.00  0.00    +0.000 A 
ATOM      4  N   UNL     1       2.982   3.200  20.570  0.00  0.00    +0.000 N 
ATOM      5  N   UNL     1       3.924   4.373  18.785  0.00  0.00    +0.000 NA
ATOM      6  C   UNL     1       3.999   5.552  18.149  0.00  0.00    +0.000 A 
ATOM      7  C   UNL     1       3.334   6.717  18.478  0.00  0.00    +0.000 A 
ATOM      8  N   UNL     1       3.665   7.731  17.603  0.00  0.00    +0.000 NA
ATOM      9  C   UNL     1       4.512   7.168  16.739  0.00  0.00    +0.000 A 
ATOM     10  N   UNL     1       4.735   5.855  17.037  0.00  0.00    +0.000 N 
ENDROOT
BRANCH  10  11
ATOM     11  C   UNL     1       5.610   4.962  16.296  0.00  0.00    +0.000 C 
ATOM     12  C   UNL     1       5.019   4.422  14.991  0.00  0.00    +0.000 C 
ATOM     13  C   UNL     1       6.222   4.002  14.155  0.00  0.00    +0.000 C 
ATOM     14  C   UNL     1       7.415   4.806  14.661  0.00  0.00    +0.000 C 
ATOM     15  C   UNL     1       6.949   5.584  15.887  0.00  0.00    +0.000 C 
ENDBRANCH  10  11
BRANCH   1  16
ATOM     16  N   UNL     1       1.763   7.810  19.987  0.00  0.00    +0.000 N 
ATOM     17  H   UNL     1       2.353   8.626  19.830  0.00  0.00    +0.000 HD
BRANCH  16  18
ATOM     18  C   UNL     1       1.143   7.784  21.299  0.00  0.00    +0.000 C 
BRANCH  18  22
ATOM     19  C   UNL     1      -0.991  11.500  22.124  0.00  0.00    +0.000 A 
ATOM     20  C   UNL     1      -0.900  10.496  23.088  0.00  0.00    +0.000 A 
ATOM     21  C   UNL     1      -0.202   9.309  22.828  0.00  0.00    +0.000 A 
ATOM     22  C   UNL     1       0.390   9.080  21.574  0.00  0.00    +0.000 A 
ATOM     23  C   UNL     1       0.286  10.097  20.614  0.00  0.00    +0.000 A 
ATOM     24  C   UNL     1      -0.392  11.295  20.883  0.00  0.00    +0.000 A 
BRANCH  19  26
ATOM     25  C   UNL     1      -2.856  12.389  23.280  0.00  0.00    +0.000 C 
ATOM     26  O   UNL     1      -1.691  12.617  22.491  0.00  0.00    +0.000 OA
ENDBRANCH  19  26
ENDBRANCH  18  22
ENDBRANCH  16  18
ENDBRANCH   1  16
BRANCH   4  27
ATOM     27  C   UNL     1       4.022   2.146  20.555  0.00  0.00    +0.000 C 
BRANCH  27  28
ATOM     28  C   UNL     1       4.569   1.753  19.167  0.00  0.00    +0.000 C 
BRANCH  28  29
ATOM     29  O   UNL     1       3.796   0.745  18.528  0.00  0.00    +0.000 OA
ATOM     30  H   UNL     1       4.299   0.494  17.732  0.00  0.00    +0.000 HD
ENDBRANCH  28  29
ENDBRANCH  27  28
ENDBRANCH   4  27
BRANCH   4  31
ATOM     31  C   UNL     1       1.614   2.792  20.957  0.00  0.00    +0.000 C 
BRANCH  31  32
ATOM     32  C   UNL     1       0.605   2.675  19.795  0.00  0.00    +0.000 C 
BRANCH  32  33
ATOM     33  O   UNL     1       1.040   1.760  18.787  0.00  0.00    +0.000 OA
ATOM     34  H   UNL     1       1.917   1.447  19.074  0.00  0.00    +0.000 HD
ENDBRANCH  32  33
ENDBRANCH  31  32
ENDBRANCH   4  31
TORSDOF 11
ENDMDL
MODEL 8
REMARK VINA RESULT:      -6.8      5.060      7.628
REMARK  Name = 
REMARK  12 active torsions:
REMARK  status: ('A' for Active; 'I' for Inactive)
REMARK    1  A    between atoms: C_1  and  O_2
REMARK    2  A    between atoms: O_2  and  C_3
REMARK    3  A    between atoms: C_6  and  C_7
REMARK    4  A    between atoms: C_7  and  N_8
REMARK    5  A    between atoms: N_8  and  C_9
REMARK    6  A    between atoms: N_12  and  C_13
REMARK    7  A    between atoms: N_12  and  C_16
REMARK    8  A    between atoms: C_13  and  C_14
REMARK    9  A    between atoms: C_14  and  O_15
REMARK   10  A    between atoms: C_16  and  C_17
REMARK   11  A    between atoms: C_17  and  O_18
REMARK   12  A    between atoms: N_24  and  C_25
REMARK                            x       y       z     vdW  Elec       q    Type
REMARK                         _______ _______ _______ _____ _____    ______ ____
ROOT
ATOM      1  C   UNL     1       6.958   6.396  17.063  0.00  0.00    +0.000 A 
ATOM      2  N   UNL     1       7.005   5.941  15.767  0.00  0.00    +0.000 NA
ATOM      3  C   UNL     1       6.196   4.925  15.341  0.00  0.00    +0.000 A 
ATOM      4  N   UNL     1       6.285   4.526  14.019  0.00  0.00    +0.000 N 
ATOM      5  N   UNL     1       5.327   4.280  16.134  0.00  0.00    +0.000 NA
ATOM      6  C   UNL     1       5.297   4.730  17.397  0.00  0.00    +0.000 A 
ATOM      7  C   UNL     1       6.058   5.752  17.932  0.00  0.00    +0.000 A 
ATOM      8  N   UNL     1       5.748   5.943  19.263  0.00  0.00    +0.000 NA
ATOM      9  C   UNL     1       4.818   5.024  19.529  0.00  0.00    +0.000 A 
ATOM     10  N   UNL     1       4.523   4.275  18.428  0.00  0.00    +0.000 N 
ENDROOT
BRANCH  10  11
ATOM     11  C   UNL     1       3.548   3.197  18.380  0.00  0.00    +0.000 C 
ATOM     12  C   UNL     1       3.262   2.532  19.729  0.00  0.00    +0.000 C 
ATOM     13  C   UNL     1       1.898   1.873  19.564  0.00  0.00    +0.000 C 
ATOM     14  C   UNL     1       1.178   2.618  18.445  0.00  0.00    +0.000 C 
ATOM     15  C   UNL     1       2.172   3.612  17.852  0.00  0.00    +0.000 C 
ENDBRANCH  10  11
BRANCH   1  16
ATOM     16  N   UNL     1       7.781   7.429  17.542  0.00  0.00    +0.000 N 
ATOM     17  H   UNL     1       8.112   7.164  18.468  0.00  0.00    +0.000 HD
BRANCH  16  18
ATOM     18  C   UNL     1       7.249   8.777  17.479  0.00  0.00    +0.000 C 
BRANCH  18  22
ATOM     19  C   UNL     1      10.071  11.618  19.211  0.00  0.00    +0.000 A 
ATOM     20  C   UNL     1       9.899  10.351  19.766  0.00  0.00    +0.000 A 
ATOM     21  C   UNL     1       9.003   9.434  19.201  0.00  0.00    +0.000 A 
ATOM     22  C   UNL     1       8.223   9.780  18.084  0.00  0.00    +0.000 A 
ATOM     23  C   UNL     1       8.405  11.061  17.541  0.00  0.00    +0.000 A 
ATOM     24  C   UNL     1       9.320  11.970  18.092  0.00  0.00    +0.000 A 
BRANCH  19  26
ATOM     25  C   UNL     1      11.060  13.765  19.359  0.00  0.00    +0.000 C 
ATOM     26  O   UNL     1      10.977  12.427  19.843  0.00  0.00    +0.000 OA
ENDBRANCH  19  26
ENDBRANCH  18  22
ENDBRANCH  16  18
ENDBRANCH   1  16
BRANCH   4  27
ATOM     27  C   UNL     1       5.176   3.830  13.327  0.00  0.00    +0.000 C 
BRANCH  27  28
ATOM     28  C   UNL     1       5.488   3.297  11.912  0.00  0.00    +0.000 C 
BRANCH  28  29
ATOM     29  O   UNL     1       5.720   1.894  11.885  0.00  0.00    +0.000 OA
ATOM     30  H   UNL     1       5.297   1.543  12.689  0.00  0.00    +0.000 HD
ENDBRANCH  28  29
ENDBRANCH  27  28
ENDBRANCH   4  27
BRANCH   4  31
ATOM     31  C   UNL     1       7.642   4.363  13.452  0.00  0.00    +0.000 C 
BRANCH  31  32
ATOM     32  C   UNL     1       8.188   5.584  12.682  0.00  0.00    +0.000 C 
BRANCH  32  33
ATOM     33  O   UNL     1       9.224   6.261  13.398  0.00  0.00    +0.000 OA
ATOM     34  H   UNL     1       9.095   6.025  14.334  0.00  0.00    +0.000 HD
ENDBRANCH  32  33
ENDBRANCH  31  32
ENDBRANCH   4  31
TORSDOF 11
ENDMDL
MODEL 9
REMARK VINA RESULT:      -6.7      1.036      1.115
REMARK  Name = 
REMARK  12 active torsions:
REMARK  status: ('A' for Active; 'I' for Inactive)
REMARK    1  A    between atoms: C_1  and  O_2
REMARK    2  A    between atoms: O_2  and  C_3
REMARK    3  A    between atoms: C_6  and  C_7
REMARK    4  A    between atoms: C_7  and  N_8
REMARK    5  A    between atoms: N_8  and  C_9
REMARK    6  A    between atoms: N_12  and  C_13
REMARK    7  A    between atoms: N_12  and  C_16
REMARK    8  A    between atoms: C_13  and  C_14
REMARK    9  A    between atoms: C_14  and  O_15
REMARK   10  A    between atoms: C_16  and  C_17
REMARK   11  A    between atoms: C_17  and  O_18
REMARK   12  A    between atoms: N_24  and  C_25
REMARK                            x       y       z     vdW  Elec       q    Type
REMARK                         _______ _______ _______ _____ _____    ______ ____
ROOT
ATOM      1  C   UNL     1       3.274   6.076  18.390  0.00  0.00    +0.000 A 
ATOM      2  N   UNL     1       2.876   4.827  18.804  0.00  0.00    +0.000 NA
ATOM      3  C   UNL     1       3.303   3.697  18.164  0.00  0.00    +0.000 A 
ATOM      4  N   UNL     1       2.875   2.471  18.643  0.00  0.00    +0.000 N 
ATOM      5  N   UNL     1       4.104   3.706  17.088  0.00  0.00    +0.000 NA
ATOM      6  C   UNL     1       4.478   4.931  16.691  0.00  0.00    +0.000 A 
ATOM      7  C   UNL     1       4.118   6.135  17.266  0.00  0.00    +0.000 A 
ATOM      8  N   UNL     1       4.703   7.189  16.594  0.00  0.00    +0.000 NA
ATOM      9  C   UNL     1       5.395   6.617  15.606  0.00  0.00    +0.000 A 
ATOM     10  N   UNL     1       5.281   5.258  15.634  0.00  0.00    +0.000 N 
ENDROOT
BRANCH  10  11
ATOM     11  C   UNL     1       5.917   4.341  14.702  0.00  0.00    +0.000 C 
ATOM     12  C   UNL     1       5.013   3.848  13.571  0.00  0.00    +0.000 C 
ATOM     13  C   UNL     1       5.965   3.393  12.471  0.00  0.00    +0.000 C 
ATOM     14  C   UNL     1       7.278   4.138  12.687  0.00  0.00    +0.000 C 
ATOM     15  C   UNL     1       7.149   4.914  13.993  0.00  0.00    +0.000 C 
ENDBRANCH  10  11
BRANCH   1  16
ATOM     16  N   UNL     1       2.848   7.260  19.013  0.00  0.00    +0.000 N 
ATOM     17  H   UNL     1       2.367   7.007  19.875  0.00  0.00    +0.000 HD
BRANCH  16  18
ATOM     18  C   UNL     1       2.112   8.207  18.195  0.00  0.00    +0.000 C 
BRANCH  18  22
ATOM     19  C   UNL     1      -0.419  10.751  20.677  0.00  0.00    +0.000 A 
ATOM     20  C   UNL     1       0.329   9.718  21.239  0.00  0.00    +0.000 A 
ATOM     21  C   UNL     1       1.153   8.910  20.444  0.00  0.00    +0.000 A 
ATOM     22  C   UNL     1       1.217   9.093  19.052  0.00  0.00    +0.000 A 
ATOM     23  C   UNL     1       0.455  10.134  18.501  0.00  0.00    +0.000 A 
ATOM     24  C   UNL     1      -0.351  10.957  19.301  0.00  0.00    +0.000 A 
BRANCH  19  26
ATOM     25  C   UNL     1      -0.553  12.621  22.123  0.00  0.00    +0.000 C 
ATOM     26  O   UNL     1      -1.182  11.478  21.550  0.00  0.00    +0.000 OA
ENDBRANCH  19  26
ENDBRANCH  18  22
ENDBRANCH  16  18
ENDBRANCH   1  16
BRANCH   4  27
ATOM     27  C   UNL     1       3.621   1.218  18.385  0.00  0.00    +0.000 C 
BRANCH  27  28
ATOM     28  C   UNL     1       4.640   0.800  19.466  0.00  0.00    +0.000 C 
BRANCH  28  29
ATOM     29  O   UNL     1       5.149   1.903  20.207  0.00  0.00    +0.000 OA
ATOM     30  H   UNL     1       4.885   1.741  21.131  0.00  0.00    +0.000 HD
ENDBRANCH  28  29
ENDBRANCH  27  28
ENDBRANCH   4  27
BRANCH   4  31
ATOM     31  C   UNL     1       1.443   2.344  18.991  0.00  0.00    +0.000 C 
BRANCH  31  32
ATOM     32  C   UNL     1       1.072   2.764  20.429  0.00  0.00    +0.000 C 
BRANCH  32  33
ATOM     33  O   UNL     1       0.509   4.077  20.485  0.00  0.00    +0.000 OA
ATOM     34  H   UNL     1       1.096   4.592  21.067  0.00  0.00    +0.000 HD
ENDBRANCH  32  33
ENDBRANCH  31  32
ENDBRANCH   4  31
TORSDOF 11
ENDMDL
