MODEL 1
REMARK VINA RESULT:      -8.2      0.000      0.000
REMARK  Name = 
REMARK  7 active torsions:
REMARK  status: ('A' for Active; 'I' for Inactive)
REMARK    1  A    between atoms: O_1  and  C_2
REMARK    2  A    between atoms: C_7  and  C_8
REMARK    3  A    between atoms: N_10  and  C_11
REMARK    4  A    between atoms: C_11  and  N_13
REMARK    5  A    between atoms: N_13  and  C_14
REMARK    6  A    between atoms: C_20  and  C_21
REMARK    7  A    between atoms: C_24  and  N_25
REMARK                            x       y       z     vdW  Elec       q    Type
REMARK                         _______ _______ _______ _____ _____    ______ ____
ROOT
ATOM      1  C   UNL     1       5.453   4.417  15.614  0.00  0.00    +0.000 C 
ATOM      2  N   UNL     1       6.195   4.377  16.682  0.00  0.00    +0.000 NA
ATOM      3  N   UNL     1       5.338   4.455  17.770  0.00  0.00    +0.000 N 
ATOM      4  C   UNL     1       3.914   4.616  17.379  0.00  0.00    +0.000 C 
ATOM      5  C   UNL     1       3.978   4.533  15.853  0.00  0.00    +0.000 C 
ENDROOT
BRANCH   1  11
ATOM      6  C   UNL     1       7.168   4.910  13.808  0.00  0.00    +0.000 A 
ATOM      7  C   UNL     1       7.624   4.742  12.497  0.00  0.00    +0.000 A 
ATOM      8  C   UNL     1       6.905   3.944  11.608  0.00  0.00    +0.000 A 
ATOM      9  C   UNL     1       5.732   3.316  12.024  0.00  0.00    +0.000 A 
ATOM     10  C   UNL     1       5.278   3.483  13.337  0.00  0.00    +0.000 A 
ATOM     11  C   UNL     1       5.995   4.279  14.240  0.00  0.00    +0.000 A 
BRANCH   6  12
ATOM     12  O   UNL     1       7.905   5.677  14.665  0.00  0.00    +0.000 OA
ATOM     13  H   UNL     1       8.107   5.163  15.465  0.00  0.00    +0.000 HD
ENDBRANCH   6  12
ENDBRANCH   1  11
BRANCH   4  14
ATOM     14  C   UNL     1       3.256   5.922  17.849  0.00  0.00    +0.000 A 
ATOM     15  C   UNL     1       2.506   5.976  19.037  0.00  0.00    +0.000 A 
ATOM     16  C   UNL     1       1.896   7.166  19.470  0.00  0.00    +0.000 A 
ATOM     17  C   UNL     1       2.047   8.365  18.770  0.00  0.00    +0.000 A 
ATOM     18  C   UNL     1       2.838   8.319  17.624  0.00  0.00    +0.000 A 
ATOM     19  C   UNL     1       3.416   7.132  17.170  0.00  0.00    +0.000 A 
BRANCH  17  20
ATOM     20  N   UNL     1       1.498   9.565  19.176  0.00  0.00    +0.000 N 
ATOM     21  C   UNL     1       1.056   9.804  20.555  0.00  0.00    +0.000 C 
ATOM     22  C   UNL     1      -0.473   9.809  20.647  0.00  0.00    +0.000 C 
ATOM     23  O   UNL     1      -1.055  10.743  19.718  0.00  0.00    +0.000 OA
ATOM     24  C   UNL     1      -0.689  10.392  18.373  0.00  0.00    +0.000 C 
ATOM     25  C   UNL     1       0.834  10.417  18.170  0.00  0.00    +0.000 C 
ENDBRANCH  17  20
ENDBRANCH   4  14
BRANCH   3  26
ATOM     26  C   UNL     1       5.855   4.214  19.053  0.00  0.00    +0.000 C 
ATOM     27  S   UNL     1       7.016   5.179  19.800  0.00  0.00    +0.000 S 
BRANCH  26  28
ATOM     28  N   UNL     1       5.271   3.093  19.630  0.00  0.00    +0.000 N 
ATOM     29  H   UNL     1       5.960   2.422  19.958  0.00  0.00    +0.000 HD
BRANCH  28  30
ATOM     30  C   UNL     1       3.913   2.837  19.904  0.00  0.00    +0.000 A 
ATOM     31  C   UNL     1       3.363   3.387  21.064  0.00  0.00    +0.000 A 
ATOM     32  C   UNL     1       2.010   3.189  21.371  0.00  0.00    +0.000 A 
ATOM     33  C   UNL     1       1.190   2.482  20.493  0.00  0.00    +0.000 A 
ATOM     34  C   UNL     1       1.719   1.974  19.311  0.00  0.00    +0.000 A 
ATOM     35  C   UNL     1       3.077   2.142  19.024  0.00  0.00    +0.000 A 
ENDBRANCH  28  30
ENDBRANCH  26  28
ENDBRANCH   3  26
TORSDOF 7
ENDMDL
MODEL 2
REMARK VINA RESULT:      -8.2      4.607     10.352
REMARK  Name = 
REMARK  7 active torsions:
REMARK  status: ('A' for Active; 'I' for Inactive)
REMARK    1  A    between atoms: O_1  and  C_2
REMARK    2  A    between atoms: C_7  and  C_8
REMARK    3  A    between atoms: N_10  and  C_11
REMARK    4  A    between atoms: C_11  and  N_13
REMARK    5  A    between atoms: N_13  and  C_14
REMARK    6  A    between atoms: C_20  and  C_21
REMARK    7  A    between atoms: C_24  and  N_25
REMARK                            x       y       z     vdW  Elec       q    Type
REMARK                         _______ _______ _______ _____ _____    ______ ____
ROOT
ATOM      1  C   UNL     1       0.294  13.569  19.020  0.00  0.00    +0.000 C 
ATOM      2  N   UNL     1      -0.560  13.138  18.138  0.00  0.00    +0.000 NA
ATOM      3  N   UNL     1      -1.060  11.935  18.618  0.00  0.00    +0.000 N 
ATOM      4  C   UNL     1      -0.437  11.515  19.899  0.00  0.00    +0.000 C 
ATOM      5  C   UNL     1       0.483  12.694  20.222  0.00  0.00    +0.000 C 
ENDROOT
BRANCH   1  11
ATOM      6  C   UNL     1       0.318  16.096  18.779  0.00  0.00    +0.000 A 
ATOM      7  C   UNL     1       1.034  17.294  18.675  0.00  0.00    +0.000 A 
ATOM      8  C   UNL     1       2.428  17.274  18.695  0.00  0.00    +0.000 A 
ATOM      9  C   UNL     1       3.108  16.062  18.816  0.00  0.00    +0.000 A 
ATOM     10  C   UNL     1       2.391  14.866  18.923  0.00  0.00    +0.000 A 
ATOM     11  C   UNL     1       0.990  14.874  18.909  0.00  0.00    +0.000 A 
BRANCH   6  12
ATOM     12  O   UNL     1      -1.046  16.148  18.782  0.00  0.00    +0.000 OA
ATOM     13  H   UNL     1      -1.379  15.920  17.898  0.00  0.00    +0.000 HD
ENDBRANCH   6  12
ENDBRANCH   1  11
BRANCH   4  14
ATOM     14  C   UNL     1       0.338  10.191  19.840  0.00  0.00    +0.000 A 
ATOM     15  C   UNL     1       1.156   9.871  18.743  0.00  0.00    +0.000 A 
ATOM     16  C   UNL     1       1.863   8.658  18.679  0.00  0.00    +0.000 A 
ATOM     17  C   UNL     1       1.831   7.733  19.725  0.00  0.00    +0.000 A 
ATOM     18  C   UNL     1       1.064   8.081  20.836  0.00  0.00    +0.000 A 
ATOM     19  C   UNL     1       0.331   9.268  20.888  0.00  0.00    +0.000 A 
BRANCH  17  20
ATOM     20  N   UNL     1       2.538   6.548  19.724  0.00  0.00    +0.000 N 
ATOM     21  C   UNL     1       3.295   6.082  18.557  0.00  0.00    +0.000 C 
ATOM     22  C   UNL     1       2.581   4.912  17.871  0.00  0.00    +0.000 C 
ATOM     23  O   UNL     1       2.300   3.848  18.798  0.00  0.00    +0.000 OA
ATOM     24  C   UNL     1       1.456   4.328  19.858  0.00  0.00    +0.000 C 
ATOM     25  C   UNL     1       2.119   5.472  20.643  0.00  0.00    +0.000 C 
ENDBRANCH  17  20
ENDBRANCH   4  14
BRANCH   3  26
ATOM     26  C   UNL     1      -2.162  11.358  17.969  0.00  0.00    +0.000 C 
ATOM     27  S   UNL     1      -2.110   9.893  17.139  0.00  0.00    +0.000 S 
BRANCH  26  28
ATOM     28  N   UNL     1      -3.301  12.140  18.116  0.00  0.00    +0.000 N 
ATOM     29  H   UNL     1      -3.209  13.049  17.671  0.00  0.00    +0.000 HD
BRANCH  28  30
ATOM     30  C   UNL     1      -4.547  11.802  18.681  0.00  0.00    +0.000 A 
ATOM     31  C   UNL     1      -4.861  12.324  19.938  0.00  0.00    +0.000 A 
ATOM     32  C   UNL     1      -6.099  12.043  20.534  0.00  0.00    +0.000 A 
ATOM     33  C   UNL     1      -7.046  11.282  19.853  0.00  0.00    +0.000 A 
ATOM     34  C   UNL     1      -6.760  10.799  18.579  0.00  0.00    +0.000 A 
ATOM     35  C   UNL     1      -5.511  11.050  18.002  0.00  0.00    +0.000 A 
ENDBRANCH  28  30
ENDBRANCH  26  28
ENDBRANCH   3  26
TORSDOF 7
ENDMDL
MODEL 3
REMARK VINA RESULT:      -8.1      4.654      9.744
REMARK  Name = 
REMARK  7 active torsions:
REMARK  status: ('A' for Active; 'I' for Inactive)
REMARK    1  A    between atoms: O_1  and  C_2
REMARK    2  A    between atoms: C_7  and  C_8
REMARK    3  A    between atoms: N_10  and  C_11
REMARK    4  A    between atoms: C_11  and  N_13
REMARK    5  A    between atoms: N_13  and  C_14
REMARK    6  A    between atoms: C_20  and  C_21
REMARK    7  A    between atoms: C_24  and  N_25
REMARK                            x       y       z     vdW  Elec       q    Type
REMARK                         _______ _______ _______ _____ _____    ______ ____
ROOT
ATOM      1  C   UNL     1       1.044  13.544  19.252  0.00  0.00    +0.000 C 
ATOM      2  N   UNL     1      -0.192  13.243  18.977  0.00  0.00    +0.000 NA
ATOM      3  N   UNL     1      -0.532  12.167  19.785  0.00  0.00    +0.000 N 
ATOM      4  C   UNL     1       0.598  11.686  20.621  0.00  0.00    +0.000 C 
ATOM      5  C   UNL     1       1.704  12.691  20.293  0.00  0.00    +0.000 C 
ENDROOT
BRANCH   1  11
ATOM      6  C   UNL     1       1.235  15.999  18.634  0.00  0.00    +0.000 A 
ATOM      7  C   UNL     1       1.954  17.044  18.045  0.00  0.00    +0.000 A 
ATOM      8  C   UNL     1       3.196  16.792  17.463  0.00  0.00    +0.000 A 
ATOM      9  C   UNL     1       3.719  15.500  17.464  0.00  0.00    +0.000 A 
ATOM     10  C   UNL     1       3.000  14.456  18.056  0.00  0.00    +0.000 A 
ATOM     11  C   UNL     1       1.754  14.698  18.649  0.00  0.00    +0.000 A 
BRANCH   6  12
ATOM     12  O   UNL     1       0.034  16.279  19.219  0.00  0.00    +0.000 OA
ATOM     13  H   UNL     1      -0.158  15.610  19.897  0.00  0.00    +0.000 HD
ENDBRANCH   6  12
ENDBRANCH   1  11
BRANCH   4  14
ATOM     14  C   UNL     1       1.043  10.243  20.343  0.00  0.00    +0.000 A 
ATOM     15  C   UNL     1       1.481   9.846  19.068  0.00  0.00    +0.000 A 
ATOM     16  C   UNL     1       1.883   8.526  18.804  0.00  0.00    +0.000 A 
ATOM     17  C   UNL     1       1.918   7.554  19.807  0.00  0.00    +0.000 A 
ATOM     18  C   UNL     1       1.536   7.967  21.083  0.00  0.00    +0.000 A 
ATOM     19  C   UNL     1       1.101   9.268  21.342  0.00  0.00    +0.000 A 
BRANCH  17  20
ATOM     20  N   UNL     1       2.340   6.256  19.604  0.00  0.00    +0.000 N 
ATOM     21  C   UNL     1       2.577   5.703  18.266  0.00  0.00    +0.000 C 
ATOM     22  C   UNL     1       1.466   4.722  17.874  0.00  0.00    +0.000 C 
ATOM     23  O   UNL     1       1.295   3.694  18.867  0.00  0.00    +0.000 OA
ATOM     24  C   UNL     1       0.947   4.282  20.131  0.00  0.00    +0.000 C 
ATOM     25  C   UNL     1       2.036   5.243  20.634  0.00  0.00    +0.000 C 
ENDBRANCH  17  20
ENDBRANCH   4  14
BRANCH   3  26
ATOM     26  C   UNL     1      -1.878  11.775  19.853  0.00  0.00    +0.000 C 
ATOM     27  S   UNL     1      -3.057  12.591  20.737  0.00  0.00    +0.000 S 
BRANCH  26  28
ATOM     28  N   UNL     1      -2.113  10.643  19.082  0.00  0.00    +0.000 N 
ATOM     29  H   UNL     1      -1.937   9.782  19.592  0.00  0.00    +0.000 HD
BRANCH  28  30
ATOM     30  C   UNL     1      -2.648  10.546  17.782  0.00  0.00    +0.000 A 
ATOM     31  C   UNL     1      -3.803  11.275  17.491  0.00  0.00    +0.000 A 
ATOM     32  C   UNL     1      -4.361  11.238  16.206  0.00  0.00    +0.000 A 
ATOM     33  C   UNL     1      -3.737  10.512  15.193  0.00  0.00    +0.000 A 
ATOM     34  C   UNL     1      -2.559   9.822  15.463  0.00  0.00    +0.000 A 
ATOM     35  C   UNL     1      -2.023   9.831  16.754  0.00  0.00    +0.000 A 
ENDBRANCH  28  30
ENDBRANCH  26  28
ENDBRANCH   3  26
TORSDOF 7
ENDMDL
MODEL 4
REMARK VINA RESULT:      -8.1      4.527      8.630
REMARK  Name = 
REMARK  7 active torsions:
REMARK  status: ('A' for Active; 'I' for Inactive)
REMARK    1  A    between atoms: O_1  and  C_2
REMARK    2  A    between atoms: C_7  and  C_8
REMARK    3  A    between atoms: N_10  and  C_11
REMARK    4  A    between atoms: C_11  and  N_13
REMARK    5  A    between atoms: N_13  and  C_14
REMARK    6  A    between atoms: C_20  and  C_21
REMARK    7  A    between atoms: C_24  and  N_25
REMARK                            x       y       z     vdW  Elec       q    Type
REMARK                         _______ _______ _______ _____ _____    ______ ____
ROOT
ATOM      1  C   UNL     1       1.517   8.799  19.338  0.00  0.00    +0.000 C 
ATOM      2  N   UNL     1       1.190   8.965  20.586  0.00  0.00    +0.000 NA
ATOM      3  N   UNL     1       0.284  10.015  20.628  0.00  0.00    +0.000 N 
ATOM      4  C   UNL     1       0.040  10.626  19.297  0.00  0.00    +0.000 C 
ATOM      5  C   UNL     1       0.865   9.735  18.366  0.00  0.00    +0.000 C 
ENDROOT
BRANCH   1  11
ATOM      6  C   UNL     1       2.595   6.511  19.563  0.00  0.00    +0.000 A 
ATOM      7  C   UNL     1       3.457   5.527  19.068  0.00  0.00    +0.000 A 
ATOM      8  C   UNL     1       4.145   5.744  17.875  0.00  0.00    +0.000 A 
ATOM      9  C   UNL     1       3.977   6.940  17.178  0.00  0.00    +0.000 A 
ATOM     10  C   UNL     1       3.113   7.921  17.673  0.00  0.00    +0.000 A 
ATOM     11  C   UNL     1       2.412   7.713  18.868  0.00  0.00    +0.000 A 
BRANCH   6  12
ATOM     12  O   UNL     1       1.914   6.262  20.720  0.00  0.00    +0.000 OA
ATOM     13  H   UNL     1       1.256   6.963  20.864  0.00  0.00    +0.000 HD
ENDBRANCH   6  12
ENDBRANCH   1  11
BRANCH   4  14
ATOM     14  C   UNL     1       0.446  12.102  19.176  0.00  0.00    +0.000 A 
ATOM     15  C   UNL     1      -0.474  13.082  18.766  0.00  0.00    +0.000 A 
ATOM     16  C   UNL     1      -0.109  14.434  18.647  0.00  0.00    +0.000 A 
ATOM     17  C   UNL     1       1.173  14.880  18.980  0.00  0.00    +0.000 A 
ATOM     18  C   UNL     1       2.065  13.913  19.440  0.00  0.00    +0.000 A 
ATOM     19  C   UNL     1       1.717  12.564  19.525  0.00  0.00    +0.000 A 
BRANCH  17  20
ATOM     20  N   UNL     1       1.567  16.201  18.915  0.00  0.00    +0.000 N 
ATOM     21  C   UNL     1       0.607  17.311  18.914  0.00  0.00    +0.000 C 
ATOM     22  C   UNL     1       0.502  17.943  17.521  0.00  0.00    +0.000 C 
ATOM     23  O   UNL     1       1.793  18.337  17.021  0.00  0.00    +0.000 OA
ATOM     24  C   UNL     1       2.657  17.191  16.929  0.00  0.00    +0.000 C 
ATOM     25  C   UNL     1       2.867  16.523  18.297  0.00  0.00    +0.000 C 
ENDBRANCH  17  20
ENDBRANCH   4  14
BRANCH   3  26
ATOM     26  C   UNL     1      -0.400  10.266  21.828  0.00  0.00    +0.000 C 
ATOM     27  S   UNL     1      -0.077   9.481  23.282  0.00  0.00    +0.000 S 
BRANCH  26  28
ATOM     28  N   UNL     1      -1.360  11.257  21.663  0.00  0.00    +0.000 N 
ATOM     29  H   UNL     1      -1.922  11.119  20.827  0.00  0.00    +0.000 HD
BRANCH  28  30
ATOM     30  C   UNL     1      -1.709  12.313  22.529  0.00  0.00    +0.000 A 
ATOM     31  C   UNL     1      -0.817  13.379  22.655  0.00  0.00    +0.000 A 
ATOM     32  C   UNL     1      -1.126  14.470  23.480  0.00  0.00    +0.000 A 
ATOM     33  C   UNL     1      -2.351  14.520  24.142  0.00  0.00    +0.000 A 
ATOM     34  C   UNL     1      -3.266  13.484  23.982  0.00  0.00    +0.000 A 
ATOM     35  C   UNL     1      -2.941  12.381  23.188  0.00  0.00    +0.000 A 
ENDBRANCH  28  30
ENDBRANCH  26  28
ENDBRANCH   3  26
TORSDOF 7
ENDMDL
MODEL 5
REMARK VINA RESULT:      -8.1      4.671      9.612
REMARK  Name = 
REMARK  7 active torsions:
REMARK  status: ('A' for Active; 'I' for Inactive)
REMARK    1  A    between atoms: O_1  and  C_2
REMARK    2  A    between atoms: C_7  and  C_8
REMARK    3  A    between atoms: N_10  and  C_11
REMARK    4  A    between atoms: C_11  and  N_13
REMARK    5  A    between atoms: N_13  and  C_14
REMARK    6  A    between atoms: C_20  and  C_21
REMARK    7  A    between atoms: C_24  and  N_25
REMARK                            x       y       z     vdW  Elec       q    Type
REMARK                         _______ _______ _______ _____ _____    ______ ____
ROOT
ATOM      1  C   UNL     1       1.062  13.535  19.260  0.00  0.00    +0.000 C 
ATOM      2  N   UNL     1      -0.178  13.237  19.002  0.00  0.00    +0.000 NA
ATOM      3  N   UNL     1      -0.515  12.172  19.826  0.00  0.00    +0.000 N 
ATOM      4  C   UNL     1       0.621  11.696  20.656  0.00  0.00    +0.000 C 
ATOM      5  C   UNL     1       1.728  12.691  20.305  0.00  0.00    +0.000 C 
ENDROOT
BRANCH   1  11
ATOM      6  C   UNL     1       2.967  14.543  17.919  0.00  0.00    +0.000 A 
ATOM      7  C   UNL     1       3.590  15.662  17.356  0.00  0.00    +0.000 A 
ATOM      8  C   UNL     1       3.020  16.925  17.513  0.00  0.00    +0.000 A 
ATOM      9  C   UNL     1       1.834  17.073  18.231  0.00  0.00    +0.000 A 
ATOM     10  C   UNL     1       1.211  15.953  18.790  0.00  0.00    +0.000 A 
ATOM     11  C   UNL     1       1.771  14.678  18.635  0.00  0.00    +0.000 A 
BRANCH   6  12
ATOM     12  O   UNL     1       3.533  13.315  17.728  0.00  0.00    +0.000 OA
ATOM     13  H   UNL     1       4.479  13.422  17.535  0.00  0.00    +0.000 HD
ENDBRANCH   6  12
ENDBRANCH   1  11
BRANCH   4  14
ATOM     14  C   UNL     1       1.055  10.247  20.390  0.00  0.00    +0.000 A 
ATOM     15  C   UNL     1       1.461   9.828  19.111  0.00  0.00    +0.000 A 
ATOM     16  C   UNL     1       1.854   8.503  18.860  0.00  0.00    +0.000 A 
ATOM     17  C   UNL     1       1.911   7.548  19.877  0.00  0.00    +0.000 A 
ATOM     18  C   UNL     1       1.562   7.982  21.155  0.00  0.00    +0.000 A 
ATOM     19  C   UNL     1       1.136   9.289  21.403  0.00  0.00    +0.000 A 
BRANCH  17  20
ATOM     20  N   UNL     1       2.325   6.245  19.685  0.00  0.00    +0.000 N 
ATOM     21  C   UNL     1       2.599   5.692  18.354  0.00  0.00    +0.000 C 
ATOM     22  C   UNL     1       1.491   4.725  17.925  0.00  0.00    +0.000 C 
ATOM     23  O   UNL     1       1.277   3.697  18.909  0.00  0.00    +0.000 OA
ATOM     24  C   UNL     1       0.894   4.286  20.163  0.00  0.00    +0.000 C 
ATOM     25  C   UNL     1       1.977   5.234  20.702  0.00  0.00    +0.000 C 
ENDBRANCH  17  20
ENDBRANCH   4  14
BRANCH   3  26
ATOM     26  C   UNL     1      -1.863  11.788  19.912  0.00  0.00    +0.000 C 
ATOM     27  S   UNL     1      -3.008  12.565  20.872  0.00  0.00    +0.000 S 
BRANCH  26  28
ATOM     28  N   UNL     1      -2.131  10.701  19.089  0.00  0.00    +0.000 N 
ATOM     29  H   UNL     1      -1.992   9.812  19.562  0.00  0.00    +0.000 HD
BRANCH  28  30
ATOM     30  C   UNL     1      -2.655  10.681  17.781  0.00  0.00    +0.000 A 
ATOM     31  C   UNL     1      -2.016   9.883  16.830  0.00  0.00    +0.000 A 
ATOM     32  C   UNL     1      -2.512   9.803  15.522  0.00  0.00    +0.000 A 
ATOM     33  C   UNL     1      -3.678  10.482  15.173  0.00  0.00    +0.000 A 
ATOM     34  C   UNL     1      -4.348  11.240  16.129  0.00  0.00    +0.000 A 
ATOM     35  C   UNL     1      -3.832  11.347  17.423  0.00  0.00    +0.000 A 
ENDBRANCH  28  30
ENDBRANCH  26  28
ENDBRANCH   3  26
TORSDOF 7
ENDMDL
MODEL 6
REMARK VINA RESULT:      -8.1      3.645      9.347
REMARK  Name = 
REMARK  7 active torsions:
REMARK  status: ('A' for Active; 'I' for Inactive)
REMARK    1  A    between atoms: O_1  and  C_2
REMARK    2  A    between atoms: C_7  and  C_8
REMARK    3  A    between atoms: N_10  and  C_11
REMARK    4  A    between atoms: C_11  and  N_13
REMARK    5  A    between atoms: N_13  and  C_14
REMARK    6  A    between atoms: C_20  and  C_21
REMARK    7  A    between atoms: C_24  and  N_25
REMARK                            x       y       z     vdW  Elec       q    Type
REMARK                         _______ _______ _______ _____ _____    ______ ____
ROOT
ATOM      1  C   UNL     1      -0.922  10.191  18.229  0.00  0.00    +0.000 C 
ATOM      2  N   UNL     1      -0.966  10.399  19.513  0.00  0.00    +0.000 NA
ATOM      3  N   UNL     1       0.303  10.131  20.008  0.00  0.00    +0.000 N 
ATOM      4  C   UNL     1       1.245   9.650  18.965  0.00  0.00    +0.000 C 
ATOM      5  C   UNL     1       0.404   9.744  17.690  0.00  0.00    +0.000 C 
ENDROOT
BRANCH   1  11
ATOM      6  C   UNL     1      -3.080  11.372  17.605  0.00  0.00    +0.000 A 
ATOM      7  C   UNL     1      -4.137  11.564  16.709  0.00  0.00    +0.000 A 
ATOM      8  C   UNL     1      -4.188  10.826  15.526  0.00  0.00    +0.000 A 
ATOM      9  C   UNL     1      -3.189   9.897  15.239  0.00  0.00    +0.000 A 
ATOM     10  C   UNL     1      -2.132   9.708  16.134  0.00  0.00    +0.000 A 
ATOM     11  C   UNL     1      -2.067  10.447  17.323  0.00  0.00    +0.000 A 
BRANCH   6  12
ATOM     12  O   UNL     1      -3.042  12.125  18.742  0.00  0.00    +0.000 OA
ATOM     13  H   UNL     1      -3.510  11.658  19.455  0.00  0.00    +0.000 HD
ENDBRANCH   6  12
ENDBRANCH   1  11
BRANCH   4  14
ATOM     14  C   UNL     1       1.786   8.230  19.184  0.00  0.00    +0.000 A 
ATOM     15  C   UNL     1       2.623   7.613  18.239  0.00  0.00    +0.000 A 
ATOM     16  C   UNL     1       3.118   6.312  18.430  0.00  0.00    +0.000 A 
ATOM     17  C   UNL     1       2.845   5.585  19.591  0.00  0.00    +0.000 A 
ATOM     18  C   UNL     1       2.061   6.224  20.551  0.00  0.00    +0.000 A 
ATOM     19  C   UNL     1       1.538   7.502  20.350  0.00  0.00    +0.000 A 
BRANCH  17  20
ATOM     20  N   UNL     1       3.338   4.320  19.839  0.00  0.00    +0.000 N 
ATOM     21  C   UNL     1       4.450   3.743  19.075  0.00  0.00    +0.000 C 
ATOM     22  C   UNL     1       3.949   2.661  18.112  0.00  0.00    +0.000 C 
ATOM     23  O   UNL     1       3.180   1.657  18.800  0.00  0.00    +0.000 OA
ATOM     24  C   UNL     1       2.037   2.258  19.431  0.00  0.00    +0.000 C 
ATOM     25  C   UNL     1       2.447   3.322  20.462  0.00  0.00    +0.000 C 
ENDBRANCH  17  20
ENDBRANCH   4  14
BRANCH   3  26
ATOM     26  C   UNL     1       0.596  10.484  21.334  0.00  0.00    +0.000 C 
ATOM     27  S   UNL     1       0.139   9.577  22.678  0.00  0.00    +0.000 S 
BRANCH  26  28
ATOM     28  N   UNL     1       1.328  11.664  21.392  0.00  0.00    +0.000 N 
ATOM     29  H   UNL     1       2.086  11.619  22.066  0.00  0.00    +0.000 HD
BRANCH  28  30
ATOM     30  C   UNL     1       1.222  12.817  20.589  0.00  0.00    +0.000 A 
ATOM     31  C   UNL     1       0.138  13.670  20.804  0.00  0.00    +0.000 A 
ATOM     32  C   UNL     1      -0.000  14.846  20.053  0.00  0.00    +0.000 A 
ATOM     33  C   UNL     1       0.973  15.199  19.121  0.00  0.00    +0.000 A 
ATOM     34  C   UNL     1       2.082  14.379  18.936  0.00  0.00    +0.000 A 
ATOM     35  C   UNL     1       2.200  13.189  19.659  0.00  0.00    +0.000 A 
ENDBRANCH  28  30
ENDBRANCH  26  28
ENDBRANCH   3  26
TORSDOF 7
ENDMDL
MODEL 7
REMARK VINA RESULT:      -8.1      3.101      4.822
REMARK  Name = 
REMARK  7 active torsions:
REMARK  status: ('A' for Active; 'I' for Inactive)
REMARK    1  A    between atoms: O_1  and  C_2
REMARK    2  A    between atoms: C_7  and  C_8
REMARK    3  A    between atoms: N_10  and  C_11
REMARK    4  A    between atoms: C_11  and  N_13
REMARK    5  A    between atoms: N_13  and  C_14
REMARK    6  A    between atoms: C_20  and  C_21
REMARK    7  A    between atoms: C_24  and  N_25
REMARK                            x       y       z     vdW  Elec       q    Type
REMARK                         _______ _______ _______ _____ _____    ______ ____
ROOT
ATOM      1  C   UNL     1       6.158   5.124  15.397  0.00  0.00    +0.000 C 
ATOM      2  N   UNL     1       7.002   5.997  15.864  0.00  0.00    +0.000 NA
ATOM      3  N   UNL     1       6.655   6.221  17.190  0.00  0.00    +0.000 N 
ATOM      4  C   UNL     1       5.444   5.471  17.610  0.00  0.00    +0.000 C 
ATOM      5  C   UNL     1       5.117   4.645  16.364  0.00  0.00    +0.000 C 
ENDROOT
BRANCH   1  11
ATOM      6  C   UNL     1       7.290   4.848  13.141  0.00  0.00    +0.000 A 
ATOM      7  C   UNL     1       7.311   4.287  11.860  0.00  0.00    +0.000 A 
ATOM      8  C   UNL     1       6.280   3.438  11.457  0.00  0.00    +0.000 A 
ATOM      9  C   UNL     1       5.230   3.152  12.327  0.00  0.00    +0.000 A 
ATOM     10  C   UNL     1       5.212   3.711  13.609  0.00  0.00    +0.000 A 
ATOM     11  C   UNL     1       6.244   4.561  14.027  0.00  0.00    +0.000 A 
BRANCH   6  12
ATOM     12  O   UNL     1       8.324   5.655  13.519  0.00  0.00    +0.000 OA
ATOM     13  H   UNL     1       8.014   6.575  13.569  0.00  0.00    +0.000 HD
ENDBRANCH   6  12
ENDBRANCH   1  11
BRANCH   4  14
ATOM     14  C   UNL     1       4.256   6.344  18.039  0.00  0.00    +0.000 A 
ATOM     15  C   UNL     1       3.537   6.071  19.216  0.00  0.00    +0.000 A 
ATOM     16  C   UNL     1       2.445   6.862  19.613  0.00  0.00    +0.000 A 
ATOM     17  C   UNL     1       2.051   7.988  18.886  0.00  0.00    +0.000 A 
ATOM     18  C   UNL     1       2.804   8.287  17.751  0.00  0.00    +0.000 A 
ATOM     19  C   UNL     1       3.866   7.484  17.333  0.00  0.00    +0.000 A 
BRANCH  17  20
ATOM     20  N   UNL     1       1.010   8.815  19.256  0.00  0.00    +0.000 N 
ATOM     21  C   UNL     1       0.645  10.013  18.493  0.00  0.00    +0.000 C 
ATOM     22  C   UNL     1       1.070  11.286  19.233  0.00  0.00    +0.000 C 
ATOM     23  O   UNL     1       0.551  11.315  20.575  0.00  0.00    +0.000 OA
ATOM     24  C   UNL     1       1.036  10.183  21.316  0.00  0.00    +0.000 C 
ATOM     25  C   UNL     1       0.606   8.854  20.675  0.00  0.00    +0.000 C 
ENDBRANCH  17  20
ENDBRANCH   4  14
BRANCH   3  26
ATOM     26  C   UNL     1       7.533   6.958  18.000  0.00  0.00    +0.000 C 
ATOM     27  S   UNL     1       8.200   6.385  19.436  0.00  0.00    +0.000 S 
BRANCH  26  28
ATOM     28  N   UNL     1       7.795   8.208  17.453  0.00  0.00    +0.000 N 
ATOM     29  H   UNL     1       7.425   8.306  16.512  0.00  0.00    +0.000 HD
BRANCH  28  30
ATOM     30  C   UNL     1       8.381   9.339  18.056  0.00  0.00    +0.000 A 
ATOM     31  C   UNL     1       8.191  10.581  17.446  0.00  0.00    +0.000 A 
ATOM     32  C   UNL     1       8.727  11.742  18.018  0.00  0.00    +0.000 A 
ATOM     33  C   UNL     1       9.412  11.673  19.230  0.00  0.00    +0.000 A 
ATOM     34  C   UNL     1       9.562  10.446  19.870  0.00  0.00    +0.000 A 
ATOM     35  C   UNL     1       9.058   9.284  19.279  0.00  0.00    +0.000 A 
ENDBRANCH  28  30
ENDBRANCH  26  28
ENDBRANCH   3  26
TORSDOF 7
ENDMDL
MODEL 8
REMARK VINA RESULT:      -8.1      4.574      9.965
REMARK  Name = 
REMARK  7 active torsions:
REMARK  status: ('A' for Active; 'I' for Inactive)
REMARK    1  A    between atoms: O_1  and  C_2
REMARK    2  A    between atoms: C_7  and  C_8
REMARK    3  A    between atoms: N_10  and  C_11
REMARK    4  A    between atoms: C_11  and  N_13
REMARK    5  A    between atoms: N_13  and  C_14
REMARK    6  A    between atoms: C_20  and  C_21
REMARK    7  A    between atoms: C_24  and  N_25
REMARK                            x       y       z     vdW  Elec       q    Type
REMARK                         _______ _______ _______ _____ _____    ______ ____
ROOT
ATOM      1  C   UNL     1       0.774  13.434  18.917  0.00  0.00    +0.000 C 
ATOM      2  N   UNL     1      -0.214  13.030  18.173  0.00  0.00    +0.000 NA
ATOM      3  N   UNL     1      -0.751  11.909  18.793  0.00  0.00    +0.000 N 
ATOM      4  C   UNL     1      -0.013  11.513  20.019  0.00  0.00    +0.000 C 
ATOM      5  C   UNL     1       1.035  12.619  20.148  0.00  0.00    +0.000 C 
ENDROOT
BRANCH   1  11
ATOM      6  C   UNL     1       2.826  14.642  18.036  0.00  0.00    +0.000 A 
ATOM      7  C   UNL     1       3.517  15.835  17.798  0.00  0.00    +0.000 A 
ATOM      8  C   UNL     1       2.944  17.054  18.160  0.00  0.00    +0.000 A 
ATOM      9  C   UNL     1       1.686  17.083  18.762  0.00  0.00    +0.000 A 
ATOM     10  C   UNL     1       0.996  15.890  18.997  0.00  0.00    +0.000 A 
ATOM     11  C   UNL     1       1.559  14.660  18.633  0.00  0.00    +0.000 A 
BRANCH   6  12
ATOM     12  O   UNL     1       3.399  13.465  17.648  0.00  0.00    +0.000 OA
ATOM     13  H   UNL     1       3.389  12.841  18.392  0.00  0.00    +0.000 HD
ENDBRANCH   6  12
ENDBRANCH   1  11
BRANCH   4  14
ATOM     14  C   UNL     1       0.635  10.122  19.965  0.00  0.00    +0.000 A 
ATOM     15  C   UNL     1       0.526   9.222  21.039  0.00  0.00    +0.000 A 
ATOM     16  C   UNL     1       1.121   7.950  20.999  0.00  0.00    +0.000 A 
ATOM     17  C   UNL     1       1.808   7.495  19.871  0.00  0.00    +0.000 A 
ATOM     18  C   UNL     1       1.865   8.369  18.786  0.00  0.00    +0.000 A 
ATOM     19  C   UNL     1       1.306   9.648  18.835  0.00  0.00    +0.000 A 
BRANCH  17  20
ATOM     20  N   UNL     1       2.377   6.241  19.771  0.00  0.00    +0.000 N 
ATOM     21  C   UNL     1       2.859   5.692  18.499  0.00  0.00    +0.000 C 
ATOM     22  C   UNL     1       1.916   4.601  17.981  0.00  0.00    +0.000 C 
ATOM     23  O   UNL     1       1.699   3.578  18.969  0.00  0.00    +0.000 OA
ATOM     24  C   UNL     1       1.114   4.149  20.151  0.00  0.00    +0.000 C 
ATOM     25  C   UNL     1       2.022   5.221  20.776  0.00  0.00    +0.000 C 
ENDBRANCH  17  20
ENDBRANCH   4  14
BRANCH   3  26
ATOM     26  C   UNL     1      -1.969  11.397  18.319  0.00  0.00    +0.000 C 
ATOM     27  S   UNL     1      -2.122   9.943  17.484  0.00  0.00    +0.000 S 
BRANCH  26  28
ATOM     28  N   UNL     1      -3.029  12.234  18.646  0.00  0.00    +0.000 N 
ATOM     29  H   UNL     1      -2.775  13.217  18.602  0.00  0.00    +0.000 HD
BRANCH  28  30
ATOM     30  C   UNL     1      -4.375  11.907  18.907  0.00  0.00    +0.000 A 
ATOM     31  C   UNL     1      -4.915  12.284  20.138  0.00  0.00    +0.000 A 
ATOM     32  C   UNL     1      -6.256  12.010  20.438  0.00  0.00    +0.000 A 
ATOM     33  C   UNL     1      -7.075  11.403  19.489  0.00  0.00    +0.000 A 
ATOM     34  C   UNL     1      -6.557  11.069  18.241  0.00  0.00    +0.000 A 
ATOM     35  C   UNL     1      -5.210  11.311  17.956  0.00  0.00    +0.000 A 
ENDBRANCH  28  30
ENDBRANCH  26  28
ENDBRANCH   3  26
TORSDOF 7
ENDMDL
MODEL 9
REMARK VINA RESULT:      -8.0      4.481      9.940
REMARK  Name = 
REMARK  7 active torsions:
REMARK  status: ('A' for Active; 'I' for Inactive)
REMARK    1  A    between atoms: O_1  and  C_2
REMARK    2  A    between atoms: C_7  and  C_8
REMARK    3  A    between atoms: N_10  and  C_11
REMARK    4  A    between atoms: C_11  and  N_13
REMARK    5  A    between atoms: N_13  and  C_14
REMARK    6  A    between atoms: C_20  and  C_21
REMARK    7  A    between atoms: C_24  and  N_25
REMARK                            x       y       z     vdW  Elec       q    Type
REMARK                         _______ _______ _______ _____ _____    ______ ____
ROOT
ATOM      1  C   UNL     1       0.924  13.452  18.887  0.00  0.00    +0.000 C 
ATOM      2  N   UNL     1      -0.133  13.068  18.232  0.00  0.00    +0.000 NA
ATOM      3  N   UNL     1      -0.642  11.965  18.903  0.00  0.00    +0.000 N 
ATOM      4  C   UNL     1       0.186  11.557  20.066  0.00  0.00    +0.000 C 
ATOM      5  C   UNL     1       1.267  12.638  20.099  0.00  0.00    +0.000 C 
ENDROOT
BRANCH   1  11
ATOM      6  C   UNL     1       2.992  14.599  17.963  0.00  0.00    +0.000 A 
ATOM      7  C   UNL     1       3.685  15.773  17.651  0.00  0.00    +0.000 A 
ATOM      8  C   UNL     1       3.102  17.013  17.909  0.00  0.00    +0.000 A 
ATOM      9  C   UNL     1       1.831  17.083  18.480  0.00  0.00    +0.000 A 
ATOM     10  C   UNL     1       1.138  15.908  18.788  0.00  0.00    +0.000 A 
ATOM     11  C   UNL     1       1.712  14.656  18.529  0.00  0.00    +0.000 A 
BRANCH   6  12
ATOM     12  O   UNL     1       3.576  13.399  17.676  0.00  0.00    +0.000 OA
ATOM     13  H   UNL     1       4.169  13.146  18.404  0.00  0.00    +0.000 HD
ENDBRANCH   6  12
ENDBRANCH   1  11
BRANCH   4  14
ATOM     14  C   UNL     1       0.793  10.150  19.969  0.00  0.00    +0.000 A 
ATOM     15  C   UNL     1       0.698   9.237  21.033  0.00  0.00    +0.000 A 
ATOM     16  C   UNL     1       1.256   7.950  20.953  0.00  0.00    +0.000 A 
ATOM     17  C   UNL     1       1.888   7.494  19.794  0.00  0.00    +0.000 A 
ATOM     18  C   UNL     1       1.930   8.383  18.721  0.00  0.00    +0.000 A 
ATOM     19  C   UNL     1       1.408   9.675  18.808  0.00  0.00    +0.000 A 
BRANCH  17  20
ATOM     20  N   UNL     1       2.418   6.227  19.656  0.00  0.00    +0.000 N 
ATOM     21  C   UNL     1       2.816   5.676  18.356  0.00  0.00    +0.000 C 
ATOM     22  C   UNL     1       1.818   4.613  17.883  0.00  0.00    +0.000 C 
ATOM     23  O   UNL     1       1.629   3.588  18.876  0.00  0.00    +0.000 OA
ATOM     24  C   UNL     1       1.124   4.165  20.091  0.00  0.00    +0.000 C 
ATOM     25  C   UNL     1       2.092   5.208  20.673  0.00  0.00    +0.000 C 
ENDBRANCH  17  20
ENDBRANCH   4  14
BRANCH   3  26
ATOM     26  C   UNL     1      -1.908  11.481  18.537  0.00  0.00    +0.000 C 
ATOM     27  S   UNL     1      -2.177   9.975  17.832  0.00  0.00    +0.000 S 
BRANCH  26  28
ATOM     28  N   UNL     1      -2.907  12.395  18.849  0.00  0.00    +0.000 N 
ATOM     29  H   UNL     1      -3.220  12.922  18.038  0.00  0.00    +0.000 HD
BRANCH  28  30
ATOM     30  C   UNL     1      -3.585  12.592  20.069  0.00  0.00    +0.000 A 
ATOM     31  C   UNL     1      -4.981  12.629  20.046  0.00  0.00    +0.000 A 
ATOM     32  C   UNL     1      -5.707  12.792  21.234  0.00  0.00    +0.000 A 
ATOM     33  C   UNL     1      -5.041  12.868  22.455  0.00  0.00    +0.000 A 
ATOM     34  C   UNL     1      -3.652  12.782  22.492  0.00  0.00    +0.000 A 
ATOM     35  C   UNL     1      -2.928  12.655  21.303  0.00  0.00    +0.000 A 
ENDBRANCH  28  30
ENDBRANCH  26  28
ENDBRANCH   3  26
TORSDOF 7
ENDMDL
