MODEL 1
REMARK VINA RESULT:      -9.1      0.000      0.000
REMARK  Name = 
REMARK  8 active torsions:
REMARK  status: ('A' for Active; 'I' for Inactive)
REMARK    1  A    between atoms: C_1  and  C_2
REMARK    2  A    between atoms: C_5  and  C_6
REMARK    3  A    between atoms: C_6  and  C_7
REMARK    4  A    between atoms: C_7  and  O_9
REMARK    5  A    between atoms: C_15  and  C_17
REMARK    6  A    between atoms: C_20  and  O_21
REMARK    7  A    between atoms: O_21  and  C_22
REMARK    8  A    between atoms: C_22  and  C_23
REMARK                            x       y       z     vdW  Elec       q    Type
REMARK                         _______ _______ _______ _____ _____    ______ ____
ROOT
ATOM      1  C   UNL     1       1.156   9.522  19.960  0.00  0.00    +0.000 A 
ATOM      2  C   UNL     1       1.697   9.393  18.677  0.00  0.00    +0.000 A 
ATOM      3  C   UNL     1       2.270   8.180  18.263  0.00  0.00    +0.000 A 
ATOM      4  C   UNL     1       2.310   7.071  19.119  0.00  0.00    +0.000 A 
ATOM      5  C   UNL     1       1.800   7.221  20.415  0.00  0.00    +0.000 A 
ATOM      6  C   UNL     1       1.250   8.444  20.846  0.00  0.00    +0.000 A 
ENDROOT
BRANCH   1  17
ATOM      7  C   UNL     1      -0.935  12.953  21.992  0.00  0.00    +0.000 C 
ATOM      8  C   UNL     1      -1.443  12.285  20.757  0.00  0.00    +0.000 A 
ATOM      9  C   UNL     1      -2.671  12.467  20.159  0.00  0.00    +0.000 A 
ATOM     10  C   UNL     1      -2.747  11.632  19.017  0.00  0.00    +0.000 A 
ATOM     11  C   UNL     1      -3.751  11.440  18.028  0.00  0.00    +0.000 A 
ATOM     12  C   UNL     1      -3.481  10.545  16.977  0.00  0.00    +0.000 A 
ATOM     13  C   UNL     1      -2.270   9.874  16.898  0.00  0.00    +0.000 A 
ATOM     14  C   UNL     1      -1.278  10.074  17.858  0.00  0.00    +0.000 A 
ATOM     15  C   UNL     1      -1.531  10.934  18.944  0.00  0.00    +0.000 A 
ATOM     16  N   UNL     1      -0.732  11.309  20.045  0.00  0.00    +0.000 N 
ATOM     17  C   UNL     1       0.570  10.826  20.378  0.00  0.00    +0.000 C 
ATOM     18  O   UNL     1       1.278  11.539  21.087  0.00  0.00    +0.000 OA
BRANCH  11  19
ATOM     19  C   UNL     1      -5.078  12.179  18.033  0.00  0.00    +0.000 C 
BRANCH  19  20
ATOM     20  C   UNL     1      -6.186  11.533  18.847  0.00  0.00    +0.000 C 
ATOM     21  O   UNL     1      -7.110  10.915  18.323  0.00  0.00    +0.000 OA
BRANCH  20  22
ATOM     22  O   UNL     1      -6.128  11.757  20.174  0.00  0.00    +0.000 OA
ATOM     23  H   UNL     1      -6.066  10.945  20.716  0.00  0.00    +0.000 HD
ENDBRANCH  20  22
ENDBRANCH  19  20
ENDBRANCH  11  19
ENDBRANCH   1  17
BRANCH   4  24
ATOM     24  O   UNL     1       2.806   5.823  18.798  0.00  0.00    +0.000 OA
BRANCH  24  25
ATOM     25  C   UNL     1       3.966   5.390  19.525  0.00  0.00    +0.000 C 
BRANCH  25  26
ATOM     26  C   UNL     1       5.086   4.786  18.655  0.00  0.00    +0.000 C 
ATOM     27  C   UNL     1       6.042   5.888  18.216  0.00  0.00    +0.000 C 
ATOM     28  O   UNL     1       7.179   5.306  17.582  0.00  0.00    +0.000 OA
ATOM     29  C   UNL     1       6.774   4.809  16.372  0.00  0.00    +0.000 A 
ATOM     30  C   UNL     1       7.570   5.129  15.277  0.00  0.00    +0.000 A 
ATOM     31  C   UNL     1       7.141   4.782  14.004  0.00  0.00    +0.000 A 
ATOM     32  C   UNL     1       5.972   4.034  13.848  0.00  0.00    +0.000 A 
ATOM     33  C   UNL     1       5.202   3.672  14.963  0.00  0.00    +0.000 A 
ATOM     34  C   UNL     1       5.567   4.110  16.241  0.00  0.00    +0.000 A 
ATOM     35  C   UNL     1       4.663   3.916  17.444  0.00  0.00    +0.000 C 
ENDBRANCH  25  26
ENDBRANCH  24  25
ENDBRANCH   4  24
TORSDOF 7
ENDMDL
MODEL 2
REMARK VINA RESULT:      -9.0      1.036      1.344
REMARK  Name = 
REMARK  8 active torsions:
REMARK  status: ('A' for Active; 'I' for Inactive)
REMARK    1  A    between atoms: C_1  and  C_2
REMARK    2  A    between atoms: C_5  and  C_6
REMARK    3  A    between atoms: C_6  and  C_7
REMARK    4  A    between atoms: C_7  and  O_9
REMARK    5  A    between atoms: C_15  and  C_17
REMARK    6  A    between atoms: C_20  and  O_21
REMARK    7  A    between atoms: O_21  and  C_22
REMARK    8  A    between atoms: C_22  and  C_23
REMARK                            x       y       z     vdW  Elec       q    Type
REMARK                         _______ _______ _______ _____ _____    ______ ____
ROOT
ATOM      1  C   UNL     1       0.495  10.101  20.439  0.00  0.00    +0.000 A 
ATOM      2  C   UNL     1       1.230   9.729  19.309  0.00  0.00    +0.000 A 
ATOM      3  C   UNL     1       1.837   8.466  19.236  0.00  0.00    +0.000 A 
ATOM      4  C   UNL     1       1.719   7.547  20.287  0.00  0.00    +0.000 A 
ATOM      5  C   UNL     1       1.013   7.941  21.431  0.00  0.00    +0.000 A 
ATOM      6  C   UNL     1       0.426   9.218  21.522  0.00  0.00    +0.000 A 
ENDROOT
BRANCH   1  17
ATOM      7  C   UNL     1      -1.738  13.874  21.460  0.00  0.00    +0.000 C 
ATOM      8  C   UNL     1      -2.167  12.918  20.398  0.00  0.00    +0.000 A 
ATOM      9  C   UNL     1      -3.358  12.924  19.705  0.00  0.00    +0.000 A 
ATOM     10  C   UNL     1      -3.360  11.837  18.797  0.00  0.00    +0.000 A 
ATOM     11  C   UNL     1      -4.302  11.391  17.829  0.00  0.00    +0.000 A 
ATOM     12  C   UNL     1      -3.964  10.275  17.042  0.00  0.00    +0.000 A 
ATOM     13  C   UNL     1      -2.745   9.630  17.196  0.00  0.00    +0.000 A 
ATOM     14  C   UNL     1      -1.813  10.077  18.133  0.00  0.00    +0.000 A 
ATOM     15  C   UNL     1      -2.137  11.168  18.963  0.00  0.00    +0.000 A 
ATOM     16  N   UNL     1      -1.408  11.815  19.983  0.00  0.00    +0.000 N 
ATOM     17  C   UNL     1      -0.124  11.454  20.496  0.00  0.00    +0.000 C 
ATOM     18  O   UNL     1       0.535  12.332  21.050  0.00  0.00    +0.000 OA
BRANCH  11  19
ATOM     19  C   UNL     1      -5.632  12.080  17.581  0.00  0.00    +0.000 C 
BRANCH  19  20
ATOM     20  C   UNL     1      -6.747  11.725  18.550  0.00  0.00    +0.000 C 
ATOM     21  O   UNL     1      -7.164  12.520  19.389  0.00  0.00    +0.000 OA
BRANCH  20  22
ATOM     22  O   UNL     1      -7.187  10.454  18.476  0.00  0.00    +0.000 OA
ATOM     23  H   UNL     1      -7.895  10.311  17.816  0.00  0.00    +0.000 HD
ENDBRANCH  20  22
ENDBRANCH  19  20
ENDBRANCH  11  19
ENDBRANCH   1  17
BRANCH   4  24
ATOM     24  O   UNL     1       2.236   6.266  20.299  0.00  0.00    +0.000 OA
BRANCH  24  25
ATOM     25  C   UNL     1       2.092   5.507  19.088  0.00  0.00    +0.000 C 
BRANCH  25  26
ATOM     26  C   UNL     1       3.330   4.676  18.697  0.00  0.00    +0.000 C 
ATOM     27  C   UNL     1       4.590   5.366  19.204  0.00  0.00    +0.000 C 
ATOM     28  O   UNL     1       5.712   4.504  19.018  0.00  0.00    +0.000 OA
ATOM     29  C   UNL     1       5.969   4.439  17.675  0.00  0.00    +0.000 A 
ATOM     30  C   UNL     1       7.296   4.608  17.293  0.00  0.00    +0.000 A 
ATOM     31  C   UNL     1       7.606   4.698  15.944  0.00  0.00    +0.000 A 
ATOM     32  C   UNL     1       6.601   4.519  14.990  0.00  0.00    +0.000 A 
ATOM     33  C   UNL     1       5.273   4.298  15.384  0.00  0.00    +0.000 A 
ATOM     34  C   UNL     1       4.932   4.314  16.742  0.00  0.00    +0.000 A 
ATOM     35  C   UNL     1       3.487   4.282  17.206  0.00  0.00    +0.000 C 
ENDBRANCH  25  26
ENDBRANCH  24  25
ENDBRANCH   4  24
TORSDOF 7
ENDMDL
MODEL 3
REMARK VINA RESULT:      -9.0      1.755      2.109
REMARK  Name = 
REMARK  8 active torsions:
REMARK  status: ('A' for Active; 'I' for Inactive)
REMARK    1  A    between atoms: C_1  and  C_2
REMARK    2  A    between atoms: C_5  and  C_6
REMARK    3  A    between atoms: C_6  and  C_7
REMARK    4  A    between atoms: C_7  and  O_9
REMARK    5  A    between atoms: C_15  and  C_17
REMARK    6  A    between atoms: C_20  and  O_21
REMARK    7  A    between atoms: O_21  and  C_22
REMARK    8  A    between atoms: C_22  and  C_23
REMARK                            x       y       z     vdW  Elec       q    Type
REMARK                         _______ _______ _______ _____ _____    ______ ____
ROOT
ATOM      1  C   UNL     1       0.362   9.702  20.651  0.00  0.00    +0.000 A 
ATOM      2  C   UNL     1       1.312   9.468  19.653  0.00  0.00    +0.000 A 
ATOM      3  C   UNL     1       1.891   8.197  19.503  0.00  0.00    +0.000 A 
ATOM      4  C   UNL     1       1.530   7.136  20.342  0.00  0.00    +0.000 A 
ATOM      5  C   UNL     1       0.605   7.389  21.364  0.00  0.00    +0.000 A 
ATOM      6  C   UNL     1       0.043   8.669  21.538  0.00  0.00    +0.000 A 
ENDROOT
BRANCH   1  17
ATOM      7  C   UNL     1      -1.876  13.420  21.852  0.00  0.00    +0.000 C 
ATOM      8  C   UNL     1      -2.197  12.613  20.638  0.00  0.00    +0.000 A 
ATOM      9  C   UNL     1      -3.294  12.750  19.816  0.00  0.00    +0.000 A 
ATOM     10  C   UNL     1      -3.215  11.777  18.789  0.00  0.00    +0.000 A 
ATOM     11  C   UNL     1      -4.044  11.487  17.670  0.00  0.00    +0.000 A 
ATOM     12  C   UNL     1      -3.642  10.458  16.799  0.00  0.00    +0.000 A 
ATOM     13  C   UNL     1      -2.469   9.750  17.016  0.00  0.00    +0.000 A 
ATOM     14  C   UNL     1      -1.647  10.044  18.104  0.00  0.00    +0.000 A 
ATOM     15  C   UNL     1      -2.040  11.044  19.015  0.00  0.00    +0.000 A 
ATOM     16  N   UNL     1      -1.424  11.535  20.186  0.00  0.00    +0.000 N 
ATOM     17  C   UNL     1      -0.222  11.065  20.799  0.00  0.00    +0.000 C 
ATOM     18  O   UNL     1       0.388  11.843  21.529  0.00  0.00    +0.000 OA
BRANCH  11  19
ATOM     19  C   UNL     1      -5.314  12.256  17.352  0.00  0.00    +0.000 C 
BRANCH  19  20
ATOM     20  C   UNL     1      -6.495  11.981  18.268  0.00  0.00    +0.000 C 
ATOM     21  O   UNL     1      -7.039  10.880  18.324  0.00  0.00    +0.000 OA
BRANCH  20  22
ATOM     22  O   UNL     1      -6.953  13.049  18.950  0.00  0.00    +0.000 OA
ATOM     23  H   UNL     1      -6.681  13.072  19.890  0.00  0.00    +0.000 HD
ENDBRANCH  20  22
ENDBRANCH  19  20
ENDBRANCH  11  19
ENDBRANCH   1  17
BRANCH   4  24
ATOM     24  O   UNL     1       2.001   5.841  20.252  0.00  0.00    +0.000 OA
BRANCH  24  25
ATOM     25  C   UNL     1       2.143   5.303  18.928  0.00  0.00    +0.000 C 
BRANCH  25  26
ATOM     26  C   UNL     1       3.599   5.051  18.487  0.00  0.00    +0.000 C 
ATOM     27  C   UNL     1       4.488   4.912  19.716  0.00  0.00    +0.000 C 
ATOM     28  O   UNL     1       5.789   4.484  19.316  0.00  0.00    +0.000 OA
ATOM     29  C   UNL     1       6.392   5.530  18.670  0.00  0.00    +0.000 A 
ATOM     30  C   UNL     1       7.695   5.824  19.057  0.00  0.00    +0.000 A 
ATOM     31  C   UNL     1       8.313   6.958  18.548  0.00  0.00    +0.000 A 
ATOM     32  C   UNL     1       7.658   7.728  17.585  0.00  0.00    +0.000 A 
ATOM     33  C   UNL     1       6.363   7.395  17.162  0.00  0.00    +0.000 A 
ATOM     34  C   UNL     1       5.689   6.317  17.748  0.00  0.00    +0.000 A 
ATOM     35  C   UNL     1       4.222   6.041  17.471  0.00  0.00    +0.000 C 
ENDBRANCH  25  26
ENDBRANCH  24  25
ENDBRANCH   4  24
TORSDOF 7
ENDMDL
MODEL 4
REMARK VINA RESULT:      -9.0      0.703      1.144
REMARK  Name = 
REMARK  8 active torsions:
REMARK  status: ('A' for Active; 'I' for Inactive)
REMARK    1  A    between atoms: C_1  and  C_2
REMARK    2  A    between atoms: C_5  and  C_6
REMARK    3  A    between atoms: C_6  and  C_7
REMARK    4  A    between atoms: C_7  and  O_9
REMARK    5  A    between atoms: C_15  and  C_17
REMARK    6  A    between atoms: C_20  and  O_21
REMARK    7  A    between atoms: O_21  and  C_22
REMARK    8  A    between atoms: C_22  and  C_23
REMARK                            x       y       z     vdW  Elec       q    Type
REMARK                         _______ _______ _______ _____ _____    ______ ____
ROOT
ATOM      1  C   UNL     1       1.274   9.951  19.498  0.00  0.00    +0.000 A 
ATOM      2  C   UNL     1       1.163   8.978  20.495  0.00  0.00    +0.000 A 
ATOM      3  C   UNL     1       1.597   7.663  20.261  0.00  0.00    +0.000 A 
ATOM      4  C   UNL     1       2.156   7.296  19.030  0.00  0.00    +0.000 A 
ATOM      5  C   UNL     1       2.228   8.267  18.023  0.00  0.00    +0.000 A 
ATOM      6  C   UNL     1       1.767   9.580  18.243  0.00  0.00    +0.000 A 
ENDROOT
BRANCH   1  17
ATOM      7  C   UNL     1      -0.277  13.805  21.232  0.00  0.00    +0.000 C 
ATOM      8  C   UNL     1      -1.084  12.905  20.356  0.00  0.00    +0.000 A 
ATOM      9  C   UNL     1      -2.432  12.996  20.089  0.00  0.00    +0.000 A 
ATOM     10  C   UNL     1      -2.794  11.938  19.219  0.00  0.00    +0.000 A 
ATOM     11  C   UNL     1      -4.023  11.571  18.606  0.00  0.00    +0.000 A 
ATOM     12  C   UNL     1      -4.026  10.463  17.739  0.00  0.00    +0.000 A 
ATOM     13  C   UNL     1      -2.864   9.751  17.480  0.00  0.00    +0.000 A 
ATOM     14  C   UNL     1      -1.654  10.119  18.068  0.00  0.00    +0.000 A 
ATOM     15  C   UNL     1      -1.625  11.201  18.970  0.00  0.00    +0.000 A 
ATOM     16  N   UNL     1      -0.568  11.776  19.705  0.00  0.00    +0.000 N 
ATOM     17  C   UNL     1       0.789  11.333  19.768  0.00  0.00    +0.000 C 
ATOM     18  O   UNL     1       1.644  12.157  20.087  0.00  0.00    +0.000 OA
BRANCH  11  19
ATOM     19  C   UNL     1      -5.318  12.338  18.811  0.00  0.00    +0.000 C 
BRANCH  19  20
ATOM     20  C   UNL     1      -6.470  11.936  17.905  0.00  0.00    +0.000 C 
ATOM     21  O   UNL     1      -6.736  12.544  16.871  0.00  0.00    +0.000 OA
BRANCH  20  22
ATOM     22  O   UNL     1      -7.227  10.917  18.359  0.00  0.00    +0.000 OA
ATOM     23  H   UNL     1      -8.175  11.138  18.465  0.00  0.00    +0.000 HD
ENDBRANCH  20  22
ENDBRANCH  19  20
ENDBRANCH  11  19
ENDBRANCH   1  17
BRANCH   4  24
ATOM     24  O   UNL     1       2.655   6.048  18.712  0.00  0.00    +0.000 OA
BRANCH  24  25
ATOM     25  C   UNL     1       3.797   5.606  19.461  0.00  0.00    +0.000 C 
BRANCH  25  26
ATOM     26  C   UNL     1       4.875   4.882  18.629  0.00  0.00    +0.000 C 
ATOM     27  C   UNL     1       5.987   5.860  18.272  0.00  0.00    +0.000 C 
ATOM     28  O   UNL     1       7.072   5.150  17.678  0.00  0.00    +0.000 OA
ATOM     29  C   UNL     1       6.671   4.740  16.435  0.00  0.00    +0.000 A 
ATOM     30  C   UNL     1       7.559   4.979  15.391  0.00  0.00    +0.000 A 
ATOM     31  C   UNL     1       7.158   4.722  14.088  0.00  0.00    +0.000 A 
ATOM     32  C   UNL     1       5.912   4.138  13.851  0.00  0.00    +0.000 A 
ATOM     33  C   UNL     1       5.043   3.852  14.914  0.00  0.00    +0.000 A 
ATOM     34  C   UNL     1       5.393   4.208  16.222  0.00  0.00    +0.000 A 
ATOM     35  C   UNL     1       4.408   4.105  17.373  0.00  0.00    +0.000 C 
ENDBRANCH  25  26
ENDBRANCH  24  25
ENDBRANCH   4  24
TORSDOF 7
ENDMDL
MODEL 5
REMARK VINA RESULT:      -8.9      2.187      3.556
REMARK  Name = 
REMARK  8 active torsions:
REMARK  status: ('A' for Active; 'I' for Inactive)
REMARK    1  A    between atoms: C_1  and  C_2
REMARK    2  A    between atoms: C_5  and  C_6
REMARK    3  A    between atoms: C_6  and  C_7
REMARK    4  A    between atoms: C_7  and  O_9
REMARK    5  A    between atoms: C_15  and  C_17
REMARK    6  A    between atoms: C_20  and  O_21
REMARK    7  A    between atoms: O_21  and  C_22
REMARK    8  A    between atoms: C_22  and  C_23
REMARK                            x       y       z     vdW  Elec       q    Type
REMARK                         _______ _______ _______ _____ _____    ______ ____
ROOT
ATOM      1  C   UNL     1       0.869  10.746  19.833  0.00  0.00    +0.000 A 
ATOM      2  C   UNL     1       0.841   9.408  20.238  0.00  0.00    +0.000 A 
ATOM      3  C   UNL     1       1.439   8.411  19.450  0.00  0.00    +0.000 A 
ATOM      4  C   UNL     1       2.081   8.731  18.246  0.00  0.00    +0.000 A 
ATOM      5  C   UNL     1       2.071  10.069  17.830  0.00  0.00    +0.000 A 
ATOM      6  C   UNL     1       1.448  11.068  18.602  0.00  0.00    +0.000 A 
ENDROOT
BRANCH   1  17
ATOM      7  C   UNL     1      -1.227  13.132  23.025  0.00  0.00    +0.000 C 
ATOM      8  C   UNL     1      -1.865  12.727  21.738  0.00  0.00    +0.000 A 
ATOM      9  C   UNL     1      -3.194  12.845  21.396  0.00  0.00    +0.000 A 
ATOM     10  C   UNL     1      -3.373  12.331  20.089  0.00  0.00    +0.000 A 
ATOM     11  C   UNL     1      -4.509  12.231  19.239  0.00  0.00    +0.000 A 
ATOM     12  C   UNL     1      -4.327  11.695  17.951  0.00  0.00    +0.000 A 
ATOM     13  C   UNL     1      -3.077  11.284  17.514  0.00  0.00    +0.000 A 
ATOM     14  C   UNL     1      -1.958  11.396  18.340  0.00  0.00    +0.000 A 
ATOM     15  C   UNL     1      -2.114  11.893  19.649  0.00  0.00    +0.000 A 
ATOM     16  N   UNL     1      -1.180  12.102  20.686  0.00  0.00    +0.000 N 
ATOM     17  C   UNL     1       0.211  11.779  20.681  0.00  0.00    +0.000 C 
ATOM     18  O   UNL     1       0.943  12.395  21.454  0.00  0.00    +0.000 OA
BRANCH  11  19
ATOM     19  C   UNL     1      -5.895  12.707  19.640  0.00  0.00    +0.000 C 
BRANCH  19  20
ATOM     20  C   UNL     1      -6.765  11.678  20.341  0.00  0.00    +0.000 C 
ATOM     21  O   UNL     1      -6.675  11.452  21.545  0.00  0.00    +0.000 OA
BRANCH  20  22
ATOM     22  O   UNL     1      -7.584  10.974  19.533  0.00  0.00    +0.000 OA
ATOM     23  H   UNL     1      -8.055  10.242  19.979  0.00  0.00    +0.000 HD
ENDBRANCH  20  22
ENDBRANCH  19  20
ENDBRANCH  11  19
ENDBRANCH   1  17
BRANCH   4  24
ATOM     24  O   UNL     1       2.738   7.840  17.422  0.00  0.00    +0.000 OA
BRANCH  24  25
ATOM     25  C   UNL     1       4.024   7.384  17.868  0.00  0.00    +0.000 C 
BRANCH  25  26
ATOM     26  C   UNL     1       4.063   5.915  18.334  0.00  0.00    +0.000 C 
ATOM     27  C   UNL     1       3.246   5.055  17.380  0.00  0.00    +0.000 C 
ATOM     28  O   UNL     1       3.444   3.677  17.693  0.00  0.00    +0.000 OA
ATOM     29  C   UNL     1       2.813   3.426  18.882  0.00  0.00    +0.000 A 
ATOM     30  C   UNL     1       2.007   2.293  18.924  0.00  0.00    +0.000 A 
ATOM     31  C   UNL     1       1.226   2.058  20.048  0.00  0.00    +0.000 A 
ATOM     32  C   UNL     1       1.336   2.904  21.154  0.00  0.00    +0.000 A 
ATOM     33  C   UNL     1       2.190   4.015  21.122  0.00  0.00    +0.000 A 
ATOM     34  C   UNL     1       2.899   4.323  19.955  0.00  0.00    +0.000 A 
ATOM     35  C   UNL     1       3.675   5.619  19.805  0.00  0.00    +0.000 C 
ENDBRANCH  25  26
ENDBRANCH  24  25
ENDBRANCH   4  24
TORSDOF 7
ENDMDL
MODEL 6
REMARK VINA RESULT:      -8.8      1.870      2.363
REMARK  Name = 
REMARK  8 active torsions:
REMARK  status: ('A' for Active; 'I' for Inactive)
REMARK    1  A    between atoms: C_1  and  C_2
REMARK    2  A    between atoms: C_5  and  C_6
REMARK    3  A    between atoms: C_6  and  C_7
REMARK    4  A    between atoms: C_7  and  O_9
REMARK    5  A    between atoms: C_15  and  C_17
REMARK    6  A    between atoms: C_20  and  O_21
REMARK    7  A    between atoms: O_21  and  C_22
REMARK    8  A    between atoms: C_22  and  C_23
REMARK                            x       y       z     vdW  Elec       q    Type
REMARK                         _______ _______ _______ _____ _____    ______ ____
ROOT
ATOM      1  C   UNL     1       0.207   9.987  20.646  0.00  0.00    +0.000 A 
ATOM      2  C   UNL     1      -0.128   9.003  21.580  0.00  0.00    +0.000 A 
ATOM      3  C   UNL     1       0.444   7.723  21.504  0.00  0.00    +0.000 A 
ATOM      4  C   UNL     1       1.366   7.403  20.499  0.00  0.00    +0.000 A 
ATOM      5  C   UNL     1       1.668   8.384  19.545  0.00  0.00    +0.000 A 
ATOM      6  C   UNL     1       1.075   9.660  19.599  0.00  0.00    +0.000 A 
ENDROOT
BRANCH   1  17
ATOM      7  C   UNL     1      -2.178  13.658  21.698  0.00  0.00    +0.000 C 
ATOM      8  C   UNL     1      -2.460  12.798  20.512  0.00  0.00    +0.000 A 
ATOM      9  C   UNL     1      -3.554  12.864  19.678  0.00  0.00    +0.000 A 
ATOM     10  C   UNL     1      -3.431  11.859  18.686  0.00  0.00    +0.000 A 
ATOM     11  C   UNL     1      -4.238  11.498  17.573  0.00  0.00    +0.000 A 
ATOM     12  C   UNL     1      -3.792  10.455  16.742  0.00  0.00    +0.000 A 
ATOM     13  C   UNL     1      -2.595   9.800  16.992  0.00  0.00    +0.000 A 
ATOM     14  C   UNL     1      -1.793  10.163  18.074  0.00  0.00    +0.000 A 
ATOM     15  C   UNL     1      -2.230  11.179  18.947  0.00  0.00    +0.000 A 
ATOM     16  N   UNL     1      -1.642  11.734  20.103  0.00  0.00    +0.000 N 
ATOM     17  C   UNL     1      -0.429  11.331  20.740  0.00  0.00    +0.000 C 
ATOM     18  O   UNL     1       0.146  12.157  21.446  0.00  0.00    +0.000 OA
BRANCH  11  19
ATOM     19  C   UNL     1      -5.534  12.207  17.219  0.00  0.00    +0.000 C 
BRANCH  19  20
ATOM     20  C   UNL     1      -6.747  11.807  18.042  0.00  0.00    +0.000 C 
ATOM     21  O   UNL     1      -7.617  12.613  18.363  0.00  0.00    +0.000 OA
BRANCH  20  22
ATOM     22  O   UNL     1      -6.759  10.526  18.462  0.00  0.00    +0.000 OA
ATOM     23  H   UNL     1      -6.294   9.904  17.865  0.00  0.00    +0.000 HD
ENDBRANCH  20  22
ENDBRANCH  19  20
ENDBRANCH  11  19
ENDBRANCH   1  17
BRANCH   4  24
ATOM     24  O   UNL     1       2.021   6.195  20.361  0.00  0.00    +0.000 OA
BRANCH  24  25
ATOM     25  C   UNL     1       2.064   5.639  19.037  0.00  0.00    +0.000 C 
BRANCH  25  26
ATOM     26  C   UNL     1       3.479   5.309  18.521  0.00  0.00    +0.000 C 
ATOM     27  C   UNL     1       4.399   5.023  19.701  0.00  0.00    +0.000 C 
ATOM     28  O   UNL     1       5.647   4.527  19.221  0.00  0.00    +0.000 OA
ATOM     29  C   UNL     1       6.305   5.565  18.618  0.00  0.00    +0.000 A 
ATOM     30  C   UNL     1       7.640   5.735  18.968  0.00  0.00    +0.000 A 
ATOM     31  C   UNL     1       8.325   6.851  18.507  0.00  0.00    +0.000 A 
ATOM     32  C   UNL     1       7.696   7.730  17.622  0.00  0.00    +0.000 A 
ATOM     33  C   UNL     1       6.365   7.522  17.233  0.00  0.00    +0.000 A 
ATOM     34  C   UNL     1       5.631   6.461  17.778  0.00  0.00    +0.000 A 
ATOM     35  C   UNL     1       4.139   6.315  17.545  0.00  0.00    +0.000 C 
ENDBRANCH  25  26
ENDBRANCH  24  25
ENDBRANCH   4  24
TORSDOF 7
ENDMDL
MODEL 7
REMARK VINA RESULT:      -8.8      0.869      1.050
REMARK  Name = 
REMARK  8 active torsions:
REMARK  status: ('A' for Active; 'I' for Inactive)
REMARK    1  A    between atoms: C_1  and  C_2
REMARK    2  A    between atoms: C_5  and  C_6
REMARK    3  A    between atoms: C_6  and  C_7
REMARK    4  A    between atoms: C_7  and  O_9
REMARK    5  A    between atoms: C_15  and  C_17
REMARK    6  A    between atoms: C_20  and  O_21
REMARK    7  A    between atoms: O_21  and  C_22
REMARK    8  A    between atoms: C_22  and  C_23
REMARK                            x       y       z     vdW  Elec       q    Type
REMARK                         _______ _______ _______ _____ _____    ______ ____
ROOT
ATOM      1  C   UNL     1       1.093   9.860  19.801  0.00  0.00    +0.000 A 
ATOM      2  C   UNL     1       1.696   9.668  18.554  0.00  0.00    +0.000 A 
ATOM      3  C   UNL     1       2.331   8.455  18.248  0.00  0.00    +0.000 A 
ATOM      4  C   UNL     1       2.373   7.407  19.177  0.00  0.00    +0.000 A 
ATOM      5  C   UNL     1       1.799   7.621  20.437  0.00  0.00    +0.000 A 
ATOM      6  C   UNL     1       1.186   8.847  20.760  0.00  0.00    +0.000 A 
ENDROOT
BRANCH   1  17
ATOM      7  C   UNL     1      -1.147  13.355  21.544  0.00  0.00    +0.000 C 
ATOM      8  C   UNL     1      -1.647  12.536  20.401  0.00  0.00    +0.000 A 
ATOM      9  C   UNL     1      -2.899  12.585  19.828  0.00  0.00    +0.000 A 
ATOM     10  C   UNL     1      -2.955  11.634  18.779  0.00  0.00    +0.000 A 
ATOM     11  C   UNL     1      -3.972  11.284  17.848  0.00  0.00    +0.000 A 
ATOM     12  C   UNL     1      -3.677  10.303  16.884  0.00  0.00    +0.000 A 
ATOM     13  C   UNL     1      -2.429   9.698  16.833  0.00  0.00    +0.000 A 
ATOM     14  C   UNL     1      -1.426  10.052  17.735  0.00  0.00    +0.000 A 
ATOM     15  C   UNL     1      -1.701  11.004  18.736  0.00  0.00    +0.000 A 
ATOM     16  N   UNL     1      -0.898  11.535  19.767  0.00  0.00    +0.000 N 
ATOM     17  C   UNL     1       0.440  11.164  20.104  0.00  0.00    +0.000 C 
ATOM     18  O   UNL     1       1.122  11.985  20.714  0.00  0.00    +0.000 OA
BRANCH  11  19
ATOM     19  C   UNL     1      -5.340  11.942  17.822  0.00  0.00    +0.000 C 
BRANCH  19  20
ATOM     20  C   UNL     1      -6.333  11.436  18.854  0.00  0.00    +0.000 C 
ATOM     21  O   UNL     1      -6.359  11.866  20.005  0.00  0.00    +0.000 OA
BRANCH  20  22
ATOM     22  O   UNL     1      -7.124  10.426  18.442  0.00  0.00    +0.000 OA
ATOM     23  H   UNL     1      -8.075  10.654  18.397  0.00  0.00    +0.000 HD
ENDBRANCH  20  22
ENDBRANCH  19  20
ENDBRANCH  11  19
ENDBRANCH   1  17
BRANCH   4  24
ATOM     24  O   UNL     1       2.929   6.161  18.963  0.00  0.00    +0.000 OA
BRANCH  24  25
ATOM     25  C   UNL     1       2.987   5.713  17.600  0.00  0.00    +0.000 C 
BRANCH  25  26
ATOM     26  C   UNL     1       4.388   5.284  17.119  0.00  0.00    +0.000 C 
ATOM     27  C   UNL     1       5.123   6.491  16.549  0.00  0.00    +0.000 C 
ATOM     28  O   UNL     1       6.481   6.140  16.289  0.00  0.00    +0.000 OA
ATOM     29  C   UNL     1       6.495   5.291  15.216  0.00  0.00    +0.000 A 
ATOM     30  C   UNL     1       7.418   5.576  14.216  0.00  0.00    +0.000 A 
ATOM     31  C   UNL     1       7.389   4.844  13.038  0.00  0.00    +0.000 A 
ATOM     32  C   UNL     1       6.502   3.772  12.913  0.00  0.00    +0.000 A 
ATOM     33  C   UNL     1       5.609   3.458  13.947  0.00  0.00    +0.000 A 
ATOM     34  C   UNL     1       5.556   4.258  15.095  0.00  0.00    +0.000 A 
ATOM     35  C   UNL     1       4.476   4.082  16.146  0.00  0.00    +0.000 C 
ENDBRANCH  25  26
ENDBRANCH  24  25
ENDBRANCH   4  24
TORSDOF 7
ENDMDL
MODEL 8
REMARK VINA RESULT:      -8.6      0.922      1.016
REMARK  Name = 
REMARK  8 active torsions:
REMARK  status: ('A' for Active; 'I' for Inactive)
REMARK    1  A    between atoms: C_1  and  C_2
REMARK    2  A    between atoms: C_5  and  C_6
REMARK    3  A    between atoms: C_6  and  C_7
REMARK    4  A    between atoms: C_7  and  O_9
REMARK    5  A    between atoms: C_15  and  C_17
REMARK    6  A    between atoms: C_20  and  O_21
REMARK    7  A    between atoms: O_21  and  C_22
REMARK    8  A    between atoms: C_22  and  C_23
REMARK                            x       y       z     vdW  Elec       q    Type
REMARK                         _______ _______ _______ _____ _____    ______ ____
ROOT
ATOM      1  C   UNL     1       1.198   9.982  19.328  0.00  0.00    +0.000 A 
ATOM      2  C   UNL     1       1.772   9.763  18.073  0.00  0.00    +0.000 A 
ATOM      3  C   UNL     1       2.288   8.502  17.734  0.00  0.00    +0.000 A 
ATOM      4  C   UNL     1       2.236   7.434  18.639  0.00  0.00    +0.000 A 
ATOM      5  C   UNL     1       1.694   7.672  19.909  0.00  0.00    +0.000 A 
ATOM      6  C   UNL     1       1.201   8.943  20.264  0.00  0.00    +0.000 A 
ENDROOT
BRANCH   1  17
ATOM      7  C   UNL     1      -0.443  13.706  21.255  0.00  0.00    +0.000 C 
ATOM      8  C   UNL     1      -1.237  12.818  20.356  0.00  0.00    +0.000 A 
ATOM      9  C   UNL     1      -2.592  12.875  20.117  0.00  0.00    +0.000 A 
ATOM     10  C   UNL     1      -2.937  11.843  19.209  0.00  0.00    +0.000 A 
ATOM     11  C   UNL     1      -4.166  11.463  18.603  0.00  0.00    +0.000 A 
ATOM     12  C   UNL     1      -4.150  10.393  17.690  0.00  0.00    +0.000 A 
ATOM     13  C   UNL     1      -2.971   9.731  17.380  0.00  0.00    +0.000 A 
ATOM     14  C   UNL     1      -1.762  10.113  17.961  0.00  0.00    +0.000 A 
ATOM     15  C   UNL     1      -1.750  11.156  18.908  0.00  0.00    +0.000 A 
ATOM     16  N   UNL     1      -0.697  11.735  19.647  0.00  0.00    +0.000 N 
ATOM     17  C   UNL     1       0.674  11.335  19.667  0.00  0.00    +0.000 C 
ATOM     18  O   UNL     1       1.507  12.172  20.005  0.00  0.00    +0.000 OA
BRANCH  11  19
ATOM     19  C   UNL     1      -5.480  12.177  18.864  0.00  0.00    +0.000 C 
BRANCH  19  20
ATOM     20  C   UNL     1      -6.178  12.738  17.637  0.00  0.00    +0.000 C 
ATOM     21  O   UNL     1      -7.391  12.932  17.603  0.00  0.00    +0.000 OA
BRANCH  20  22
ATOM     22  O   UNL     1      -5.385  12.929  16.564  0.00  0.00    +0.000 OA
ATOM     23  H   UNL     1      -5.654  13.679  15.995  0.00  0.00    +0.000 HD
ENDBRANCH  20  22
ENDBRANCH  19  20
ENDBRANCH  11  19
ENDBRANCH   1  17
BRANCH   4  24
ATOM     24  O   UNL     1       2.671   6.146  18.393  0.00  0.00    +0.000 OA
BRANCH  24  25
ATOM     25  C   UNL     1       3.762   5.674  19.199  0.00  0.00    +0.000 C 
BRANCH  25  26
ATOM     26  C   UNL     1       4.914   5.023  18.409  0.00  0.00    +0.000 C 
ATOM     27  C   UNL     1       5.853   6.105  17.890  0.00  0.00    +0.000 C 
ATOM     28  O   UNL     1       7.017   5.498  17.333  0.00  0.00    +0.000 OA
ATOM     29  C   UNL     1       6.650   4.884  16.166  0.00  0.00    +0.000 A 
ATOM     30  C   UNL     1       7.462   5.124  15.062  0.00  0.00    +0.000 A 
ATOM     31  C   UNL     1       7.069   4.653  13.817  0.00  0.00    +0.000 A 
ATOM     32  C   UNL     1       5.921   3.865  13.708  0.00  0.00    +0.000 A 
ATOM     33  C   UNL     1       5.136   3.585  14.835  0.00  0.00    +0.000 A 
ATOM     34  C   UNL     1       5.463   4.145  16.076  0.00  0.00    +0.000 A 
ATOM     35  C   UNL     1       4.538   4.037  17.274  0.00  0.00    +0.000 C 
ENDBRANCH  25  26
ENDBRANCH  24  25
ENDBRANCH   4  24
TORSDOF 7
ENDMDL
MODEL 9
REMARK VINA RESULT:      -8.6      1.288      1.853
REMARK  Name = 
REMARK  8 active torsions:
REMARK  status: ('A' for Active; 'I' for Inactive)
REMARK    1  A    between atoms: C_1  and  C_2
REMARK    2  A    between atoms: C_5  and  C_6
REMARK    3  A    between atoms: C_6  and  C_7
REMARK    4  A    between atoms: C_7  and  O_9
REMARK    5  A    between atoms: C_15  and  C_17
REMARK    6  A    between atoms: C_20  and  O_21
REMARK    7  A    between atoms: O_21  and  C_22
REMARK    8  A    between atoms: C_22  and  C_23
REMARK                            x       y       z     vdW  Elec       q    Type
REMARK                         _______ _______ _______ _____ _____    ______ ____
ROOT
ATOM      1  C   UNL     1       0.710  10.731  20.434  0.00  0.00    +0.000 A 
ATOM      2  C   UNL     1       0.726   9.566  21.207  0.00  0.00    +0.000 A 
ATOM      3  C   UNL     1       1.220   8.364  20.675  0.00  0.00    +0.000 A 
ATOM      4  C   UNL     1       1.712   8.303  19.365  0.00  0.00    +0.000 A 
ATOM      5  C   UNL     1       1.657   9.465  18.585  0.00  0.00    +0.000 A 
ATOM      6  C   UNL     1       1.136  10.667  19.104  0.00  0.00    +0.000 A 
ENDROOT
BRANCH   1  17
ATOM      7  C   UNL     1      -1.090  13.973  22.988  0.00  0.00    +0.000 C 
ATOM      8  C   UNL     1      -1.796  13.333  21.839  0.00  0.00    +0.000 A 
ATOM      9  C   UNL     1      -3.120  13.482  21.490  0.00  0.00    +0.000 A 
ATOM     10  C   UNL     1      -3.379  12.692  20.343  0.00  0.00    +0.000 A 
ATOM     11  C   UNL     1      -4.543  12.494  19.551  0.00  0.00    +0.000 A 
ATOM     12  C   UNL     1      -4.443  11.657  18.425  0.00  0.00    +0.000 A 
ATOM     13  C   UNL     1      -3.244  11.048  18.088  0.00  0.00    +0.000 A 
ATOM     14  C   UNL     1      -2.096  11.254  18.854  0.00  0.00    +0.000 A 
ATOM     15  C   UNL     1      -2.173  12.056  20.009  0.00  0.00    +0.000 A 
ATOM     16  N   UNL     1      -1.196  12.422  20.959  0.00  0.00    +0.000 N 
ATOM     17  C   UNL     1       0.164  11.988  21.019  0.00  0.00    +0.000 C 
ATOM     18  O   UNL     1       0.965  12.703  21.617  0.00  0.00    +0.000 OA
BRANCH  11  19
ATOM     19  C   UNL     1      -5.873  13.169  19.840  0.00  0.00    +0.000 C 
BRANCH  19  20
ATOM     20  C   UNL     1      -6.763  12.462  20.848  0.00  0.00    +0.000 C 
ATOM     21  O   UNL     1      -7.395  11.447  20.567  0.00  0.00    +0.000 OA
BRANCH  20  22
ATOM     22  O   UNL     1      -6.873  13.073  22.044  0.00  0.00    +0.000 OA
ATOM     23  H   UNL     1      -6.790  12.472  22.812  0.00  0.00    +0.000 HD
ENDBRANCH  20  22
ENDBRANCH  19  20
ENDBRANCH  11  19
ENDBRANCH   1  17
BRANCH   4  24
ATOM     24  O   UNL     1       2.261   7.188  18.761  0.00  0.00    +0.000 OA
BRANCH  24  25
ATOM     25  C   UNL     1       2.665   6.122  19.635  0.00  0.00    +0.000 C 
BRANCH  25  26
ATOM     26  C   UNL     1       3.661   5.122  19.014  0.00  0.00    +0.000 C 
ATOM     27  C   UNL     1       5.086   5.564  19.319  0.00  0.00    +0.000 C 
ATOM     28  O   UNL     1       5.997   4.542  18.920  0.00  0.00    +0.000 OA
ATOM     29  C   UNL     1       6.017   4.511  17.552  0.00  0.00    +0.000 A 
ATOM     30  C   UNL     1       7.272   4.480  16.954  0.00  0.00    +0.000 A 
ATOM     31  C   UNL     1       7.369   4.594  15.574  0.00  0.00    +0.000 A 
ATOM     32  C   UNL     1       6.206   4.638  14.802  0.00  0.00    +0.000 A 
ATOM     33  C   UNL     1       4.942   4.617  15.410  0.00  0.00    +0.000 A 
ATOM     34  C   UNL     1       4.835   4.612  16.806  0.00  0.00    +0.000 A 
ATOM     35  C   UNL     1       3.502   4.792  17.509  0.00  0.00    +0.000 C 
ENDBRANCH  25  26
ENDBRANCH  24  25
ENDBRANCH   4  24
TORSDOF 7
ENDMDL
