MODEL 1
REMARK VINA RESULT:      -8.1      0.000      0.000
REMARK  Name = 
REMARK  4 active torsions:
REMARK  status: ('A' for Active; 'I' for Inactive)
REMARK    1  A    between atoms: C_1  and  N_2
REMARK    2  A    between atoms: C_4  and  C_5
REMARK    3  A    between atoms: C_8  and  C_9
REMARK    4  A    between atoms: C_16  and  C_17
REMARK                            x       y       z     vdW  Elec       q    Type
REMARK                         _______ _______ _______ _____ _____    ______ ____
ROOT
ATOM      1  C   UNL     1       6.433   5.131  15.215  0.00  0.00    +0.000 C 
ATOM      2  N   UNL     1       5.383   5.284  16.194  0.00  0.00    +0.000 N 
ATOM      3  C   UNL     1       4.817   6.453  16.597  0.00  0.00    +0.000 A 
ATOM      4  C   UNL     1       3.843   6.112  17.513  0.00  0.00    +0.000 A 
ATOM      5  C   UNL     1       3.894   4.676  17.586  0.00  0.00    +0.000 A 
ATOM      6  N   UNL     1       4.868   4.197  16.791  0.00  0.00    +0.000 NA
ENDROOT
BRANCH   4   7
ATOM      7  C   UNL     1       3.025   7.095  18.208  0.00  0.00    +0.000 A 
ATOM      8  C   UNL     1       2.589   8.256  17.561  0.00  0.00    +0.000 A 
ATOM      9  C   UNL     1       1.770   9.178  18.224  0.00  0.00    +0.000 A 
ATOM     10  C   UNL     1       1.362   8.949  19.544  0.00  0.00    +0.000 A 
ATOM     11  C   UNL     1       1.791   7.783  20.187  0.00  0.00    +0.000 A 
ATOM     12  C   UNL     1       2.637   6.881  19.535  0.00  0.00    +0.000 A 
BRANCH  10  13
ATOM     13  C   UNL     1       0.517   9.914  20.234  0.00  0.00    +0.000 A 
ATOM     14  C   UNL     1       0.358  10.160  21.626  0.00  0.00    +0.000 A 
ATOM     15  C   UNL     1      -0.583  11.152  21.772  0.00  0.00    +0.000 A 
ATOM     16  N   UNL     1      -1.009  11.520  20.523  0.00  0.00    +0.000 N 
ATOM     17  C   UNL     1      -0.348  10.771  19.584  0.00  0.00    +0.000 A 
ATOM     18  H   UNL     1      -1.704  12.224  20.325  0.00  0.00    +0.000 HD
ENDBRANCH  10  13
ENDBRANCH   4   7
BRANCH   5  19
ATOM     19  C   UNL     1       3.066   3.768  18.388  0.00  0.00    +0.000 A 
ATOM     20  C   UNL     1       1.779   3.417  17.976  0.00  0.00    +0.000 A 
ATOM     21  C   UNL     1       0.988   2.669  18.832  0.00  0.00    +0.000 A 
ATOM     22  N   UNL     1       1.407   2.213  20.030  0.00  0.00    +0.000 NA
ATOM     23  C   UNL     1       2.677   2.512  20.382  0.00  0.00    +0.000 A 
ATOM     24  C   UNL     1       3.533   3.279  19.607  0.00  0.00    +0.000 A 
ENDBRANCH   5  19
TORSDOF 3
ENDMDL
MODEL 2
REMARK VINA RESULT:      -8.0      0.598      1.517
REMARK  Name = 
REMARK  4 active torsions:
REMARK  status: ('A' for Active; 'I' for Inactive)
REMARK    1  A    between atoms: C_1  and  N_2
REMARK    2  A    between atoms: C_4  and  C_5
REMARK    3  A    between atoms: C_8  and  C_9
REMARK    4  A    between atoms: C_16  and  C_17
REMARK                            x       y       z     vdW  Elec       q    Type
REMARK                         _______ _______ _______ _____ _____    ______ ____
ROOT
ATOM      1  C   UNL     1       6.181   5.468  15.701  0.00  0.00    +0.000 C 
ATOM      2  N   UNL     1       5.083   5.614  16.626  0.00  0.00    +0.000 N 
ATOM      3  C   UNL     1       4.477   6.777  16.985  0.00  0.00    +0.000 A 
ATOM      4  C   UNL     1       3.467   6.430  17.859  0.00  0.00    +0.000 A 
ATOM      5  C   UNL     1       3.542   4.997  17.956  0.00  0.00    +0.000 A 
ATOM      6  N   UNL     1       4.561   4.526  17.215  0.00  0.00    +0.000 NA
ENDROOT
BRANCH   4   7
ATOM      7  C   UNL     1       2.598   7.406  18.500  0.00  0.00    +0.000 A 
ATOM      8  C   UNL     1       2.282   7.306  19.860  0.00  0.00    +0.000 A 
ATOM      9  C   UNL     1       1.477   8.271  20.478  0.00  0.00    +0.000 A 
ATOM     10  C   UNL     1       0.984   9.361  19.751  0.00  0.00    +0.000 A 
ATOM     11  C   UNL     1       1.308   9.465  18.393  0.00  0.00    +0.000 A 
ATOM     12  C   UNL     1       2.083   8.483  17.770  0.00  0.00    +0.000 A 
BRANCH  10  13
ATOM     13  C   UNL     1       0.141  10.358  20.395  0.00  0.00    +0.000 A 
ATOM     14  C   UNL     1      -0.332  10.428  21.735  0.00  0.00    +0.000 A 
ATOM     15  C   UNL     1      -1.124  11.547  21.843  0.00  0.00    +0.000 A 
ATOM     16  N   UNL     1      -1.158  12.163  20.619  0.00  0.00    +0.000 N 
ATOM     17  C   UNL     1      -0.395  11.445  19.735  0.00  0.00    +0.000 A 
ATOM     18  H   UNL     1      -1.668  13.005  20.400  0.00  0.00    +0.000 HD
ENDBRANCH  10  13
ENDBRANCH   4   7
BRANCH   5  19
ATOM     19  C   UNL     1       2.694   4.084  18.731  0.00  0.00    +0.000 A 
ATOM     20  C   UNL     1       3.048   3.702  20.027  0.00  0.00    +0.000 A 
ATOM     21  C   UNL     1       2.289   2.735  20.666  0.00  0.00    +0.000 A 
ATOM     22  N   UNL     1       1.189   2.170  20.125  0.00  0.00    +0.000 NA
ATOM     23  C   UNL     1       0.830   2.600  18.896  0.00  0.00    +0.000 A 
ATOM     24  C   UNL     1       1.541   3.539  18.167  0.00  0.00    +0.000 A 
ENDBRANCH   5  19
TORSDOF 3
ENDMDL
MODEL 3
REMARK VINA RESULT:      -8.0      1.069      1.682
REMARK  Name = 
REMARK  4 active torsions:
REMARK  status: ('A' for Active; 'I' for Inactive)
REMARK    1  A    between atoms: C_1  and  N_2
REMARK    2  A    between atoms: C_4  and  C_5
REMARK    3  A    between atoms: C_8  and  C_9
REMARK    4  A    between atoms: C_16  and  C_17
REMARK                            x       y       z     vdW  Elec       q    Type
REMARK                         _______ _______ _______ _____ _____    ______ ____
ROOT
ATOM      1  C   UNL     1       5.608   5.894  15.646  0.00  0.00    +0.000 C 
ATOM      2  N   UNL     1       4.639   5.950  16.715  0.00  0.00    +0.000 N 
ATOM      3  C   UNL     1       4.015   7.063  17.185  0.00  0.00    +0.000 A 
ATOM      4  C   UNL     1       3.158   6.633  18.177  0.00  0.00    +0.000 A 
ATOM      5  C   UNL     1       3.336   5.206  18.223  0.00  0.00    +0.000 A 
ATOM      6  N   UNL     1       4.272   4.818  17.339  0.00  0.00    +0.000 NA
ENDROOT
BRANCH   4   7
ATOM      7  C   UNL     1       2.325   7.537  18.956  0.00  0.00    +0.000 A 
ATOM      8  C   UNL     1       2.024   7.265  20.296  0.00  0.00    +0.000 A 
ATOM      9  C   UNL     1       1.255   8.159  21.050  0.00  0.00    +0.000 A 
ATOM     10  C   UNL     1       0.781   9.348  20.482  0.00  0.00    +0.000 A 
ATOM     11  C   UNL     1       1.090   9.624  19.145  0.00  0.00    +0.000 A 
ATOM     12  C   UNL     1       1.830   8.714  18.384  0.00  0.00    +0.000 A 
BRANCH  10  13
ATOM     13  C   UNL     1      -0.026  10.272  21.266  0.00  0.00    +0.000 A 
ATOM     14  C   UNL     1      -0.567  11.539  20.915  0.00  0.00    +0.000 A 
ATOM     15  C   UNL     1      -1.228  12.033  22.015  0.00  0.00    +0.000 A 
ATOM     16  N   UNL     1      -1.109  11.119  23.028  0.00  0.00    +0.000 N 
ATOM     17  C   UNL     1      -0.378  10.048  22.582  0.00  0.00    +0.000 A 
ATOM     18  H   UNL     1      -1.490  11.219  23.957  0.00  0.00    +0.000 HD
ENDBRANCH  10  13
ENDBRANCH   4   7
BRANCH   5  19
ATOM     19  C   UNL     1       2.661   4.225  19.080  0.00  0.00    +0.000 A 
ATOM     20  C   UNL     1       1.387   3.750  18.764  0.00  0.00    +0.000 A 
ATOM     21  C   UNL     1       0.737   2.931  19.673  0.00  0.00    +0.000 A 
ATOM     22  N   UNL     1       1.287   2.522  20.835  0.00  0.00    +0.000 NA
ATOM     23  C   UNL     1       2.544   2.943  21.093  0.00  0.00    +0.000 A 
ATOM     24  C   UNL     1       3.262   3.787  20.260  0.00  0.00    +0.000 A 
ENDBRANCH   5  19
TORSDOF 3
ENDMDL
MODEL 4
REMARK VINA RESULT:      -8.0      0.285      1.020
REMARK  Name = 
REMARK  4 active torsions:
REMARK  status: ('A' for Active; 'I' for Inactive)
REMARK    1  A    between atoms: C_1  and  N_2
REMARK    2  A    between atoms: C_4  and  C_5
REMARK    3  A    between atoms: C_8  and  C_9
REMARK    4  A    between atoms: C_16  and  C_17
REMARK                            x       y       z     vdW  Elec       q    Type
REMARK                         _______ _______ _______ _____ _____    ______ ____
ROOT
ATOM      1  C   UNL     1       6.319   5.265  15.435  0.00  0.00    +0.000 C 
ATOM      2  N   UNL     1       5.242   5.434  16.382  0.00  0.00    +0.000 N 
ATOM      3  C   UNL     1       4.691   6.611  16.780  0.00  0.00    +0.000 A 
ATOM      4  C   UNL     1       3.680   6.285  17.660  0.00  0.00    +0.000 A 
ATOM      5  C   UNL     1       3.694   4.847  17.718  0.00  0.00    +0.000 A 
ATOM      6  N   UNL     1       4.682   4.353  16.950  0.00  0.00    +0.000 NA
ENDROOT
BRANCH   4   7
ATOM      7  C   UNL     1       2.864   7.280  18.340  0.00  0.00    +0.000 A 
ATOM      8  C   UNL     1       2.387   8.407  17.660  0.00  0.00    +0.000 A 
ATOM      9  C   UNL     1       1.570   9.339  18.310  0.00  0.00    +0.000 A 
ATOM     10  C   UNL     1       1.204   9.156  19.650  0.00  0.00    +0.000 A 
ATOM     11  C   UNL     1       1.674   8.024  20.326  0.00  0.00    +0.000 A 
ATOM     12  C   UNL     1       2.517   7.112  19.685  0.00  0.00    +0.000 A 
BRANCH  10  13
ATOM     13  C   UNL     1       0.361  10.132  20.325  0.00  0.00    +0.000 A 
ATOM     14  C   UNL     1       0.213  10.408  21.713  0.00  0.00    +0.000 A 
ATOM     15  C   UNL     1      -0.730  11.399  21.845  0.00  0.00    +0.000 A 
ATOM     16  N   UNL     1      -1.169  11.739  20.593  0.00  0.00    +0.000 N 
ATOM     17  C   UNL     1      -0.513  10.972  19.665  0.00  0.00    +0.000 A 
ATOM     18  H   UNL     1      -1.869  12.435  20.384  0.00  0.00    +0.000 HD
ENDBRANCH  10  13
ENDBRANCH   4   7
BRANCH   5  19
ATOM     19  C   UNL     1       2.820   3.952  18.483  0.00  0.00    +0.000 A 
ATOM     20  C   UNL     1       3.245   3.387  19.688  0.00  0.00    +0.000 A 
ATOM     21  C   UNL     1       2.438   2.444  20.302  0.00  0.00    +0.000 A 
ATOM     22  N   UNL     1       1.232   2.069  19.827  0.00  0.00    +0.000 NA
ATOM     23  C   UNL     1       0.813   2.673  18.693  0.00  0.00    +0.000 A 
ATOM     24  C   UNL     1       1.561   3.605  17.992  0.00  0.00    +0.000 A 
ENDBRANCH   5  19
TORSDOF 3
ENDMDL
MODEL 5
REMARK VINA RESULT:      -8.0      0.318      1.053
REMARK  Name = 
REMARK  4 active torsions:
REMARK  status: ('A' for Active; 'I' for Inactive)
REMARK    1  A    between atoms: C_1  and  N_2
REMARK    2  A    between atoms: C_4  and  C_5
REMARK    3  A    between atoms: C_8  and  C_9
REMARK    4  A    between atoms: C_16  and  C_17
REMARK                            x       y       z     vdW  Elec       q    Type
REMARK                         _______ _______ _______ _____ _____    ______ ____
ROOT
ATOM      1  C   UNL     1       6.409   5.128  15.136  0.00  0.00    +0.000 C 
ATOM      2  N   UNL     1       5.372   5.281  16.130  0.00  0.00    +0.000 N 
ATOM      3  C   UNL     1       4.775   6.444  16.504  0.00  0.00    +0.000 A 
ATOM      4  C   UNL     1       3.830   6.103  17.449  0.00  0.00    +0.000 A 
ATOM      5  C   UNL     1       3.930   4.674  17.570  0.00  0.00    +0.000 A 
ATOM      6  N   UNL     1       4.904   4.199  16.773  0.00  0.00    +0.000 NA
ENDROOT
BRANCH   4   7
ATOM      7  C   UNL     1       2.993   7.083  18.126  0.00  0.00    +0.000 A 
ATOM      8  C   UNL     1       2.609   6.903  19.460  0.00  0.00    +0.000 A 
ATOM      9  C   UNL     1       1.836   7.868  20.116  0.00  0.00    +0.000 A 
ATOM     10  C   UNL     1       1.443   9.038  19.455  0.00  0.00    +0.000 A 
ATOM     11  C   UNL     1       1.835   9.221  18.124  0.00  0.00    +0.000 A 
ATOM     12  C   UNL     1       2.577   8.241  17.460  0.00  0.00    +0.000 A 
BRANCH  10  13
ATOM     13  C   UNL     1       0.632  10.036  20.138  0.00  0.00    +0.000 A 
ATOM     14  C   UNL     1      -0.141   9.929  21.327  0.00  0.00    +0.000 A 
ATOM     15  C   UNL     1      -0.750  11.143  21.543  0.00  0.00    +0.000 A 
ATOM     16  N   UNL     1      -0.385  11.988  20.529  0.00  0.00    +0.000 N 
ATOM     17  C   UNL     1       0.453  11.323  19.670  0.00  0.00    +0.000 A 
ATOM     18  H   UNL     1      -0.687  12.945  20.424  0.00  0.00    +0.000 HD
ENDBRANCH  10  13
ENDBRANCH   4   7
BRANCH   5  19
ATOM     19  C   UNL     1       3.147   3.768  18.418  0.00  0.00    +0.000 A 
ATOM     20  C   UNL     1       1.870   3.349  18.037  0.00  0.00    +0.000 A 
ATOM     21  C   UNL     1       1.118   2.606  18.932  0.00  0.00    +0.000 A 
ATOM     22  N   UNL     1       1.568   2.218  20.143  0.00  0.00    +0.000 NA
ATOM     23  C   UNL     1       2.828   2.582  20.467  0.00  0.00    +0.000 A 
ATOM     24  C   UNL     1       3.644   3.349  19.652  0.00  0.00    +0.000 A 
ENDBRANCH   5  19
TORSDOF 3
ENDMDL
MODEL 6
REMARK VINA RESULT:      -7.9      1.813      4.066
REMARK  Name = 
REMARK  4 active torsions:
REMARK  status: ('A' for Active; 'I' for Inactive)
REMARK    1  A    between atoms: C_1  and  N_2
REMARK    2  A    between atoms: C_4  and  C_5
REMARK    3  A    between atoms: C_8  and  C_9
REMARK    4  A    between atoms: C_16  and  C_17
REMARK                            x       y       z     vdW  Elec       q    Type
REMARK                         _______ _______ _______ _____ _____    ______ ____
ROOT
ATOM      1  C   UNL     1       2.654   2.486  21.382  0.00  0.00    +0.000 C 
ATOM      2  N   UNL     1       2.884   3.676  20.598  0.00  0.00    +0.000 N 
ATOM      3  C   UNL     1       2.170   4.832  20.654  0.00  0.00    +0.000 A 
ATOM      4  C   UNL     1       2.767   5.696  19.760  0.00  0.00    +0.000 A 
ATOM      5  C   UNL     1       3.868   4.952  19.209  0.00  0.00    +0.000 A 
ATOM      6  N   UNL     1       3.898   3.706  19.717  0.00  0.00    +0.000 NA
ENDROOT
BRANCH   4   7
ATOM      7  C   UNL     1       2.273   7.040  19.500  0.00  0.00    +0.000 A 
ATOM      8  C   UNL     1       2.337   7.596  18.217  0.00  0.00    +0.000 A 
ATOM      9  C   UNL     1       1.824   8.874  17.967  0.00  0.00    +0.000 A 
ATOM     10  C   UNL     1       1.225   9.616  18.993  0.00  0.00    +0.000 A 
ATOM     11  C   UNL     1       1.153   9.056  20.273  0.00  0.00    +0.000 A 
ATOM     12  C   UNL     1       1.696   7.794  20.528  0.00  0.00    +0.000 A 
BRANCH  10  13
ATOM     13  C   UNL     1       0.699  10.949  18.731  0.00  0.00    +0.000 A 
ATOM     14  C   UNL     1      -0.646  11.392  18.597  0.00  0.00    +0.000 A 
ATOM     15  C   UNL     1      -0.619  12.738  18.321  0.00  0.00    +0.000 A 
ATOM     16  N   UNL     1       0.691  13.137  18.276  0.00  0.00    +0.000 N 
ATOM     17  C   UNL     1       1.498  12.055  18.521  0.00  0.00    +0.000 A 
ATOM     18  H   UNL     1       1.014  14.073  18.085  0.00  0.00    +0.000 HD
ENDBRANCH  10  13
ENDBRANCH   4   7
BRANCH   5  19
ATOM     19  C   UNL     1       4.864   5.382  18.221  0.00  0.00    +0.000 A 
ATOM     20  C   UNL     1       6.123   5.835  18.620  0.00  0.00    +0.000 A 
ATOM     21  C   UNL     1       6.976   6.358  17.662  0.00  0.00    +0.000 A 
ATOM     22  N   UNL     1       6.680   6.411  16.347  0.00  0.00    +0.000 NA
ATOM     23  C   UNL     1       5.481   5.912  15.975  0.00  0.00    +0.000 A 
ATOM     24  C   UNL     1       4.549   5.397  16.862  0.00  0.00    +0.000 A 
ENDBRANCH   5  19
TORSDOF 3
ENDMDL
MODEL 7
REMARK VINA RESULT:      -7.9      0.917      1.518
REMARK  Name = 
REMARK  4 active torsions:
REMARK  status: ('A' for Active; 'I' for Inactive)
REMARK    1  A    between atoms: C_1  and  N_2
REMARK    2  A    between atoms: C_4  and  C_5
REMARK    3  A    between atoms: C_8  and  C_9
REMARK    4  A    between atoms: C_16  and  C_17
REMARK                            x       y       z     vdW  Elec       q    Type
REMARK                         _______ _______ _______ _____ _____    ______ ____
ROOT
ATOM      1  C   UNL     1       6.583   5.351  16.415  0.00  0.00    +0.000 C 
ATOM      2  N   UNL     1       5.370   5.584  17.161  0.00  0.00    +0.000 N 
ATOM      3  C   UNL     1       4.745   6.779  17.338  0.00  0.00    +0.000 A 
ATOM      4  C   UNL     1       3.615   6.515  18.083  0.00  0.00    +0.000 A 
ATOM      5  C   UNL     1       3.642   5.094  18.301  0.00  0.00    +0.000 A 
ATOM      6  N   UNL     1       4.745   4.553  17.753  0.00  0.00    +0.000 NA
ENDROOT
BRANCH   4   7
ATOM      7  C   UNL     1       2.687   7.550  18.515  0.00  0.00    +0.000 A 
ATOM      8  C   UNL     1       2.259   8.548  17.632  0.00  0.00    +0.000 A 
ATOM      9  C   UNL     1       1.336   9.517  18.045  0.00  0.00    +0.000 A 
ATOM     10  C   UNL     1       0.814   9.499  19.344  0.00  0.00    +0.000 A 
ATOM     11  C   UNL     1       1.236   8.495  20.223  0.00  0.00    +0.000 A 
ATOM     12  C   UNL     1       2.183   7.549  19.820  0.00  0.00    +0.000 A 
BRANCH  10  13
ATOM     13  C   UNL     1      -0.139  10.513  19.772  0.00  0.00    +0.000 A 
ATOM     14  C   UNL     1      -1.143  11.195  19.031  0.00  0.00    +0.000 A 
ATOM     15  C   UNL     1      -1.761  12.084  19.880  0.00  0.00    +0.000 A 
ATOM     16  N   UNL     1      -1.170  11.975  21.111  0.00  0.00    +0.000 N 
ATOM     17  C   UNL     1      -0.183  11.025  21.053  0.00  0.00    +0.000 A 
ATOM     18  H   UNL     1      -1.415  12.513  21.929  0.00  0.00    +0.000 HD
ENDBRANCH  10  13
ENDBRANCH   4   7
BRANCH   5  19
ATOM     19  C   UNL     1       2.673   4.257  19.017  0.00  0.00    +0.000 A 
ATOM     20  C   UNL     1       2.734   4.114  20.405  0.00  0.00    +0.000 A 
ATOM     21  C   UNL     1       1.885   3.208  21.018  0.00  0.00    +0.000 A 
ATOM     22  N   UNL     1       0.960   2.484  20.355  0.00  0.00    +0.000 NA
ATOM     23  C   UNL     1       0.876   2.683  19.021  0.00  0.00    +0.000 A 
ATOM     24  C   UNL     1       1.701   3.544  18.316  0.00  0.00    +0.000 A 
ENDBRANCH   5  19
TORSDOF 3
ENDMDL
MODEL 8
REMARK VINA RESULT:      -7.9      1.766      3.928
REMARK  Name = 
REMARK  4 active torsions:
REMARK  status: ('A' for Active; 'I' for Inactive)
REMARK    1  A    between atoms: C_1  and  N_2
REMARK    2  A    between atoms: C_4  and  C_5
REMARK    3  A    between atoms: C_8  and  C_9
REMARK    4  A    between atoms: C_16  and  C_17
REMARK                            x       y       z     vdW  Elec       q    Type
REMARK                         _______ _______ _______ _____ _____    ______ ____
ROOT
ATOM      1  C   UNL     1       2.528   2.558  21.249  0.00  0.00    +0.000 C 
ATOM      2  N   UNL     1       2.794   3.761  20.497  0.00  0.00    +0.000 N 
ATOM      3  C   UNL     1       2.084   4.920  20.546  0.00  0.00    +0.000 A 
ATOM      4  C   UNL     1       2.719   5.796  19.691  0.00  0.00    +0.000 A 
ATOM      5  C   UNL     1       3.837   5.055  19.170  0.00  0.00    +0.000 A 
ATOM      6  N   UNL     1       3.841   3.801  19.657  0.00  0.00    +0.000 NA
ENDROOT
BRANCH   4   7
ATOM      7  C   UNL     1       2.242   7.147  19.437  0.00  0.00    +0.000 A 
ATOM      8  C   UNL     1       2.317   7.709  18.157  0.00  0.00    +0.000 A 
ATOM      9  C   UNL     1       1.820   8.995  17.912  0.00  0.00    +0.000 A 
ATOM     10  C   UNL     1       1.226   9.738  18.939  0.00  0.00    +0.000 A 
ATOM     11  C   UNL     1       1.143   9.172  20.216  0.00  0.00    +0.000 A 
ATOM     12  C   UNL     1       1.671   7.902  20.467  0.00  0.00    +0.000 A 
BRANCH  10  13
ATOM     13  C   UNL     1       0.718  11.078  18.683  0.00  0.00    +0.000 A 
ATOM     14  C   UNL     1       1.382  12.335  18.740  0.00  0.00    +0.000 A 
ATOM     15  C   UNL     1       0.460  13.311  18.444  0.00  0.00    +0.000 A 
ATOM     16  N   UNL     1      -0.745  12.701  18.212  0.00  0.00    +0.000 N 
ATOM     17  C   UNL     1      -0.597  11.346  18.357  0.00  0.00    +0.000 A 
ATOM     18  H   UNL     1      -1.606  13.172  17.978  0.00  0.00    +0.000 HD
ENDBRANCH  10  13
ENDBRANCH   4   7
BRANCH   5  19
ATOM     19  C   UNL     1       4.872   5.498  18.229  0.00  0.00    +0.000 A 
ATOM     20  C   UNL     1       4.616   5.562  16.858  0.00  0.00    +0.000 A 
ATOM     21  C   UNL     1       5.663   5.853  15.999  0.00  0.00    +0.000 A 
ATOM     22  N   UNL     1       6.916   6.130  16.415  0.00  0.00    +0.000 NA
ATOM     23  C   UNL     1       7.127   6.123  17.749  0.00  0.00    +0.000 A 
ATOM     24  C   UNL     1       6.152   5.814  18.684  0.00  0.00    +0.000 A 
ENDBRANCH   5  19
TORSDOF 3
ENDMDL
MODEL 9
REMARK VINA RESULT:      -7.8      1.048      1.809
REMARK  Name = 
REMARK  4 active torsions:
REMARK  status: ('A' for Active; 'I' for Inactive)
REMARK    1  A    between atoms: C_1  and  N_2
REMARK    2  A    between atoms: C_4  and  C_5
REMARK    3  A    between atoms: C_8  and  C_9
REMARK    4  A    between atoms: C_16  and  C_17
REMARK                            x       y       z     vdW  Elec       q    Type
REMARK                         _______ _______ _______ _____ _____    ______ ____
ROOT
ATOM      1  C   UNL     1       7.094   4.832  16.985  0.00  0.00    +0.000 C 
ATOM      2  N   UNL     1       5.792   5.106  17.545  0.00  0.00    +0.000 N 
ATOM      3  C   UNL     1       5.190   6.322  17.636  0.00  0.00    +0.000 A 
ATOM      4  C   UNL     1       3.954   6.097  18.205  0.00  0.00    +0.000 A 
ATOM      5  C   UNL     1       3.900   4.675  18.417  0.00  0.00    +0.000 A 
ATOM      6  N   UNL     1       5.053   4.096  18.033  0.00  0.00    +0.000 NA
ENDROOT
BRANCH   4   7
ATOM      7  C   UNL     1       3.009   7.163  18.503  0.00  0.00    +0.000 A 
ATOM      8  C   UNL     1       2.369   7.232  19.746  0.00  0.00    +0.000 A 
ATOM      9  C   UNL     1       1.490   8.282  20.039  0.00  0.00    +0.000 A 
ATOM     10  C   UNL     1       1.245   9.290  19.098  0.00  0.00    +0.000 A 
ATOM     11  C   UNL     1       1.892   9.225  17.859  0.00  0.00    +0.000 A 
ATOM     12  C   UNL     1       2.742   8.158  17.556  0.00  0.00    +0.000 A 
BRANCH  10  13
ATOM     13  C   UNL     1       0.325  10.377  19.403  0.00  0.00    +0.000 A 
ATOM     14  C   UNL     1      -1.042  10.545  19.045  0.00  0.00    +0.000 A 
ATOM     15  C   UNL     1      -1.460  11.756  19.546  0.00  0.00    +0.000 A 
ATOM     16  N   UNL     1      -0.402  12.337  20.193  0.00  0.00    +0.000 N 
ATOM     17  C   UNL     1       0.686  11.507  20.108  0.00  0.00    +0.000 A 
ATOM     18  H   UNL     1      -0.416  13.235  20.652  0.00  0.00    +0.000 HD
ENDBRANCH  10  13
ENDBRANCH   4   7
BRANCH   5  19
ATOM     19  C   UNL     1       2.808   3.872  18.978  0.00  0.00    +0.000 A 
ATOM     20  C   UNL     1       2.791   3.527  20.331  0.00  0.00    +0.000 A 
ATOM     21  C   UNL     1       1.814   2.656  20.783  0.00  0.00    +0.000 A 
ATOM     22  N   UNL     1       0.840   2.153  19.998  0.00  0.00    +0.000 NA
ATOM     23  C   UNL     1       0.838   2.548  18.705  0.00  0.00    +0.000 A 
ATOM     24  C   UNL     1       1.790   3.391  18.155  0.00  0.00    +0.000 A 
ENDBRANCH   5  19
TORSDOF 3
ENDMDL
