MODEL 1
REMARK VINA RESULT:      -8.1      0.000      0.000
REMARK  Name = 
REMARK  8 active torsions:
REMARK  status: ('A' for Active; 'I' for Inactive)
REMARK    1  A    between atoms: C_1  and  C_2
REMARK    2  A    between atoms: C_4  and  C_5
REMARK    3  A    between atoms: C_6  and  C_7
REMARK    4  A    between atoms: C_6  and  C_8
REMARK    5  A    between atoms: N_10  and  C_11
REMARK    6  A    between atoms: C_11  and  C_12
REMARK    7  A    between atoms: C_12  and  C_13
REMARK    8  A    between atoms: C_21  and  C_22
REMARK                            x       y       z     vdW  Elec       q    Type
REMARK                         _______ _______ _______ _____ _____    ______ ____
ROOT
ATOM      1  C   UNL     1       4.777   6.547  17.631  0.00  0.00    +0.000 C 
ATOM      2  C   UNL     1       6.045   6.356  18.063  0.00  0.00    +0.000 C 
ATOM      3  C   UNL     1       6.440   5.366  19.116  0.00  0.00    +0.000 C 
ENDROOT
BRANCH   1   7
ATOM      4  C   UNL     1       5.010   3.852  15.830  0.00  0.00    +0.000 C 
ATOM      5  C   UNL     1       4.215   3.511  17.045  0.00  0.00    +0.000 C 
ATOM      6  C   UNL     1       3.552   4.322  17.896  0.00  0.00    +0.000 C 
ATOM      7  C   UNL     1       3.523   5.820  18.080  0.00  0.00    +0.000 C 
ATOM      8  C   UNL     1       3.268   6.154  19.565  0.00  0.00    +0.000 C 
ATOM      9  C   UNL     1       1.961   5.524  20.049  0.00  0.00    +0.000 C 
ATOM     10  C   UNL     1       2.007   3.990  19.981  0.00  0.00    +0.000 C 
ATOM     11  C   UNL     1       0.602   3.431  20.237  0.00  0.00    +0.000 C 
ATOM     12  C   UNL     1       2.506   3.501  18.616  0.00  0.00    +0.000 C 
ATOM     13  C   UNL     1       3.141   2.108  18.629  0.00  0.00    +0.000 C 
ATOM     14  C   UNL     1       3.937   2.057  17.329  0.00  0.00    +0.000 C 
ENDBRANCH   1   7
BRANCH   2  15
ATOM     15  C   UNL     1       7.113   7.236  17.448  0.00  0.00    +0.000 C 
ATOM     16  O   UNL     1       7.737   6.900  16.448  0.00  0.00    +0.000 OA
ATOM     17  N   UNL     1       7.339   8.446  18.075  0.00  0.00    +0.000 N 
ATOM     18  H   UNL     1       6.860   8.682  18.930  0.00  0.00    +0.000 HD
BRANCH  17  19
ATOM     19  C   UNL     1       8.341   9.375  17.562  0.00  0.00    +0.000 C 
BRANCH  19  20
ATOM     20  C   UNL     1       9.110  10.090  18.674  0.00  0.00    +0.000 C 
BRANCH  20  21
ATOM     21  C   UNL     1       9.686  11.418  18.247  0.00  0.00    +0.000 A 
ATOM     22  C   UNL     1      11.019  11.537  17.844  0.00  0.00    +0.000 A 
ATOM     23  C   UNL     1      11.495  12.777  17.431  0.00  0.00    +0.000 A 
ATOM     24  C   UNL     1      10.635  13.866  17.416  0.00  0.00    +0.000 A 
ATOM     25  C   UNL     1       9.323  13.669  17.822  0.00  0.00    +0.000 A 
ATOM     26  N   UNL     1       8.838  12.477  18.234  0.00  0.00    +0.000 NA
ENDBRANCH  20  21
ENDBRANCH  19  20
ENDBRANCH  17  19
ENDBRANCH   2  15
TORSDOF 5
ENDMDL
MODEL 2
REMARK VINA RESULT:      -7.8      1.057      1.444
REMARK  Name = 
REMARK  8 active torsions:
REMARK  status: ('A' for Active; 'I' for Inactive)
REMARK    1  A    between atoms: C_1  and  C_2
REMARK    2  A    between atoms: C_4  and  C_5
REMARK    3  A    between atoms: C_6  and  C_7
REMARK    4  A    between atoms: C_6  and  C_8
REMARK    5  A    between atoms: N_10  and  C_11
REMARK    6  A    between atoms: C_11  and  C_12
REMARK    7  A    between atoms: C_12  and  C_13
REMARK    8  A    between atoms: C_21  and  C_22
REMARK                            x       y       z     vdW  Elec       q    Type
REMARK                         _______ _______ _______ _____ _____    ______ ____
ROOT
ATOM      1  C   UNL     1       5.086   6.119  18.230  0.00  0.00    +0.000 C 
ATOM      2  C   UNL     1       5.504   6.796  17.135  0.00  0.00    +0.000 C 
ATOM      3  C   UNL     1       4.658   7.053  15.926  0.00  0.00    +0.000 C 
ENDROOT
BRANCH   1   7
ATOM      4  C   UNL     1       5.269   3.508  16.303  0.00  0.00    +0.000 C 
ATOM      5  C   UNL     1       4.298   3.194  17.391  0.00  0.00    +0.000 C 
ATOM      6  C   UNL     1       3.619   4.028  18.205  0.00  0.00    +0.000 C 
ATOM      7  C   UNL     1       3.718   5.510  18.479  0.00  0.00    +0.000 C 
ATOM      8  C   UNL     1       3.314   5.795  19.941  0.00  0.00    +0.000 C 
ATOM      9  C   UNL     1       1.900   5.286  20.225  0.00  0.00    +0.000 C 
ATOM     10  C   UNL     1       1.799   3.762  20.066  0.00  0.00    +0.000 C 
ATOM     11  C   UNL     1       0.323   3.345  20.117  0.00  0.00    +0.000 C 
ATOM     12  C   UNL     1       2.413   3.290  18.742  0.00  0.00    +0.000 C 
ATOM     13  C   UNL     1       2.897   1.838  18.744  0.00  0.00    +0.000 C 
ATOM     14  C   UNL     1       3.841   1.766  17.547  0.00  0.00    +0.000 C 
ENDBRANCH   1   7
BRANCH   2  15
ATOM     15  C   UNL     1       6.936   7.288  17.145  0.00  0.00    +0.000 C 
ATOM     16  O   UNL     1       7.818   6.735  16.499  0.00  0.00    +0.000 OA
ATOM     17  N   UNL     1       7.190   8.404  17.919  0.00  0.00    +0.000 N 
ATOM     18  H   UNL     1       6.467   8.812  18.491  0.00  0.00    +0.000 HD
BRANCH  17  19
ATOM     19  C   UNL     1       8.534   8.967  17.995  0.00  0.00    +0.000 C 
BRANCH  19  20
ATOM     20  C   UNL     1       8.541  10.496  17.945  0.00  0.00    +0.000 C 
BRANCH  20  21
ATOM     21  C   UNL     1       9.752  11.113  18.601  0.00  0.00    +0.000 A 
ATOM     22  C   UNL     1      10.836  11.566  17.845  0.00  0.00    +0.000 A 
ATOM     23  C   UNL     1      11.918  12.154  18.494  0.00  0.00    +0.000 A 
ATOM     24  C   UNL     1      11.892  12.289  19.875  0.00  0.00    +0.000 A 
ATOM     25  C   UNL     1      10.777  11.822  20.556  0.00  0.00    +0.000 A 
ATOM     26  N   UNL     1       9.718  11.241  19.951  0.00  0.00    +0.000 NA
ENDBRANCH  20  21
ENDBRANCH  19  20
ENDBRANCH  17  19
ENDBRANCH   2  15
TORSDOF 5
ENDMDL
MODEL 3
REMARK VINA RESULT:      -7.8      5.286      8.242
REMARK  Name = 
REMARK  8 active torsions:
REMARK  status: ('A' for Active; 'I' for Inactive)
REMARK    1  A    between atoms: C_1  and  C_2
REMARK    2  A    between atoms: C_4  and  C_5
REMARK    3  A    between atoms: C_6  and  C_7
REMARK    4  A    between atoms: C_6  and  C_8
REMARK    5  A    between atoms: N_10  and  C_11
REMARK    6  A    between atoms: C_11  and  C_12
REMARK    7  A    between atoms: C_12  and  C_13
REMARK    8  A    between atoms: C_21  and  C_22
REMARK                            x       y       z     vdW  Elec       q    Type
REMARK                         _______ _______ _______ _____ _____    ______ ____
ROOT
ATOM      1  C   UNL     1       2.489   7.049  19.711  0.00  0.00    +0.000 C 
ATOM      2  C   UNL     1       1.888   8.152  19.208  0.00  0.00    +0.000 C 
ATOM      3  C   UNL     1       2.088   8.664  17.814  0.00  0.00    +0.000 C 
ENDROOT
BRANCH   1   7
ATOM      4  C   UNL     1       1.078   4.199  20.383  0.00  0.00    +0.000 C 
ATOM      5  C   UNL     1       1.845   4.030  19.115  0.00  0.00    +0.000 C 
ATOM      6  C   UNL     1       2.857   4.770  18.616  0.00  0.00    +0.000 C 
ATOM      7  C   UNL     1       3.445   6.107  19.002  0.00  0.00    +0.000 C 
ATOM      8  C   UNL     1       3.989   6.816  17.744  0.00  0.00    +0.000 C 
ATOM      9  C   UNL     1       5.033   5.950  17.038  0.00  0.00    +0.000 C 
ATOM     10  C   UNL     1       4.431   4.630  16.531  0.00  0.00    +0.000 C 
ATOM     11  C   UNL     1       5.563   3.707  16.061  0.00  0.00    +0.000 C 
ATOM     12  C   UNL     1       3.621   3.922  17.624  0.00  0.00    +0.000 C 
ATOM     13  C   UNL     1       2.536   2.976  17.104  0.00  0.00    +0.000 C 
ATOM     14  C   UNL     1       1.616   2.779  18.305  0.00  0.00    +0.000 C 
ENDBRANCH   1   7
BRANCH   2  15
ATOM     15  C   UNL     1       0.983   8.922  20.147  0.00  0.00    +0.000 C 
ATOM     16  O   UNL     1       0.978   8.720  21.356  0.00  0.00    +0.000 OA
ATOM     17  N   UNL     1       0.167   9.872  19.563  0.00  0.00    +0.000 N 
ATOM     18  H   UNL     1       0.140   9.983  18.561  0.00  0.00    +0.000 HD
BRANCH  17  19
ATOM     19  C   UNL     1      -0.739  10.676  20.376  0.00  0.00    +0.000 C 
BRANCH  19  20
ATOM     20  C   UNL     1      -1.269  11.904  19.634  0.00  0.00    +0.000 C 
BRANCH  20  21
ATOM     21  C   UNL     1      -2.272  11.568  18.557  0.00  0.00    +0.000 A 
ATOM     22  C   UNL     1      -3.631  11.849  18.714  0.00  0.00    +0.000 A 
ATOM     23  C   UNL     1      -4.511  11.547  17.680  0.00  0.00    +0.000 A 
ATOM     24  C   UNL     1      -4.020  10.986  16.510  0.00  0.00    +0.000 A 
ATOM     25  C   UNL     1      -2.657  10.743  16.424  0.00  0.00    +0.000 A 
ATOM     26  N   UNL     1      -1.782  11.020  17.416  0.00  0.00    +0.000 NA
ENDBRANCH  20  21
ENDBRANCH  19  20
ENDBRANCH  17  19
ENDBRANCH   2  15
TORSDOF 5
ENDMDL
MODEL 4
REMARK VINA RESULT:      -7.7      6.320      9.962
REMARK  Name = 
REMARK  8 active torsions:
REMARK  status: ('A' for Active; 'I' for Inactive)
REMARK    1  A    between atoms: C_1  and  C_2
REMARK    2  A    between atoms: C_4  and  C_5
REMARK    3  A    between atoms: C_6  and  C_7
REMARK    4  A    between atoms: C_6  and  C_8
REMARK    5  A    between atoms: N_10  and  C_11
REMARK    6  A    between atoms: C_11  and  C_12
REMARK    7  A    between atoms: C_12  and  C_13
REMARK    8  A    between atoms: C_21  and  C_22
REMARK                            x       y       z     vdW  Elec       q    Type
REMARK                         _______ _______ _______ _____ _____    ______ ____
ROOT
ATOM      1  C   UNL     1      -0.301  10.418  19.036  0.00  0.00    +0.000 C 
ATOM      2  C   UNL     1       1.006  10.487  18.695  0.00  0.00    +0.000 C 
ATOM      3  C   UNL     1       1.770  11.766  18.528  0.00  0.00    +0.000 C 
ENDROOT
BRANCH   1   7
ATOM      4  C   UNL     1      -2.332  10.154  16.512  0.00  0.00    +0.000 C 
ATOM      5  C   UNL     1      -3.083  10.805  17.624  0.00  0.00    +0.000 C 
ATOM      6  C   UNL     1      -2.618  11.444  18.718  0.00  0.00    +0.000 C 
ATOM      7  C   UNL     1      -1.246  11.567  19.336  0.00  0.00    +0.000 C 
ATOM      8  C   UNL     1      -1.378  11.707  20.867  0.00  0.00    +0.000 C 
ATOM      9  C   UNL     1      -2.245  12.912  21.232  0.00  0.00    +0.000 C 
ATOM     10  C   UNL     1      -3.683  12.759  20.714  0.00  0.00    +0.000 C 
ATOM     11  C   UNL     1      -4.428  14.089  20.889  0.00  0.00    +0.000 C 
ATOM     12  C   UNL     1      -3.710  12.355  19.234  0.00  0.00    +0.000 C 
ATOM     13  C   UNL     1      -4.979  11.619  18.796  0.00  0.00    +0.000 C 
ATOM     14  C   UNL     1      -4.577  10.946  17.487  0.00  0.00    +0.000 C 
ENDBRANCH   1   7
BRANCH   2  15
ATOM     15  C   UNL     1       1.714   9.174  18.438  0.00  0.00    +0.000 C 
ATOM     16  O   UNL     1       2.194   8.897  17.344  0.00  0.00    +0.000 OA
ATOM     17  N   UNL     1       1.797   8.307  19.510  0.00  0.00    +0.000 N 
ATOM     18  H   UNL     1       1.345   8.524  20.385  0.00  0.00    +0.000 HD
BRANCH  17  19
ATOM     19  C   UNL     1       2.464   7.017  19.375  0.00  0.00    +0.000 C 
BRANCH  19  20
ATOM     20  C   UNL     1       1.987   5.992  20.405  0.00  0.00    +0.000 C 
BRANCH  20  21
ATOM     21  C   UNL     1       2.041   4.568  19.906  0.00  0.00    +0.000 A 
ATOM     22  C   UNL     1       0.918   3.738  19.954  0.00  0.00    +0.000 A 
ATOM     23  C   UNL     1       1.010   2.443  19.454  0.00  0.00    +0.000 A 
ATOM     24  C   UNL     1       2.209   2.007  18.908  0.00  0.00    +0.000 A 
ATOM     25  C   UNL     1       3.278   2.892  18.888  0.00  0.00    +0.000 A 
ATOM     26  N   UNL     1       3.216   4.152  19.373  0.00  0.00    +0.000 NA
ENDBRANCH  20  21
ENDBRANCH  19  20
ENDBRANCH  17  19
ENDBRANCH   2  15
TORSDOF 5
ENDMDL
MODEL 5
REMARK VINA RESULT:      -7.6      3.725      6.234
REMARK  Name = 
REMARK  8 active torsions:
REMARK  status: ('A' for Active; 'I' for Inactive)
REMARK    1  A    between atoms: C_1  and  C_2
REMARK    2  A    between atoms: C_4  and  C_5
REMARK    3  A    between atoms: C_6  and  C_7
REMARK    4  A    between atoms: C_6  and  C_8
REMARK    5  A    between atoms: N_10  and  C_11
REMARK    6  A    between atoms: C_11  and  C_12
REMARK    7  A    between atoms: C_12  and  C_13
REMARK    8  A    between atoms: C_21  and  C_22
REMARK                            x       y       z     vdW  Elec       q    Type
REMARK                         _______ _______ _______ _____ _____    ______ ____
ROOT
ATOM      1  C   UNL     1       2.948   6.759  18.151  0.00  0.00    +0.000 C 
ATOM      2  C   UNL     1       2.707   5.458  17.867  0.00  0.00    +0.000 C 
ATOM      3  C   UNL     1       1.342   4.875  17.668  0.00  0.00    +0.000 C 
ENDROOT
BRANCH   1   7
ATOM      4  C   UNL     1       1.647   5.954  21.018  0.00  0.00    +0.000 C 
ATOM      5  C   UNL     1       1.482   7.426  20.851  0.00  0.00    +0.000 C 
ATOM      6  C   UNL     1       1.522   8.174  19.728  0.00  0.00    +0.000 C 
ATOM      7  C   UNL     1       1.936   7.879  18.306  0.00  0.00    +0.000 C 
ATOM      8  C   UNL     1       2.515   9.155  17.660  0.00  0.00    +0.000 C 
ATOM      9  C   UNL     1       1.498  10.297  17.701  0.00  0.00    +0.000 C 
ATOM     10  C   UNL     1       1.146  10.696  19.142  0.00  0.00    +0.000 C 
ATOM     11  C   UNL     1      -0.048  11.660  19.122  0.00  0.00    +0.000 C 
ATOM     12  C   UNL     1       0.794   9.472  19.997  0.00  0.00    +0.000 C 
ATOM     13  C   UNL     1       1.012   9.659  21.501  0.00  0.00    +0.000 C 
ATOM     14  C   UNL     1       1.045   8.235  22.045  0.00  0.00    +0.000 C 
ENDBRANCH   1   7
BRANCH   2  15
ATOM     15  C   UNL     1       3.912   4.545  17.781  0.00  0.00    +0.000 C 
ATOM     16  O   UNL     1       4.428   4.053  18.779  0.00  0.00    +0.000 OA
ATOM     17  N   UNL     1       4.393   4.290  16.512  0.00  0.00    +0.000 N 
ATOM     18  H   UNL     1       3.996   4.750  15.707  0.00  0.00    +0.000 HD
BRANCH  17  19
ATOM     19  C   UNL     1       5.546   3.418  16.313  0.00  0.00    +0.000 C 
BRANCH  19  20
ATOM     20  C   UNL     1       6.804   4.183  15.899  0.00  0.00    +0.000 C 
BRANCH  20  21
ATOM     21  C   UNL     1       7.270   5.178  16.935  0.00  0.00    +0.000 A 
ATOM     22  C   UNL     1       7.226   6.553  16.694  0.00  0.00    +0.000 A 
ATOM     23  C   UNL     1       7.639   7.431  17.691  0.00  0.00    +0.000 A 
ATOM     24  C   UNL     1       8.074   6.924  18.907  0.00  0.00    +0.000 A 
ATOM     25  C   UNL     1       8.082   5.547  19.076  0.00  0.00    +0.000 A 
ATOM     26  N   UNL     1       7.693   4.673  18.121  0.00  0.00    +0.000 NA
ENDBRANCH  20  21
ENDBRANCH  19  20
ENDBRANCH  17  19
ENDBRANCH   2  15
TORSDOF 5
ENDMDL
MODEL 6
REMARK VINA RESULT:      -7.6      5.465      8.411
REMARK  Name = 
REMARK  8 active torsions:
REMARK  status: ('A' for Active; 'I' for Inactive)
REMARK    1  A    between atoms: C_1  and  C_2
REMARK    2  A    between atoms: C_4  and  C_5
REMARK    3  A    between atoms: C_6  and  C_7
REMARK    4  A    between atoms: C_6  and  C_8
REMARK    5  A    between atoms: N_10  and  C_11
REMARK    6  A    between atoms: C_11  and  C_12
REMARK    7  A    between atoms: C_12  and  C_13
REMARK    8  A    between atoms: C_21  and  C_22
REMARK                            x       y       z     vdW  Elec       q    Type
REMARK                         _______ _______ _______ _____ _____    ______ ____
ROOT
ATOM      1  C   UNL     1       2.499   7.154  19.704  0.00  0.00    +0.000 C 
ATOM      2  C   UNL     1       1.823   8.201  19.175  0.00  0.00    +0.000 C 
ATOM      3  C   UNL     1       1.922   8.636  17.745  0.00  0.00    +0.000 C 
ENDROOT
BRANCH   1   7
ATOM      4  C   UNL     1       1.086   4.307  20.381  0.00  0.00    +0.000 C 
ATOM      5  C   UNL     1       1.850   4.136  19.112  0.00  0.00    +0.000 C 
ATOM      6  C   UNL     1       2.863   4.874  18.611  0.00  0.00    +0.000 C 
ATOM      7  C   UNL     1       3.453   6.210  18.994  0.00  0.00    +0.000 C 
ATOM      8  C   UNL     1       3.996   6.917  17.735  0.00  0.00    +0.000 C 
ATOM      9  C   UNL     1       5.038   6.049  17.028  0.00  0.00    +0.000 C 
ATOM     10  C   UNL     1       4.433   4.730  16.524  0.00  0.00    +0.000 C 
ATOM     11  C   UNL     1       5.563   3.804  16.053  0.00  0.00    +0.000 C 
ATOM     12  C   UNL     1       3.624   4.024  17.619  0.00  0.00    +0.000 C 
ATOM     13  C   UNL     1       2.537   3.079  17.102  0.00  0.00    +0.000 C 
ATOM     14  C   UNL     1       1.618   2.885  18.305  0.00  0.00    +0.000 C 
ENDBRANCH   1   7
BRANCH   2  15
ATOM     15  C   UNL     1       0.941   8.989  20.121  0.00  0.00    +0.000 C 
ATOM     16  O   UNL     1       0.823   8.688  21.303  0.00  0.00    +0.000 OA
ATOM     17  N   UNL     1       0.283  10.074  19.576  0.00  0.00    +0.000 N 
ATOM     18  H   UNL     1       0.344  10.274  18.589  0.00  0.00    +0.000 HD
BRANCH  17  19
ATOM     19  C   UNL     1      -0.587  10.908  20.399  0.00  0.00    +0.000 C 
BRANCH  19  20
ATOM     20  C   UNL     1      -1.197  12.076  19.623  0.00  0.00    +0.000 C 
BRANCH  20  21
ATOM     21  C   UNL     1      -2.489  11.725  18.926  0.00  0.00    +0.000 A 
ATOM     22  C   UNL     1      -2.513  10.857  17.832  0.00  0.00    +0.000 A 
ATOM     23  C   UNL     1      -3.732  10.542  17.242  0.00  0.00    +0.000 A 
ATOM     24  C   UNL     1      -4.900  11.085  17.760  0.00  0.00    +0.000 A 
ATOM     25  C   UNL     1      -4.797  11.932  18.853  0.00  0.00    +0.000 A 
ATOM     26  N   UNL     1      -3.625  12.260  19.439  0.00  0.00    +0.000 NA
ENDBRANCH  20  21
ENDBRANCH  19  20
ENDBRANCH  17  19
ENDBRANCH   2  15
TORSDOF 5
ENDMDL
MODEL 7
REMARK VINA RESULT:      -7.5      4.919      7.108
REMARK  Name = 
REMARK  8 active torsions:
REMARK  status: ('A' for Active; 'I' for Inactive)
REMARK    1  A    between atoms: C_1  and  C_2
REMARK    2  A    between atoms: C_4  and  C_5
REMARK    3  A    between atoms: C_6  and  C_7
REMARK    4  A    between atoms: C_6  and  C_8
REMARK    5  A    between atoms: N_10  and  C_11
REMARK    6  A    between atoms: C_11  and  C_12
REMARK    7  A    between atoms: C_12  and  C_13
REMARK    8  A    between atoms: C_21  and  C_22
REMARK                            x       y       z     vdW  Elec       q    Type
REMARK                         _______ _______ _______ _____ _____    ______ ____
ROOT
ATOM      1  C   UNL     1       2.909   7.434  18.371  0.00  0.00    +0.000 C 
ATOM      2  C   UNL     1       2.905   6.112  18.085  0.00  0.00    +0.000 C 
ATOM      3  C   UNL     1       1.669   5.306  17.827  0.00  0.00    +0.000 C 
ENDROOT
BRANCH   1   7
ATOM      4  C   UNL     1       1.675   6.471  21.219  0.00  0.00    +0.000 C 
ATOM      5  C   UNL     1       1.266   7.890  21.012  0.00  0.00    +0.000 C 
ATOM      6  C   UNL     1       1.212   8.613  19.874  0.00  0.00    +0.000 C 
ATOM      7  C   UNL     1       1.716   8.367  18.471  0.00  0.00    +0.000 C 
ATOM      8  C   UNL     1       2.088   9.711  17.811  0.00  0.00    +0.000 C 
ATOM      9  C   UNL     1       0.890  10.662  17.797  0.00  0.00    +0.000 C 
ATOM     10  C   UNL     1       0.430  11.021  19.217  0.00  0.00    +0.000 C 
ATOM     11  C   UNL     1      -0.910  11.765  19.141  0.00  0.00    +0.000 C 
ATOM     12  C   UNL     1       0.265   9.771  20.091  0.00  0.00    +0.000 C 
ATOM     13  C   UNL     1       0.400  10.021  21.596  0.00  0.00    +0.000 C 
ATOM     14  C   UNL     1       0.659   8.634  22.174  0.00  0.00    +0.000 C 
ENDBRANCH   1   7
BRANCH   2  15
ATOM     15  C   UNL     1       4.250   5.416  18.062  0.00  0.00    +0.000 C 
ATOM     16  O   UNL     1       5.019   5.456  19.016  0.00  0.00    +0.000 OA
ATOM     17  N   UNL     1       4.558   4.725  16.906  0.00  0.00    +0.000 N 
ATOM     18  H   UNL     1       3.941   4.752  16.109  0.00  0.00    +0.000 HD
BRANCH  17  19
ATOM     19  C   UNL     1       5.824   4.013  16.779  0.00  0.00    +0.000 C 
BRANCH  19  20
ATOM     20  C   UNL     1       6.922   4.863  16.138  0.00  0.00    +0.000 C 
BRANCH  20  21
ATOM     21  C   UNL     1       7.018   4.690  14.642  0.00  0.00    +0.000 A 
ATOM     22  C   UNL     1       6.211   3.774  13.962  0.00  0.00    +0.000 A 
ATOM     23  C   UNL     1       6.317   3.672  12.578  0.00  0.00    +0.000 A 
ATOM     24  C   UNL     1       7.212   4.489  11.902  0.00  0.00    +0.000 A 
ATOM     25  C   UNL     1       7.973   5.380  12.644  0.00  0.00    +0.000 A 
ATOM     26  N   UNL     1       7.895   5.493  13.988  0.00  0.00    +0.000 NA
ENDBRANCH  20  21
ENDBRANCH  19  20
ENDBRANCH  17  19
ENDBRANCH   2  15
TORSDOF 5
ENDMDL
MODEL 8
REMARK VINA RESULT:      -7.5      5.883      9.674
REMARK  Name = 
REMARK  8 active torsions:
REMARK  status: ('A' for Active; 'I' for Inactive)
REMARK    1  A    between atoms: C_1  and  C_2
REMARK    2  A    between atoms: C_4  and  C_5
REMARK    3  A    between atoms: C_6  and  C_7
REMARK    4  A    between atoms: C_6  and  C_8
REMARK    5  A    between atoms: N_10  and  C_11
REMARK    6  A    between atoms: C_11  and  C_12
REMARK    7  A    between atoms: C_12  and  C_13
REMARK    8  A    between atoms: C_21  and  C_22
REMARK                            x       y       z     vdW  Elec       q    Type
REMARK                         _______ _______ _______ _____ _____    ______ ____
ROOT
ATOM      1  C   UNL     1       0.438   9.922  19.931  0.00  0.00    +0.000 C 
ATOM      2  C   UNL     1       1.443   9.584  19.091  0.00  0.00    +0.000 C 
ATOM      3  C   UNL     1       2.018  10.496  18.051  0.00  0.00    +0.000 C 
ENDROOT
BRANCH   1   7
ATOM      4  C   UNL     1      -1.436   9.726  17.283  0.00  0.00    +0.000 C 
ATOM      5  C   UNL     1      -2.121  10.631  18.249  0.00  0.00    +0.000 C 
ATOM      6  C   UNL     1      -1.617  11.304  19.304  0.00  0.00    +0.000 C 
ATOM      7  C   UNL     1      -0.290  11.251  20.023  0.00  0.00    +0.000 C 
ATOM      8  C   UNL     1      -0.493  11.597  21.512  0.00  0.00    +0.000 C 
ATOM      9  C   UNL     1      -1.138  12.975  21.670  0.00  0.00    +0.000 C 
ATOM     10  C   UNL     1      -2.541  13.022  21.048  0.00  0.00    +0.000 C 
ATOM     11  C   UNL     1      -3.030  14.476  21.014  0.00  0.00    +0.000 C 
ATOM     12  C   UNL     1      -2.547  12.453  19.623  0.00  0.00    +0.000 C 
ATOM     13  C   UNL     1      -3.901  11.911  19.157  0.00  0.00    +0.000 C 
ATOM     14  C   UNL     1      -3.550  11.023  17.968  0.00  0.00    +0.000 C 
ENDBRANCH   1   7
BRANCH   2  15
ATOM     15  C   UNL     1       1.982   8.173  19.207  0.00  0.00    +0.000 C 
ATOM     16  O   UNL     1       1.935   7.544  20.257  0.00  0.00    +0.000 OA
ATOM     17  N   UNL     1       2.522   7.632  18.056  0.00  0.00    +0.000 N 
ATOM     18  H   UNL     1       2.607   8.184  17.216  0.00  0.00    +0.000 HD
BRANCH  17  19
ATOM     19  C   UNL     1       3.064   6.277  18.054  0.00  0.00    +0.000 C 
BRANCH  19  20
ATOM     20  C   UNL     1       1.975   5.203  18.088  0.00  0.00    +0.000 C 
BRANCH  20  21
ATOM     21  C   UNL     1       2.098   4.261  19.261  0.00  0.00    +0.000 A 
ATOM     22  C   UNL     1       1.002   3.966  20.075  0.00  0.00    +0.000 A 
ATOM     23  C   UNL     1       1.159   3.069  21.126  0.00  0.00    +0.000 A 
ATOM     24  C   UNL     1       2.396   2.477  21.337  0.00  0.00    +0.000 A 
ATOM     25  C   UNL     1       3.436   2.813  20.482  0.00  0.00    +0.000 A 
ATOM     26  N   UNL     1       3.311   3.686  19.459  0.00  0.00    +0.000 NA
ENDBRANCH  20  21
ENDBRANCH  19  20
ENDBRANCH  17  19
ENDBRANCH   2  15
TORSDOF 5
ENDMDL
MODEL 9
REMARK VINA RESULT:      -7.4      0.875      1.128
REMARK  Name = 
REMARK  8 active torsions:
REMARK  status: ('A' for Active; 'I' for Inactive)
REMARK    1  A    between atoms: C_1  and  C_2
REMARK    2  A    between atoms: C_4  and  C_5
REMARK    3  A    between atoms: C_6  and  C_7
REMARK    4  A    between atoms: C_6  and  C_8
REMARK    5  A    between atoms: N_10  and  C_11
REMARK    6  A    between atoms: C_11  and  C_12
REMARK    7  A    between atoms: C_12  and  C_13
REMARK    8  A    between atoms: C_21  and  C_22
REMARK                            x       y       z     vdW  Elec       q    Type
REMARK                         _______ _______ _______ _____ _____    ______ ____
ROOT
ATOM      1  C   UNL     1       4.906   6.515  17.618  0.00  0.00    +0.000 C 
ATOM      2  C   UNL     1       6.156   6.332  18.102  0.00  0.00    +0.000 C 
ATOM      3  C   UNL     1       6.502   5.392  19.217  0.00  0.00    +0.000 C 
ENDROOT
BRANCH   1   7
ATOM      4  C   UNL     1       5.096   3.792  15.855  0.00  0.00    +0.000 C 
ATOM      5  C   UNL     1       4.277   3.486  17.062  0.00  0.00    +0.000 C 
ATOM      6  C   UNL     1       3.622   4.324  17.893  0.00  0.00    +0.000 C 
ATOM      7  C   UNL     1       3.628   5.825  18.059  0.00  0.00    +0.000 C 
ATOM      8  C   UNL     1       3.361   6.184  19.535  0.00  0.00    +0.000 C 
ATOM      9  C   UNL     1       2.033   5.593  20.010  0.00  0.00    +0.000 C 
ATOM     10  C   UNL     1       2.042   4.058  19.961  0.00  0.00    +0.000 C 
ATOM     11  C   UNL     1       0.620   3.536  20.205  0.00  0.00    +0.000 C 
ATOM     12  C   UNL     1       2.547   3.538  18.609  0.00  0.00    +0.000 C 
ATOM     13  C   UNL     1       3.147   2.130  18.649  0.00  0.00    +0.000 C 
ATOM     14  C   UNL     1       3.960   2.043  17.361  0.00  0.00    +0.000 C 
ENDBRANCH   1   7
BRANCH   2  15
ATOM     15  C   UNL     1       7.255   7.169  17.483  0.00  0.00    +0.000 C 
ATOM     16  O   UNL     1       7.812   6.842  16.441  0.00  0.00    +0.000 OA
ATOM     17  N   UNL     1       7.590   8.328  18.155  0.00  0.00    +0.000 N 
ATOM     18  H   UNL     1       7.164   8.553  19.041  0.00  0.00    +0.000 HD
BRANCH  17  19
ATOM     19  C   UNL     1       8.631   9.213  17.642  0.00  0.00    +0.000 C 
BRANCH  19  20
ATOM     20  C   UNL     1       8.265  10.693  17.763  0.00  0.00    +0.000 C 
BRANCH  20  21
ATOM     21  C   UNL     1       9.354  11.532  18.385  0.00  0.00    +0.000 A 
ATOM     22  C   UNL     1       9.576  12.851  17.982  0.00  0.00    +0.000 A 
ATOM     23  C   UNL     1      10.573  13.593  18.606  0.00  0.00    +0.000 A 
ATOM     24  C   UNL     1      11.318  13.013  19.623  0.00  0.00    +0.000 A 
ATOM     25  C   UNL     1      11.035  11.701  19.974  0.00  0.00    +0.000 A 
ATOM     26  N   UNL     1      10.077  10.957  19.378  0.00  0.00    +0.000 NA
ENDBRANCH  20  21
ENDBRANCH  19  20
ENDBRANCH  17  19
ENDBRANCH   2  15
TORSDOF 5
ENDMDL
