MODEL 1
REMARK VINA RESULT:      -6.8      0.000      0.000
REMARK  Name = 
REMARK  6 active torsions:
REMARK  status: ('A' for Active; 'I' for Inactive)
REMARK    1  A    between atoms: C_1  and  C_2
REMARK    2  A    between atoms: C_2  and  N_3
REMARK    3  A    between atoms: N_3  and  C_4
REMARK    4  A    between atoms: N_3  and  C_14
REMARK    5  A    between atoms: C_4  and  C_5
REMARK    6  A    between atoms: C_14  and  C_15
REMARK                            x       y       z     vdW  Elec       q    Type
REMARK                         _______ _______ _______ _____ _____    ______ ____
ROOT
ATOM      1  C   UNL     1       3.770   4.145  17.340  0.00  0.00    +0.000 C 
ENDROOT
BRANCH   1   2
ATOM      2  C   UNL     1       2.951   3.804  18.573  0.00  0.00    +0.000 A 
ATOM      3  C   UNL     1       1.583   4.121  18.698  0.00  0.00    +0.000 A 
ATOM      4  C   UNL     1       0.864   3.823  19.868  0.00  0.00    +0.000 A 
ATOM      5  C   UNL     1       1.477   3.159  20.929  0.00  0.00    +0.000 A 
ATOM      6  C   UNL     1       2.791   2.779  20.764  0.00  0.00    +0.000 A 
ATOM      7  C   UNL     1       3.506   3.082  19.623  0.00  0.00    +0.000 A 
ATOM      8  O   UNL     1       4.774   2.584  19.679  0.00  0.00    +0.000 OA
ATOM      9  C   UNL     1       4.720   1.836  20.914  0.00  0.00    +0.000 C 
ATOM     10  O   UNL     1       3.520   2.073  21.670  0.00  0.00    +0.000 OA
ENDBRANCH   1   2
BRANCH   1  11
ATOM     11  N   UNL     1       4.709   5.291  17.479  0.00  0.00    +0.000 NA
BRANCH  11  13
ATOM     12  C   UNL     1       3.326   7.425  17.873  0.00  0.00    +0.000 C 
ATOM     13  C   UNL     1       4.129   6.536  16.927  0.00  0.00    +0.000 C 
ENDBRANCH  11  13
BRANCH  11  14
ATOM     14  C   UNL     1       5.995   5.007  16.770  0.00  0.00    +0.000 C 
BRANCH  14  15
ATOM     15  C   UNL     1       7.262   5.795  17.202  0.00  0.00    +0.000 C 
ATOM     16  C   UNL     1       7.406   6.034  18.699  0.00  0.00    +0.000 C 
ATOM     17  C   UNL     1       8.285   7.262  18.738  0.00  0.00    +0.000 C 
ATOM     18  C   UNL     1       7.791   8.043  17.541  0.00  0.00    +0.000 C 
ATOM     19  O   UNL     1       7.387   7.080  16.556  0.00  0.00    +0.000 OA
ENDBRANCH  14  15
ENDBRANCH  11  14
ENDBRANCH   1  11
TORSDOF 5
ENDMDL
MODEL 2
REMARK VINA RESULT:      -6.8      2.216      3.275
REMARK  Name = 
REMARK  6 active torsions:
REMARK  status: ('A' for Active; 'I' for Inactive)
REMARK    1  A    between atoms: C_1  and  C_2
REMARK    2  A    between atoms: C_2  and  N_3
REMARK    3  A    between atoms: N_3  and  C_4
REMARK    4  A    between atoms: N_3  and  C_14
REMARK    5  A    between atoms: C_4  and  C_5
REMARK    6  A    between atoms: C_14  and  C_15
REMARK                            x       y       z     vdW  Elec       q    Type
REMARK                         _______ _______ _______ _____ _____    ______ ____
ROOT
ATOM      1  C   UNL     1       4.703   5.520  16.952  0.00  0.00    +0.000 C 
ENDROOT
BRANCH   1   2
ATOM      2  C   UNL     1       3.767   5.222  18.110  0.00  0.00    +0.000 A 
ATOM      3  C   UNL     1       3.088   6.229  18.827  0.00  0.00    +0.000 A 
ATOM      4  C   UNL     1       2.257   5.921  19.918  0.00  0.00    +0.000 A 
ATOM      5  C   UNL     1       2.043   4.596  20.296  0.00  0.00    +0.000 A 
ATOM      6  C   UNL     1       2.644   3.616  19.537  0.00  0.00    +0.000 A 
ATOM      7  C   UNL     1       3.473   3.914  18.475  0.00  0.00    +0.000 A 
ATOM      8  O   UNL     1       3.930   2.784  17.864  0.00  0.00    +0.000 OA
ATOM      9  C   UNL     1       3.194   1.767  18.581  0.00  0.00    +0.000 C 
ATOM     10  O   UNL     1       2.493   2.277  19.728  0.00  0.00    +0.000 OA
ENDBRANCH   1   2
BRANCH   1  11
ATOM     11  N   UNL     1       6.158   5.421  17.249  0.00  0.00    +0.000 NA
BRANCH  11  13
ATOM     12  C   UNL     1       7.886   6.998  18.322  0.00  0.00    +0.000 C 
ATOM     13  C   UNL     1       6.796   6.758  17.281  0.00  0.00    +0.000 C 
ENDBRANCH  11  13
BRANCH  11  14
ATOM     14  C   UNL     1       6.851   4.586  16.220  0.00  0.00    +0.000 C 
BRANCH  14  15
ATOM     15  C   UNL     1       6.603   4.911  14.721  0.00  0.00    +0.000 C 
ATOM     16  C   UNL     1       6.229   3.723  13.847  0.00  0.00    +0.000 C 
ATOM     17  C   UNL     1       6.661   4.192  12.477  0.00  0.00    +0.000 C 
ATOM     18  C   UNL     1       7.915   4.976  12.791  0.00  0.00    +0.000 C 
ATOM     19  O   UNL     1       7.720   5.569  14.085  0.00  0.00    +0.000 OA
ENDBRANCH  14  15
ENDBRANCH  11  14
ENDBRANCH   1  11
TORSDOF 5
ENDMDL
MODEL 3
REMARK VINA RESULT:      -6.7      2.170      5.699
REMARK  Name = 
REMARK  6 active torsions:
REMARK  status: ('A' for Active; 'I' for Inactive)
REMARK    1  A    between atoms: C_1  and  C_2
REMARK    2  A    between atoms: C_2  and  N_3
REMARK    3  A    between atoms: N_3  and  C_4
REMARK    4  A    between atoms: N_3  and  C_14
REMARK    5  A    between atoms: C_4  and  C_5
REMARK    6  A    between atoms: C_14  and  C_15
REMARK                            x       y       z     vdW  Elec       q    Type
REMARK                         _______ _______ _______ _____ _____    ______ ____
ROOT
ATOM      1  C   UNL     1       3.256   4.854  17.892  0.00  0.00    +0.000 C 
ENDROOT
BRANCH   1   2
ATOM      2  C   UNL     1       4.765   4.991  17.999  0.00  0.00    +0.000 A 
ATOM      3  C   UNL     1       5.428   5.240  19.218  0.00  0.00    +0.000 A 
ATOM      4  C   UNL     1       6.823   5.399  19.276  0.00  0.00    +0.000 A 
ATOM      5  C   UNL     1       7.602   5.267  18.126  0.00  0.00    +0.000 A 
ATOM      6  C   UNL     1       6.952   4.941  16.956  0.00  0.00    +0.000 A 
ATOM      7  C   UNL     1       5.581   4.799  16.891  0.00  0.00    +0.000 A 
ATOM      8  O   UNL     1       5.172   4.453  15.638  0.00  0.00    +0.000 OA
ATOM      9  C   UNL     1       6.443   4.271  14.975  0.00  0.00    +0.000 C 
ATOM     10  O   UNL     1       7.562   4.716  15.761  0.00  0.00    +0.000 OA
ENDBRANCH   1   2
BRANCH   1  11
ATOM     11  N   UNL     1       2.461   6.016  18.372  0.00  0.00    +0.000 NA
BRANCH  11  13
ATOM     12  C   UNL     1       2.127   8.505  17.804  0.00  0.00    +0.000 C 
ATOM     13  C   UNL     1       3.055   7.298  17.928  0.00  0.00    +0.000 C 
ENDBRANCH  11  13
BRANCH  11  14
ATOM     14  C   UNL     1       2.380   6.019  19.865  0.00  0.00    +0.000 C 
BRANCH  14  15
ATOM     15  C   UNL     1       1.573   4.888  20.560  0.00  0.00    +0.000 C 
ATOM     16  C   UNL     1       2.380   3.971  21.468  0.00  0.00    +0.000 C 
ATOM     17  C   UNL     1       1.544   2.713  21.469  0.00  0.00    +0.000 C 
ATOM     18  C   UNL     1       1.024   2.678  20.049  0.00  0.00    +0.000 C 
ATOM     19  O   UNL     1       0.857   4.043  19.635  0.00  0.00    +0.000 OA
ENDBRANCH  14  15
ENDBRANCH  11  14
ENDBRANCH   1  11
TORSDOF 5
ENDMDL
MODEL 4
REMARK VINA RESULT:      -6.7      1.869      5.591
REMARK  Name = 
REMARK  6 active torsions:
REMARK  status: ('A' for Active; 'I' for Inactive)
REMARK    1  A    between atoms: C_1  and  C_2
REMARK    2  A    between atoms: C_2  and  N_3
REMARK    3  A    between atoms: N_3  and  C_4
REMARK    4  A    between atoms: N_3  and  C_14
REMARK    5  A    between atoms: C_4  and  C_5
REMARK    6  A    between atoms: C_14  and  C_15
REMARK                            x       y       z     vdW  Elec       q    Type
REMARK                         _______ _______ _______ _____ _____    ______ ____
ROOT
ATOM      1  C   UNL     1       4.378   7.124  17.518  0.00  0.00    +0.000 C 
ENDROOT
BRANCH   1   2
ATOM      2  C   UNL     1       5.273   6.116  16.817  0.00  0.00    +0.000 A 
ATOM      3  C   UNL     1       5.098   5.742  15.469  0.00  0.00    +0.000 A 
ATOM      4  C   UNL     1       5.921   4.779  14.861  0.00  0.00    +0.000 A 
ATOM      5  C   UNL     1       6.972   4.195  15.568  0.00  0.00    +0.000 A 
ATOM      6  C   UNL     1       7.186   4.628  16.857  0.00  0.00    +0.000 A 
ATOM      7  C   UNL     1       6.371   5.563  17.464  0.00  0.00    +0.000 A 
ATOM      8  O   UNL     1       6.793   5.850  18.728  0.00  0.00    +0.000 OA
ATOM      9  C   UNL     1       8.022   5.093  18.786  0.00  0.00    +0.000 C 
ATOM     10  O   UNL     1       8.199   4.211  17.664  0.00  0.00    +0.000 OA
ENDBRANCH   1   2
BRANCH   1  11
ATOM     11  N   UNL     1       3.111   6.586  18.084  0.00  0.00    +0.000 NA
BRANCH  11  13
ATOM     12  C   UNL     1       2.120   8.939  17.756  0.00  0.00    +0.000 C 
ATOM     13  C   UNL     1       2.244   7.671  18.598  0.00  0.00    +0.000 C 
ENDBRANCH  11  13
BRANCH  11  14
ATOM     14  C   UNL     1       3.395   5.632  19.200  0.00  0.00    +0.000 C 
BRANCH  14  15
ATOM     15  C   UNL     1       2.839   4.185  19.091  0.00  0.00    +0.000 C 
ATOM     16  C   UNL     1       1.722   3.989  18.075  0.00  0.00    +0.000 C 
ATOM     17  C   UNL     1       1.016   2.768  18.618  0.00  0.00    +0.000 C 
ATOM     18  C   UNL     1       1.122   2.978  20.111  0.00  0.00    +0.000 C 
ATOM     19  O   UNL     1       2.366   3.656  20.347  0.00  0.00    +0.000 OA
ENDBRANCH  14  15
ENDBRANCH  11  14
ENDBRANCH   1  11
TORSDOF 5
ENDMDL
MODEL 5
REMARK VINA RESULT:      -6.6      1.391      1.831
REMARK  Name = 
REMARK  6 active torsions:
REMARK  status: ('A' for Active; 'I' for Inactive)
REMARK    1  A    between atoms: C_1  and  C_2
REMARK    2  A    between atoms: C_2  and  N_3
REMARK    3  A    between atoms: N_3  and  C_4
REMARK    4  A    between atoms: N_3  and  C_14
REMARK    5  A    between atoms: C_4  and  C_5
REMARK    6  A    between atoms: C_14  and  C_15
REMARK                            x       y       z     vdW  Elec       q    Type
REMARK                         _______ _______ _______ _____ _____    ______ ____
ROOT
ATOM      1  C   UNL     1       2.431   5.931  18.028  0.00  0.00    +0.000 C 
ENDROOT
BRANCH   1   2
ATOM      2  C   UNL     1       2.493   4.861  19.104  0.00  0.00    +0.000 A 
ATOM      3  C   UNL     1       2.019   5.063  20.416  0.00  0.00    +0.000 A 
ATOM      4  C   UNL     1       2.125   4.063  21.399  0.00  0.00    +0.000 A 
ATOM      5  C   UNL     1       2.666   2.816  21.088  0.00  0.00    +0.000 A 
ATOM      6  C   UNL     1       3.050   2.601  19.783  0.00  0.00    +0.000 A 
ATOM      7  C   UNL     1       2.962   3.584  18.818  0.00  0.00    +0.000 A 
ATOM      8  O   UNL     1       3.377   3.131  17.601  0.00  0.00    +0.000 OA
ATOM      9  C   UNL     1       3.606   1.734  17.892  0.00  0.00    +0.000 C 
ATOM     10  O   UNL     1       3.538   1.428  19.296  0.00  0.00    +0.000 OA
ENDBRANCH   1   2
BRANCH   1  11
ATOM     11  N   UNL     1       3.621   6.819  17.925  0.00  0.00    +0.000 NA
BRANCH  11  13
ATOM     12  C   UNL     1       1.777   8.615  17.934  0.00  0.00    +0.000 C 
ATOM     13  C   UNL     1       3.227   8.222  17.660  0.00  0.00    +0.000 C 
ENDBRANCH  11  13
BRANCH  11  14
ATOM     14  C   UNL     1       4.526   6.362  16.825  0.00  0.00    +0.000 C 
BRANCH  14  15
ATOM     15  C   UNL     1       6.014   6.075  17.169  0.00  0.00    +0.000 C 
ATOM     16  C   UNL     1       6.280   5.624  18.598  0.00  0.00    +0.000 C 
ATOM     17  C   UNL     1       7.723   6.026  18.791  0.00  0.00    +0.000 C 
ATOM     18  C   UNL     1       7.798   7.321  18.013  0.00  0.00    +0.000 C 
ATOM     19  O   UNL     1       6.888   7.194  16.909  0.00  0.00    +0.000 OA
ENDBRANCH  14  15
ENDBRANCH  11  14
ENDBRANCH   1  11
TORSDOF 5
ENDMDL
MODEL 6
REMARK VINA RESULT:      -6.6      2.057      3.466
REMARK  Name = 
REMARK  6 active torsions:
REMARK  status: ('A' for Active; 'I' for Inactive)
REMARK    1  A    between atoms: C_1  and  C_2
REMARK    2  A    between atoms: C_2  and  N_3
REMARK    3  A    between atoms: N_3  and  C_4
REMARK    4  A    between atoms: N_3  and  C_14
REMARK    5  A    between atoms: C_4  and  C_5
REMARK    6  A    between atoms: C_14  and  C_15
REMARK                            x       y       z     vdW  Elec       q    Type
REMARK                         _______ _______ _______ _____ _____    ______ ____
ROOT
ATOM      1  C   UNL     1       6.027   4.999  19.270  0.00  0.00    +0.000 C 
ENDROOT
BRANCH   1   2
ATOM      2  C   UNL     1       4.599   5.092  18.761  0.00  0.00    +0.000 A 
ATOM      3  C   UNL     1       3.930   6.318  18.570  0.00  0.00    +0.000 A 
ATOM      4  C   UNL     1       2.595   6.367  18.132  0.00  0.00    +0.000 A 
ATOM      5  C   UNL     1       1.904   5.194  17.829  0.00  0.00    +0.000 A 
ATOM      6  C   UNL     1       2.593   4.007  17.939  0.00  0.00    +0.000 A 
ATOM      7  C   UNL     1       3.898   3.952  18.382  0.00  0.00    +0.000 A 
ATOM      8  O   UNL     1       4.374   2.675  18.385  0.00  0.00    +0.000 OA
ATOM      9  C   UNL     1       3.269   1.970  17.777  0.00  0.00    +0.000 C 
ATOM     10  O   UNL     1       2.092   2.781  17.626  0.00  0.00    +0.000 OA
ENDBRANCH   1   2
BRANCH   1  11
ATOM     11  N   UNL     1       7.078   5.522  18.356  0.00  0.00    +0.000 NA
BRANCH  11  13
ATOM     12  C   UNL     1       7.806   7.880  17.625  0.00  0.00    +0.000 C 
ATOM     13  C   UNL     1       6.702   6.840  17.796  0.00  0.00    +0.000 C 
ENDBRANCH  11  13
BRANCH  11  14
ATOM     14  C   UNL     1       7.314   4.572  17.225  0.00  0.00    +0.000 C 
BRANCH  14  15
ATOM     15  C   UNL     1       6.609   4.853  15.870  0.00  0.00    +0.000 C 
ATOM     16  C   UNL     1       5.866   3.672  15.261  0.00  0.00    +0.000 C 
ATOM     17  C   UNL     1       5.855   4.031  13.794  0.00  0.00    +0.000 C 
ATOM     18  C   UNL     1       7.203   4.692  13.618  0.00  0.00    +0.000 C 
ATOM     19  O   UNL     1       7.501   5.360  14.854  0.00  0.00    +0.000 OA
ENDBRANCH  14  15
ENDBRANCH  11  14
ENDBRANCH   1  11
TORSDOF 5
ENDMDL
MODEL 7
REMARK VINA RESULT:      -6.6      2.021      3.423
REMARK  Name = 
REMARK  6 active torsions:
REMARK  status: ('A' for Active; 'I' for Inactive)
REMARK    1  A    between atoms: C_1  and  C_2
REMARK    2  A    between atoms: C_2  and  N_3
REMARK    3  A    between atoms: N_3  and  C_4
REMARK    4  A    between atoms: N_3  and  C_14
REMARK    5  A    between atoms: C_4  and  C_5
REMARK    6  A    between atoms: C_14  and  C_15
REMARK                            x       y       z     vdW  Elec       q    Type
REMARK                         _______ _______ _______ _____ _____    ______ ____
ROOT
ATOM      1  C   UNL     1       5.528   4.985  19.352  0.00  0.00    +0.000 C 
ENDROOT
BRANCH   1   2
ATOM      2  C   UNL     1       4.360   4.035  19.149  0.00  0.00    +0.000 A 
ATOM      3  C   UNL     1       4.497   2.767  18.550  0.00  0.00    +0.000 A 
ATOM      4  C   UNL     1       3.389   1.927  18.343  0.00  0.00    +0.000 A 
ATOM      5  C   UNL     1       2.118   2.311  18.770  0.00  0.00    +0.000 A 
ATOM      6  C   UNL     1       2.009   3.516  19.429  0.00  0.00    +0.000 A 
ATOM      7  C   UNL     1       3.091   4.350  19.621  0.00  0.00    +0.000 A 
ATOM      8  O   UNL     1       2.744   5.470  20.316  0.00  0.00    +0.000 OA
ATOM      9  C   UNL     1       1.367   5.175  20.641  0.00  0.00    +0.000 C 
ATOM     10  O   UNL     1       0.860   4.013  19.964  0.00  0.00    +0.000 OA
ENDBRANCH   1   2
BRANCH   1  11
ATOM     11  N   UNL     1       6.344   5.280  18.144  0.00  0.00    +0.000 NA
BRANCH  11  13
ATOM     12  C   UNL     1       7.769   7.415  17.951  0.00  0.00    +0.000 C 
ATOM     13  C   UNL     1       7.590   5.999  18.495  0.00  0.00    +0.000 C 
ENDBRANCH  11  13
BRANCH  11  14
ATOM     14  C   UNL     1       5.568   6.115  17.175  0.00  0.00    +0.000 C 
BRANCH  14  15
ATOM     15  C   UNL     1       5.546   5.680  15.683  0.00  0.00    +0.000 C 
ATOM     16  C   UNL     1       5.069   4.258  15.423  0.00  0.00    +0.000 C 
ATOM     17  C   UNL     1       5.722   3.945  14.098  0.00  0.00    +0.000 C 
ATOM     18  C   UNL     1       7.052   4.654  14.224  0.00  0.00    +0.000 C 
ATOM     19  O   UNL     1       6.822   5.824  15.025  0.00  0.00    +0.000 OA
ENDBRANCH  14  15
ENDBRANCH  11  14
ENDBRANCH   1  11
TORSDOF 5
ENDMDL
MODEL 8
REMARK VINA RESULT:      -6.6      2.225      5.700
REMARK  Name = 
REMARK  6 active torsions:
REMARK  status: ('A' for Active; 'I' for Inactive)
REMARK    1  A    between atoms: C_1  and  C_2
REMARK    2  A    between atoms: C_2  and  N_3
REMARK    3  A    between atoms: N_3  and  C_4
REMARK    4  A    between atoms: N_3  and  C_14
REMARK    5  A    between atoms: C_4  and  C_5
REMARK    6  A    between atoms: C_14  and  C_15
REMARK                            x       y       z     vdW  Elec       q    Type
REMARK                         _______ _______ _______ _____ _____    ______ ____
ROOT
ATOM      1  C   UNL     1       4.417   7.128  17.350  0.00  0.00    +0.000 C 
ENDROOT
BRANCH   1   2
ATOM      2  C   UNL     1       5.346   6.129  16.683  0.00  0.00    +0.000 A 
ATOM      3  C   UNL     1       5.245   5.777  15.322  0.00  0.00    +0.000 A 
ATOM      4  C   UNL     1       6.098   4.821  14.744  0.00  0.00    +0.000 A 
ATOM      5  C   UNL     1       7.107   4.222  15.497  0.00  0.00    +0.000 A 
ATOM      6  C   UNL     1       7.251   4.634  16.803  0.00  0.00    +0.000 A 
ATOM      7  C   UNL     1       6.406   5.561  17.380  0.00  0.00    +0.000 A 
ATOM      8  O   UNL     1       6.758   5.826  18.670  0.00  0.00    +0.000 OA
ATOM      9  C   UNL     1       7.980   5.064  18.783  0.00  0.00    +0.000 C 
ATOM     10  O   UNL     1       8.217   4.200  17.658  0.00  0.00    +0.000 OA
ENDBRANCH   1   2
BRANCH   1  11
ATOM     11  N   UNL     1       3.039   6.644  17.638  0.00  0.00    +0.000 NA
BRANCH  11  13
ATOM     12  C   UNL     1       1.814   8.817  18.269  0.00  0.00    +0.000 C 
ATOM     13  C   UNL     1       2.385   7.464  18.684  0.00  0.00    +0.000 C 
ENDBRANCH  11  13
BRANCH  11  14
ATOM     14  C   UNL     1       3.066   5.220  18.096  0.00  0.00    +0.000 C 
BRANCH  14  15
ATOM     15  C   UNL     1       1.759   4.607  18.669  0.00  0.00    +0.000 C 
ATOM     16  C   UNL     1       1.832   4.147  20.118  0.00  0.00    +0.000 C 
ATOM     17  C   UNL     1       0.739   3.105  20.173  0.00  0.00    +0.000 C 
ATOM     18  C   UNL     1       0.844   2.464  18.808  0.00  0.00    +0.000 C 
ATOM     19  O   UNL     1       1.260   3.494  17.897  0.00  0.00    +0.000 OA
ENDBRANCH  14  15
ENDBRANCH  11  14
ENDBRANCH   1  11
TORSDOF 5
ENDMDL
MODEL 9
REMARK VINA RESULT:      -6.6      1.975      3.185
REMARK  Name = 
REMARK  6 active torsions:
REMARK  status: ('A' for Active; 'I' for Inactive)
REMARK    1  A    between atoms: C_1  and  C_2
REMARK    2  A    between atoms: C_2  and  N_3
REMARK    3  A    between atoms: N_3  and  C_4
REMARK    4  A    between atoms: N_3  and  C_14
REMARK    5  A    between atoms: C_4  and  C_5
REMARK    6  A    between atoms: C_14  and  C_15
REMARK                            x       y       z     vdW  Elec       q    Type
REMARK                         _______ _______ _______ _____ _____    ______ ____
ROOT
ATOM      1  C   UNL     1       4.560   5.813  18.070  0.00  0.00    +0.000 C 
ENDROOT
BRANCH   1   2
ATOM      2  C   UNL     1       3.406   5.240  18.874  0.00  0.00    +0.000 A 
ATOM      3  C   UNL     1       2.620   6.017  19.750  0.00  0.00    +0.000 A 
ATOM      4  C   UNL     1       1.582   5.449  20.507  0.00  0.00    +0.000 A 
ATOM      5  C   UNL     1       1.269   4.096  20.379  0.00  0.00    +0.000 A 
ATOM      6  C   UNL     1       1.987   3.364  19.459  0.00  0.00    +0.000 A 
ATOM      7  C   UNL     1       3.017   3.915  18.724  0.00  0.00    +0.000 A 
ATOM      8  O   UNL     1       3.562   3.006  17.866  0.00  0.00    +0.000 OA
ATOM      9  C   UNL     1       2.677   1.881  18.060  0.00  0.00    +0.000 C 
ATOM     10  O   UNL     1       1.772   2.053  19.165  0.00  0.00    +0.000 OA
ENDBRANCH   1   2
BRANCH   1  11
ATOM     11  N   UNL     1       5.838   5.053  18.134  0.00  0.00    +0.000 NA
BRANCH  11  13
ATOM     12  C   UNL     1       7.982   5.933  19.254  0.00  0.00    +0.000 C 
ATOM     13  C   UNL     1       6.579   5.344  19.383  0.00  0.00    +0.000 C 
ENDBRANCH  11  13
BRANCH  11  14
ATOM     14  C   UNL     1       6.713   5.394  16.969  0.00  0.00    +0.000 C 
BRANCH  14  15
ATOM     15  C   UNL     1       6.158   5.152  15.538  0.00  0.00    +0.000 C 
ATOM     16  C   UNL     1       5.850   3.703  15.192  0.00  0.00    +0.000 C 
ATOM     17  C   UNL     1       5.952   3.711  13.685  0.00  0.00    +0.000 C 
ATOM     18  C   UNL     1       7.087   4.681  13.449  0.00  0.00    +0.000 C 
ATOM     19  O   UNL     1       7.019   5.661  14.497  0.00  0.00    +0.000 OA
ENDBRANCH  14  15
ENDBRANCH  11  14
ENDBRANCH   1  11
TORSDOF 5
ENDMDL
