MODEL 1
REMARK VINA RESULT:      -6.9      0.000      0.000
REMARK  Name = 
REMARK  9 active torsions:
REMARK  status: ('A' for Active; 'I' for Inactive)
REMARK    1  A    between atoms: C_1  and  N_2
REMARK    2  A    between atoms: N_2  and  C_3
REMARK    3  A    between atoms: N_2  and  N_4
REMARK    4  A    between atoms: N_5  and  C_6
REMARK    5  A    between atoms: C_9  and  C_10
REMARK    6  A    between atoms: C_14  and  C_15
REMARK    7  A    between atoms: C_15  and  C_16
REMARK    8  A    between atoms: C_15  and  C_17
REMARK    9  A    between atoms: C_15  and  C_18
REMARK                            x       y       z     vdW  Elec       q    Type
REMARK                         _______ _______ _______ _____ _____    ______ ____
ROOT
ATOM      1  C   UNL     1       3.609   6.087  17.882  0.00  0.00    +0.000 A 
ATOM      2  C   UNL     1       4.428   7.000  17.172  0.00  0.00    +0.000 A 
ATOM      3  C   UNL     1       5.355   6.592  16.211  0.00  0.00    +0.000 A 
ATOM      4  C   UNL     1       5.518   5.237  15.958  0.00  0.00    +0.000 A 
ATOM      5  C   UNL     1       4.730   4.318  16.674  0.00  0.00    +0.000 A 
ATOM      6  C   UNL     1       3.748   4.699  17.629  0.00  0.00    +0.000 A 
ENDROOT
BRANCH   4   7
ATOM      7  C   UNL     1       6.493   4.696  14.964  0.00  0.00    +0.000 C 
ATOM      8  N   UNL     1       6.199   3.523  14.327  0.00  0.00    +0.000 N 
ATOM      9  O   UNL     1       7.545   5.273  14.716  0.00  0.00    +0.000 OA
ATOM     10  H   UNL     1       5.371   2.967  14.475  0.00  0.00    +0.000 HD
ATOM     11  H   UNL     1       6.883   3.183  13.664  0.00  0.00    +0.000 HD
ENDBRANCH   4   7
BRANCH   6  12
ATOM     12  C   UNL     1       2.956   3.580  18.354  0.00  0.00    +0.000 C 
ATOM     13  C   UNL     1       3.403   2.217  17.789  0.00  0.00    +0.000 C 
ATOM     14  C   UNL     1       3.137   3.570  19.888  0.00  0.00    +0.000 C 
ATOM     15  C   UNL     1       1.419   3.694  18.138  0.00  0.00    +0.000 C 
ENDBRANCH   6  12
BRANCH   1  17
ATOM     16  N   UNL     1       2.452   7.801  18.648  0.00  0.00    +0.000 NA
ATOM     17  N   UNL     1       2.753   6.610  18.887  0.00  0.00    +0.000 NA
BRANCH  16  19
ATOM     18  C   UNL     1       1.427   7.570  20.770  0.00  0.00    +0.000 C 
ATOM     19  N   UNL     1       1.788   8.446  19.666  0.00  0.00    +0.000 N 
ATOM     20  C   UNL     1       0.864   9.529  19.360  0.00  0.00    +0.000 C 
ENDBRANCH  16  19
ENDBRANCH   1  17
TORSDOF 4
ENDMDL
MODEL 2
REMARK VINA RESULT:      -6.9      0.088      1.021
REMARK  Name = 
REMARK  9 active torsions:
REMARK  status: ('A' for Active; 'I' for Inactive)
REMARK    1  A    between atoms: C_1  and  N_2
REMARK    2  A    between atoms: N_2  and  C_3
REMARK    3  A    between atoms: N_2  and  N_4
REMARK    4  A    between atoms: N_5  and  C_6
REMARK    5  A    between atoms: C_9  and  C_10
REMARK    6  A    between atoms: C_14  and  C_15
REMARK    7  A    between atoms: C_15  and  C_16
REMARK    8  A    between atoms: C_15  and  C_17
REMARK    9  A    between atoms: C_15  and  C_18
REMARK                            x       y       z     vdW  Elec       q    Type
REMARK                         _______ _______ _______ _____ _____    ______ ____
ROOT
ATOM      1  C   UNL     1       3.678   6.085  17.887  0.00  0.00    +0.000 A 
ATOM      2  C   UNL     1       4.528   6.995  17.211  0.00  0.00    +0.000 A 
ATOM      3  C   UNL     1       5.439   6.593  16.234  0.00  0.00    +0.000 A 
ATOM      4  C   UNL     1       5.555   5.245  15.928  0.00  0.00    +0.000 A 
ATOM      5  C   UNL     1       4.737   4.326  16.609  0.00  0.00    +0.000 A 
ATOM      6  C   UNL     1       3.768   4.704  17.579  0.00  0.00    +0.000 A 
ENDROOT
BRANCH   4   7
ATOM      7  C   UNL     1       6.511   4.709  14.912  0.00  0.00    +0.000 C 
ATOM      8  N   UNL     1       6.195   3.550  14.260  0.00  0.00    +0.000 N 
ATOM      9  O   UNL     1       7.566   5.278  14.659  0.00  0.00    +0.000 OA
ATOM     10  H   UNL     1       5.363   3.001  14.411  0.00  0.00    +0.000 HD
ATOM     11  H   UNL     1       6.867   3.213  13.583  0.00  0.00    +0.000 HD
ENDBRANCH   4   7
BRANCH   6  12
ATOM     12  C   UNL     1       2.939   3.586  18.262  0.00  0.00    +0.000 C 
ATOM     13  C   UNL     1       1.444   3.845  17.987  0.00  0.00    +0.000 C 
ATOM     14  C   UNL     1       3.294   2.158  17.791  0.00  0.00    +0.000 C 
ATOM     15  C   UNL     1       3.130   3.552  19.807  0.00  0.00    +0.000 C 
ENDBRANCH   6  12
BRANCH   1  17
ATOM     16  N   UNL     1       2.456   7.757  18.643  0.00  0.00    +0.000 NA
ATOM     17  N   UNL     1       2.841   6.597  18.913  0.00  0.00    +0.000 NA
BRANCH  16  19
ATOM     18  C   UNL     1       1.421   7.522  20.760  0.00  0.00    +0.000 C 
ATOM     19  N   UNL     1       1.803   8.404  19.668  0.00  0.00    +0.000 N 
ATOM     20  C   UNL     1       0.903   9.510  19.373  0.00  0.00    +0.000 C 
ENDBRANCH  16  19
ENDBRANCH   1  17
TORSDOF 4
ENDMDL
MODEL 3
REMARK VINA RESULT:      -6.9      0.104      1.009
REMARK  Name = 
REMARK  9 active torsions:
REMARK  status: ('A' for Active; 'I' for Inactive)
REMARK    1  A    between atoms: C_1  and  N_2
REMARK    2  A    between atoms: N_2  and  C_3
REMARK    3  A    between atoms: N_2  and  N_4
REMARK    4  A    between atoms: N_5  and  C_6
REMARK    5  A    between atoms: C_9  and  C_10
REMARK    6  A    between atoms: C_14  and  C_15
REMARK    7  A    between atoms: C_15  and  C_16
REMARK    8  A    between atoms: C_15  and  C_17
REMARK    9  A    between atoms: C_15  and  C_18
REMARK                            x       y       z     vdW  Elec       q    Type
REMARK                         _______ _______ _______ _____ _____    ______ ____
ROOT
ATOM      1  C   UNL     1       3.493   6.050  17.811  0.00  0.00    +0.000 A 
ATOM      2  C   UNL     1       4.289   6.974  17.090  0.00  0.00    +0.000 A 
ATOM      3  C   UNL     1       5.253   6.577  16.162  0.00  0.00    +0.000 A 
ATOM      4  C   UNL     1       5.478   5.223  15.955  0.00  0.00    +0.000 A 
ATOM      5  C   UNL     1       4.713   4.294  16.683  0.00  0.00    +0.000 A 
ATOM      6  C   UNL     1       3.695   4.662  17.604  0.00  0.00    +0.000 A 
ENDROOT
BRANCH   4   7
ATOM      7  C   UNL     1       6.496   4.694  14.999  0.00  0.00    +0.000 C 
ATOM      8  N   UNL     1       6.231   3.529  14.335  0.00  0.00    +0.000 N 
ATOM      9  O   UNL     1       7.558   5.273  14.805  0.00  0.00    +0.000 OA
ATOM     10  H   UNL     1       5.397   2.972  14.439  0.00  0.00    +0.000 HD
ATOM     11  H   UNL     1       6.944   3.197  13.699  0.00  0.00    +0.000 HD
ENDBRANCH   4   7
BRANCH   6  12
ATOM     12  C   UNL     1       2.934   3.534  18.347  0.00  0.00    +0.000 C 
ATOM     13  C   UNL     1       3.297   3.600  19.844  0.00  0.00    +0.000 C 
ATOM     14  C   UNL     1       1.398   3.604  18.201  0.00  0.00    +0.000 C 
ATOM     15  C   UNL     1       3.315   2.114  17.837  0.00  0.00    +0.000 C 
ENDBRANCH   6  12
BRANCH   1  17
ATOM     16  N   UNL     1       2.495   7.811  18.686  0.00  0.00    +0.000 NA
ATOM     17  N   UNL     1       2.595   6.567  18.781  0.00  0.00    +0.000 NA
BRANCH  16  19
ATOM     18  C   UNL     1       1.438   7.505  20.783  0.00  0.00    +0.000 C 
ATOM     19  N   UNL     1       1.799   8.416  19.708  0.00  0.00    +0.000 N 
ATOM     20  C   UNL     1       0.857   9.486  19.412  0.00  0.00    +0.000 C 
ENDBRANCH  16  19
ENDBRANCH   1  17
TORSDOF 4
ENDMDL
MODEL 4
REMARK VINA RESULT:      -6.7      0.817      1.157
REMARK  Name = 
REMARK  9 active torsions:
REMARK  status: ('A' for Active; 'I' for Inactive)
REMARK    1  A    between atoms: C_1  and  N_2
REMARK    2  A    between atoms: N_2  and  C_3
REMARK    3  A    between atoms: N_2  and  N_4
REMARK    4  A    between atoms: N_5  and  C_6
REMARK    5  A    between atoms: C_9  and  C_10
REMARK    6  A    between atoms: C_14  and  C_15
REMARK    7  A    between atoms: C_15  and  C_16
REMARK    8  A    between atoms: C_15  and  C_17
REMARK    9  A    between atoms: C_15  and  C_18
REMARK                            x       y       z     vdW  Elec       q    Type
REMARK                         _______ _______ _______ _____ _____    ______ ____
ROOT
ATOM      1  C   UNL     1       3.354   6.138  17.783  0.00  0.00    +0.000 A 
ATOM      2  C   UNL     1       4.166   7.031  17.041  0.00  0.00    +0.000 A 
ATOM      3  C   UNL     1       5.157   6.595  16.159  0.00  0.00    +0.000 A 
ATOM      4  C   UNL     1       5.393   5.234  16.023  0.00  0.00    +0.000 A 
ATOM      5  C   UNL     1       4.613   4.336  16.774  0.00  0.00    +0.000 A 
ATOM      6  C   UNL     1       3.567   4.743  17.648  0.00  0.00    +0.000 A 
ENDROOT
BRANCH   4   7
ATOM      7  C   UNL     1       6.439   4.666  15.122  0.00  0.00    +0.000 C 
ATOM      8  N   UNL     1       7.637   5.317  15.013  0.00  0.00    +0.000 N 
ATOM      9  O   UNL     1       6.246   3.641  14.478  0.00  0.00    +0.000 OA
ATOM     10  H   UNL     1       7.884   6.172  15.487  0.00  0.00    +0.000 HD
ATOM     11  H   UNL     1       8.321   4.906  14.391  0.00  0.00    +0.000 HD
ENDBRANCH   4   7
BRANCH   6  12
ATOM     12  C   UNL     1       2.791   3.647  18.424  0.00  0.00    +0.000 C 
ATOM     13  C   UNL     1       3.280   2.266  17.943  0.00  0.00    +0.000 C 
ATOM     14  C   UNL     1       2.948   3.727  19.959  0.00  0.00    +0.000 C 
ATOM     15  C   UNL     1       1.255   3.710  18.179  0.00  0.00    +0.000 C 
ENDBRANCH   6  12
BRANCH   1  17
ATOM     16  N   UNL     1       2.181   7.891  18.426  0.00  0.00    +0.000 NA
ATOM     17  N   UNL     1       2.427   6.695  18.703  0.00  0.00    +0.000 NA
BRANCH  16  19
ATOM     18  C   UNL     1       1.277   9.980  19.079  0.00  0.00    +0.000 C 
ATOM     19  N   UNL     1       1.447   8.566  19.374  0.00  0.00    +0.000 N 
ATOM     20  C   UNL     1       1.563   8.199  20.779  0.00  0.00    +0.000 C 
ENDBRANCH  16  19
ENDBRANCH   1  17
TORSDOF 4
ENDMDL
MODEL 5
REMARK VINA RESULT:      -6.6      1.325      1.562
REMARK  Name = 
REMARK  9 active torsions:
REMARK  status: ('A' for Active; 'I' for Inactive)
REMARK    1  A    between atoms: C_1  and  N_2
REMARK    2  A    between atoms: N_2  and  C_3
REMARK    3  A    between atoms: N_2  and  N_4
REMARK    4  A    between atoms: N_5  and  C_6
REMARK    5  A    between atoms: C_9  and  C_10
REMARK    6  A    between atoms: C_14  and  C_15
REMARK    7  A    between atoms: C_15  and  C_16
REMARK    8  A    between atoms: C_15  and  C_17
REMARK    9  A    between atoms: C_15  and  C_18
REMARK                            x       y       z     vdW  Elec       q    Type
REMARK                         _______ _______ _______ _____ _____    ______ ____
ROOT
ATOM      1  C   UNL     1       3.411   6.372  17.943  0.00  0.00    +0.000 A 
ATOM      2  C   UNL     1       4.352   7.158  17.232  0.00  0.00    +0.000 A 
ATOM      3  C   UNL     1       5.577   6.653  16.791  0.00  0.00    +0.000 A 
ATOM      4  C   UNL     1       5.915   5.340  17.087  0.00  0.00    +0.000 A 
ATOM      5  C   UNL     1       5.002   4.555  17.814  0.00  0.00    +0.000 A 
ATOM      6  C   UNL     1       3.730   5.024  18.243  0.00  0.00    +0.000 A 
ENDROOT
BRANCH   4   7
ATOM      7  C   UNL     1       7.206   4.710  16.677  0.00  0.00    +0.000 C 
ATOM      8  N   UNL     1       8.028   4.206  17.646  0.00  0.00    +0.000 N 
ATOM      9  O   UNL     1       7.544   4.642  15.501  0.00  0.00    +0.000 OA
ATOM     10  H   UNL     1       7.847   4.229  18.638  0.00  0.00    +0.000 HD
ATOM     11  H   UNL     1       8.896   3.790  17.333  0.00  0.00    +0.000 HD
ENDBRANCH   4   7
BRANCH   6  12
ATOM     12  C   UNL     1       2.824   4.055  19.047  0.00  0.00    +0.000 C 
ATOM     13  C   UNL     1       3.580   2.726  19.244  0.00  0.00    +0.000 C 
ATOM     14  C   UNL     1       2.391   4.594  20.428  0.00  0.00    +0.000 C 
ATOM     15  C   UNL     1       1.490   3.729  18.314  0.00  0.00    +0.000 C 
ENDBRANCH   6  12
BRANCH   1  17
ATOM     16  N   UNL     1       2.398   8.247  18.510  0.00  0.00    +0.000 NA
ATOM     17  N   UNL     1       2.230   7.011  18.404  0.00  0.00    +0.000 NA
BRANCH  16  19
ATOM     18  C   UNL     1       1.160  10.262  18.619  0.00  0.00    +0.000 C 
ATOM     19  N   UNL     1       1.373   8.919  19.135  0.00  0.00    +0.000 N 
ATOM     20  C   UNL     1       1.132   8.718  20.557  0.00  0.00    +0.000 C 
ENDBRANCH  16  19
ENDBRANCH   1  17
TORSDOF 4
ENDMDL
MODEL 6
REMARK VINA RESULT:      -6.4      1.053      1.711
REMARK  Name = 
REMARK  9 active torsions:
REMARK  status: ('A' for Active; 'I' for Inactive)
REMARK    1  A    between atoms: C_1  and  N_2
REMARK    2  A    between atoms: N_2  and  C_3
REMARK    3  A    between atoms: N_2  and  N_4
REMARK    4  A    between atoms: N_5  and  C_6
REMARK    5  A    between atoms: C_9  and  C_10
REMARK    6  A    between atoms: C_14  and  C_15
REMARK    7  A    between atoms: C_15  and  C_16
REMARK    8  A    between atoms: C_15  and  C_17
REMARK    9  A    between atoms: C_15  and  C_18
REMARK                            x       y       z     vdW  Elec       q    Type
REMARK                         _______ _______ _______ _____ _____    ______ ____
ROOT
ATOM      1  C   UNL     1       3.268   6.139  18.084  0.00  0.00    +0.000 A 
ATOM      2  C   UNL     1       4.171   6.973  17.381  0.00  0.00    +0.000 A 
ATOM      3  C   UNL     1       5.297   6.478  16.720  0.00  0.00    +0.000 A 
ATOM      4  C   UNL     1       5.575   5.120  16.777  0.00  0.00    +0.000 A 
ATOM      5  C   UNL     1       4.701   4.283  17.494  0.00  0.00    +0.000 A 
ATOM      6  C   UNL     1       3.524   4.746  18.143  0.00  0.00    +0.000 A 
ENDROOT
BRANCH   4   7
ATOM      7  C   UNL     1       6.761   4.493  16.121  0.00  0.00    +0.000 C 
ATOM      8  N   UNL     1       7.894   4.297  16.860  0.00  0.00    +0.000 N 
ATOM      9  O   UNL     1       6.743   4.161  14.942  0.00  0.00    +0.000 OA
ATOM     10  H   UNL     1       8.013   4.552  17.829  0.00  0.00    +0.000 HD
ATOM     11  H   UNL     1       8.680   3.875  16.383  0.00  0.00    +0.000 HD
ENDBRANCH   4   7
BRANCH   6  12
ATOM     12  C   UNL     1       2.653   3.714  18.907  0.00  0.00    +0.000 C 
ATOM     13  C   UNL     1       2.573   4.140  20.387  0.00  0.00    +0.000 C 
ATOM     14  C   UNL     1       1.220   3.562  18.352  0.00  0.00    +0.000 C 
ATOM     15  C   UNL     1       3.248   2.277  18.866  0.00  0.00    +0.000 C 
ENDBRANCH   6  12
BRANCH   1  17
ATOM     16  N   UNL     1       2.282   8.007  18.714  0.00  0.00    +0.000 NA
ATOM     17  N   UNL     1       2.197   6.760  18.779  0.00  0.00    +0.000 NA
BRANCH  16  19
ATOM     18  C   UNL     1       1.193  10.072  19.116  0.00  0.00    +0.000 C 
ATOM     19  N   UNL     1       1.400   8.690  19.521  0.00  0.00    +0.000 N 
ATOM     20  C   UNL     1       1.358   8.413  20.950  0.00  0.00    +0.000 C 
ENDBRANCH  16  19
ENDBRANCH   1  17
TORSDOF 4
ENDMDL
MODEL 7
REMARK VINA RESULT:      -6.3      2.663      4.023
REMARK  Name = 
REMARK  9 active torsions:
REMARK  status: ('A' for Active; 'I' for Inactive)
REMARK    1  A    between atoms: C_1  and  N_2
REMARK    2  A    between atoms: N_2  and  C_3
REMARK    3  A    between atoms: N_2  and  N_4
REMARK    4  A    between atoms: N_5  and  C_6
REMARK    5  A    between atoms: C_9  and  C_10
REMARK    6  A    between atoms: C_14  and  C_15
REMARK    7  A    between atoms: C_15  and  C_16
REMARK    8  A    between atoms: C_15  and  C_17
REMARK    9  A    between atoms: C_15  and  C_18
REMARK                            x       y       z     vdW  Elec       q    Type
REMARK                         _______ _______ _______ _____ _____    ______ ____
ROOT
ATOM      1  C   UNL     1       4.194   4.893  19.285  0.00  0.00    +0.000 A 
ATOM      2  C   UNL     1       5.476   4.301  19.178  0.00  0.00    +0.000 A 
ATOM      3  C   UNL     1       6.501   4.853  18.407  0.00  0.00    +0.000 A 
ATOM      4  C   UNL     1       6.256   6.010  17.682  0.00  0.00    +0.000 A 
ATOM      5  C   UNL     1       4.979   6.596  17.758  0.00  0.00    +0.000 A 
ATOM      6  C   UNL     1       3.926   6.085  18.565  0.00  0.00    +0.000 A 
ENDROOT
BRANCH   4   7
ATOM      7  C   UNL     1       7.277   6.670  16.814  0.00  0.00    +0.000 C 
ATOM      8  N   UNL     1       7.756   7.897  17.181  0.00  0.00    +0.000 N 
ATOM      9  O   UNL     1       7.685   6.143  15.786  0.00  0.00    +0.000 OA
ATOM     10  H   UNL     1       7.470   8.418  17.995  0.00  0.00    +0.000 HD
ATOM     11  H   UNL     1       8.442   8.318  16.568  0.00  0.00    +0.000 HD
ENDBRANCH   4   7
BRANCH   6  12
ATOM     12  C   UNL     1       2.563   6.825  18.547  0.00  0.00    +0.000 C 
ATOM     13  C   UNL     1       1.523   5.923  17.854  0.00  0.00    +0.000 C 
ATOM     14  C   UNL     1       2.036   7.212  19.947  0.00  0.00    +0.000 C 
ATOM     15  C   UNL     1       2.617   8.167  17.760  0.00  0.00    +0.000 C 
ENDBRANCH   6  12
BRANCH   1  17
ATOM     16  N   UNL     1       2.922   3.107  19.512  0.00  0.00    +0.000 NA
ATOM     17  N   UNL     1       3.207   4.205  20.039  0.00  0.00    +0.000 NA
BRANCH  16  19
ATOM     18  C   UNL     1       0.706   2.350  19.159  0.00  0.00    +0.000 C 
ATOM     19  N   UNL     1       1.838   2.464  20.065  0.00  0.00    +0.000 N 
ATOM     20  C   UNL     1       1.531   2.640  21.477  0.00  0.00    +0.000 C 
ENDBRANCH  16  19
ENDBRANCH   1  17
TORSDOF 4
ENDMDL
MODEL 8
REMARK VINA RESULT:      -6.3      3.033      5.377
REMARK  Name = 
REMARK  9 active torsions:
REMARK  status: ('A' for Active; 'I' for Inactive)
REMARK    1  A    between atoms: C_1  and  N_2
REMARK    2  A    between atoms: N_2  and  C_3
REMARK    3  A    between atoms: N_2  and  N_4
REMARK    4  A    between atoms: N_5  and  C_6
REMARK    5  A    between atoms: C_9  and  C_10
REMARK    6  A    between atoms: C_14  and  C_15
REMARK    7  A    between atoms: C_15  and  C_16
REMARK    8  A    between atoms: C_15  and  C_17
REMARK    9  A    between atoms: C_15  and  C_18
REMARK                            x       y       z     vdW  Elec       q    Type
REMARK                         _______ _______ _______ _____ _____    ______ ____
ROOT
ATOM      1  C   UNL     1       3.210   5.905  19.176  0.00  0.00    +0.000 A 
ATOM      2  C   UNL     1       2.226   6.598  19.923  0.00  0.00    +0.000 A 
ATOM      3  C   UNL     1       1.721   7.841  19.537  0.00  0.00    +0.000 A 
ATOM      4  C   UNL     1       2.221   8.451  18.395  0.00  0.00    +0.000 A 
ATOM      5  C   UNL     1       3.217   7.788  17.657  0.00  0.00    +0.000 A 
ATOM      6  C   UNL     1       3.725   6.503  17.998  0.00  0.00    +0.000 A 
ENDROOT
BRANCH   4   7
ATOM      7  C   UNL     1       1.761   9.785  17.906  0.00  0.00    +0.000 C 
ATOM      8  N   UNL     1       0.418  10.014  17.786  0.00  0.00    +0.000 N 
ATOM      9  O   UNL     1       2.555  10.668  17.604  0.00  0.00    +0.000 OA
ATOM     10  H   UNL     1      -0.310   9.348  17.992  0.00  0.00    +0.000 HD
ATOM     11  H   UNL     1       0.142  10.927  17.448  0.00  0.00    +0.000 HD
ENDBRANCH   4   7
BRANCH   6  12
ATOM     12  C   UNL     1       4.831   5.890  17.101  0.00  0.00    +0.000 C 
ATOM     13  C   UNL     1       6.165   5.927  17.873  0.00  0.00    +0.000 C 
ATOM     14  C   UNL     1       4.551   4.438  16.655  0.00  0.00    +0.000 C 
ATOM     15  C   UNL     1       5.037   6.679  15.775  0.00  0.00    +0.000 C 
ENDBRANCH   6  12
BRANCH   1  17
ATOM     16  N   UNL     1       2.811   3.803  19.708  0.00  0.00    +0.000 NA
ATOM     17  N   UNL     1       3.702   4.682  19.703  0.00  0.00    +0.000 NA
BRANCH  16  19
ATOM     18  C   UNL     1       2.483   2.520  21.670  0.00  0.00    +0.000 C 
ATOM     19  N   UNL     1       3.141   2.649  20.379  0.00  0.00    +0.000 N 
ATOM     20  C   UNL     1       4.489   2.106  20.275  0.00  0.00    +0.000 C 
ENDBRANCH  16  19
ENDBRANCH   1  17
TORSDOF 4
ENDMDL
MODEL 9
REMARK VINA RESULT:      -6.2      3.109      5.839
REMARK  Name = 
REMARK  9 active torsions:
REMARK  status: ('A' for Active; 'I' for Inactive)
REMARK    1  A    between atoms: C_1  and  N_2
REMARK    2  A    between atoms: N_2  and  C_3
REMARK    3  A    between atoms: N_2  and  N_4
REMARK    4  A    between atoms: N_5  and  C_6
REMARK    5  A    between atoms: C_9  and  C_10
REMARK    6  A    between atoms: C_14  and  C_15
REMARK    7  A    between atoms: C_15  and  C_16
REMARK    8  A    between atoms: C_15  and  C_17
REMARK    9  A    between atoms: C_15  and  C_18
REMARK                            x       y       z     vdW  Elec       q    Type
REMARK                         _______ _______ _______ _____ _____    ______ ____
ROOT
ATOM      1  C   UNL     1       3.097   5.616  18.486  0.00  0.00    +0.000 A 
ATOM      2  C   UNL     1       3.028   7.021  18.317  0.00  0.00    +0.000 A 
ATOM      3  C   UNL     1       2.358   7.856  19.213  0.00  0.00    +0.000 A 
ATOM      4  C   UNL     1       1.697   7.297  20.297  0.00  0.00    +0.000 A 
ATOM      5  C   UNL     1       1.735   5.901  20.463  0.00  0.00    +0.000 A 
ATOM      6  C   UNL     1       2.442   5.024  19.595  0.00  0.00    +0.000 A 
ENDROOT
BRANCH   4   7
ATOM      7  C   UNL     1       0.937   8.099  21.302  0.00  0.00    +0.000 C 
ATOM      8  N   UNL     1       1.635   8.862  22.197  0.00  0.00    +0.000 N 
ATOM      9  O   UNL     1      -0.287   8.082  21.347  0.00  0.00    +0.000 OA
ATOM     10  H   UNL     1       2.639   8.928  22.253  0.00  0.00    +0.000 HD
ATOM     11  H   UNL     1       1.089   9.389  22.867  0.00  0.00    +0.000 HD
ENDBRANCH   4   7
BRANCH   6  12
ATOM     12  C   UNL     1       2.393   3.502  19.889  0.00  0.00    +0.000 C 
ATOM     13  C   UNL     1       1.665   3.285  21.231  0.00  0.00    +0.000 C 
ATOM     14  C   UNL     1       1.686   2.670  18.796  0.00  0.00    +0.000 C 
ATOM     15  C   UNL     1       3.808   2.868  20.017  0.00  0.00    +0.000 C 
ENDBRANCH   6  12
BRANCH   1  17
ATOM     16  N   UNL     1       4.978   5.074  17.470  0.00  0.00    +0.000 NA
ATOM     17  N   UNL     1       3.745   4.859  17.474  0.00  0.00    +0.000 NA
BRANCH  16  19
ATOM     18  C   UNL     1       7.089   4.425  16.618  0.00  0.00    +0.000 C 
ATOM     19  N   UNL     1       5.655   4.536  16.400  0.00  0.00    +0.000 N 
ATOM     20  C   UNL     1       5.220   4.829  15.042  0.00  0.00    +0.000 C 
ENDBRANCH  16  19
ENDBRANCH   1  17
TORSDOF 4
ENDMDL
