MODEL 1
REMARK VINA RESULT:      -8.3      0.000      0.000
REMARK  Name = 
REMARK  9 active torsions:
REMARK  status: ('A' for Active; 'I' for Inactive)
REMARK    1  A    between atoms: C_1  and  C_2
REMARK    2  A    between atoms: C_2  and  C_3
REMARK    3  A    between atoms: C_2  and  C_4
REMARK    4  A    between atoms: C_2  and  C_27
REMARK    5  A    between atoms: C_4  and  C_5
REMARK    6  A    between atoms: C_5  and  C_6
REMARK    7  A    between atoms: N_9  and  C_10
REMARK    8  A    between atoms: C_10  and  C_11
REMARK    9  A    between atoms: C_27  and  O_29
REMARK                            x       y       z     vdW  Elec       q    Type
REMARK                         _______ _______ _______ _____ _____    ______ ____
ROOT
ATOM      1  C   UNL     1       2.031   4.984  21.183  0.00  0.00    +0.000 C 
ENDROOT
BRANCH   1   2
ATOM      2  C   UNL     1       1.877   6.282  20.419  0.00  0.00    +0.000 A 
ATOM      3  C   UNL     1       2.452   6.408  19.148  0.00  0.00    +0.000 A 
ATOM      4  C   UNL     1       2.428   7.631  18.482  0.00  0.00    +0.000 A 
ATOM      5  C   UNL     1       1.811   8.747  19.063  0.00  0.00    +0.000 A 
ATOM      6  C   UNL     1       1.170   8.625  20.309  0.00  0.00    +0.000 A 
ATOM      7  C   UNL     1       1.229   7.394  20.985  0.00  0.00    +0.000 A 
ATOM      8  N   UNL     1       0.517   9.710  20.906  0.00  0.00    +0.000 N 
ATOM      9  C   UNL     1       0.306  10.974  20.350  0.00  0.00    +0.000 A 
ATOM     10  N   UNL     1      -0.502  11.817  21.047  0.00  0.00    +0.000 NA
ATOM     11  C   UNL     1      -0.703  13.036  20.499  0.00  0.00    +0.000 A 
ATOM     12  C   UNL     1      -0.117  13.425  19.307  0.00  0.00    +0.000 A 
ATOM     13  N   UNL     1       0.686  12.606  18.602  0.00  0.00    +0.000 NA
ATOM     14  C   UNL     1       0.888  11.371  19.133  0.00  0.00    +0.000 A 
ATOM     15  S   UNL     1       1.914  10.289  18.166  0.00  0.00    +0.000 S 
ATOM     16  H   UNL     1      -0.015   9.563  21.753  0.00  0.00    +0.000 HD
ENDBRANCH   1   2
BRANCH   1  20
ATOM     17  C   UNL     1       3.073   2.486  17.814  0.00  0.00    +0.000 C 
ATOM     18  C   UNL     1       1.591   2.673  18.180  0.00  0.00    +0.000 C 
ATOM     19  C   UNL     1       1.349   3.845  19.143  0.00  0.00    +0.000 C 
ATOM     20  N   UNL     1       2.189   3.776  20.352  0.00  0.00    +0.000 NA
ATOM     21  C   UNL     1       3.615   3.630  20.009  0.00  0.00    +0.000 C 
ATOM     22  C   UNL     1       3.863   2.408  19.127  0.00  0.00    +0.000 C 
BRANCH  17  23
ATOM     23  C   UNL     1       3.571   3.592  16.851  0.00  0.00    +0.000 C 
BRANCH  23  24
ATOM     24  C   UNL     1       5.100   3.575  16.652  0.00  0.00    +0.000 C 
BRANCH  24  26
ATOM     25  C   UNL     1       5.034   6.015  15.952  0.00  0.00    +0.000 C 
ATOM     26  C   UNL     1       5.804   4.952  16.761  0.00  0.00    +0.000 C 
ATOM     27  C   UNL     1       5.810   5.416  18.231  0.00  0.00    +0.000 C 
BRANCH  26  28
ATOM     28  C   UNL     1       7.249   4.872  16.258  0.00  0.00    +0.000 C 
ATOM     29  O   UNL     1       7.653   5.403  15.235  0.00  0.00    +0.000 OA
BRANCH  28  30
ATOM     30  O   UNL     1       8.076   4.143  17.040  0.00  0.00    +0.000 OA
ATOM     31  H   UNL     1       7.687   3.328  17.414  0.00  0.00    +0.000 HD
ENDBRANCH  28  30
ENDBRANCH  26  28
ENDBRANCH  24  26
ENDBRANCH  23  24
ENDBRANCH  17  23
ENDBRANCH   1  20
TORSDOF 7
ENDMDL
MODEL 2
REMARK VINA RESULT:      -8.3      1.921      2.806
REMARK  Name = 
REMARK  9 active torsions:
REMARK  status: ('A' for Active; 'I' for Inactive)
REMARK    1  A    between atoms: C_1  and  C_2
REMARK    2  A    between atoms: C_2  and  C_3
REMARK    3  A    between atoms: C_2  and  C_4
REMARK    4  A    between atoms: C_2  and  C_27
REMARK    5  A    between atoms: C_4  and  C_5
REMARK    6  A    between atoms: C_5  and  C_6
REMARK    7  A    between atoms: N_9  and  C_10
REMARK    8  A    between atoms: C_10  and  C_11
REMARK    9  A    between atoms: C_27  and  O_29
REMARK                            x       y       z     vdW  Elec       q    Type
REMARK                         _______ _______ _______ _____ _____    ______ ____
ROOT
ATOM      1  C   UNL     1       2.230   7.703  18.536  0.00  0.00    +0.000 C 
ENDROOT
BRANCH   1   2
ATOM      2  C   UNL     1       1.538   8.504  19.619  0.00  0.00    +0.000 A 
ATOM      3  C   UNL     1       1.573   8.050  20.943  0.00  0.00    +0.000 A 
ATOM      4  C   UNL     1       0.841   8.704  21.932  0.00  0.00    +0.000 A 
ATOM      5  C   UNL     1       0.077   9.836  21.621  0.00  0.00    +0.000 A 
ATOM      6  C   UNL     1       0.082  10.348  20.310  0.00  0.00    +0.000 A 
ATOM      7  C   UNL     1       0.799   9.660  19.316  0.00  0.00    +0.000 A 
ATOM      8  N   UNL     1      -0.645  11.495  19.970  0.00  0.00    +0.000 N 
ATOM      9  C   UNL     1      -1.351  12.331  20.838  0.00  0.00    +0.000 A 
ATOM     10  N   UNL     1      -1.840  13.483  20.306  0.00  0.00    +0.000 NA
ATOM     11  C   UNL     1      -2.518  14.288  21.155  0.00  0.00    +0.000 A 
ATOM     12  C   UNL     1      -2.724  13.967  22.485  0.00  0.00    +0.000 A 
ATOM     13  N   UNL     1      -2.249  12.832  23.030  0.00  0.00    +0.000 NA
ATOM     14  C   UNL     1      -1.552  12.017  22.193  0.00  0.00    +0.000 A 
ATOM     15  S   UNL     1      -0.895  10.546  22.942  0.00  0.00    +0.000 S 
ATOM     16  H   UNL     1      -0.542  11.890  19.045  0.00  0.00    +0.000 HD
ENDBRANCH   1   2
BRANCH   1  20
ATOM     17  C   UNL     1       3.663   3.645  18.142  0.00  0.00    +0.000 C 
ATOM     18  C   UNL     1       2.148   3.907  18.163  0.00  0.00    +0.000 C 
ATOM     19  C   UNL     1       1.786   5.383  17.944  0.00  0.00    +0.000 C 
ATOM     20  N   UNL     1       2.494   6.289  18.866  0.00  0.00    +0.000 NA
ATOM     21  C   UNL     1       3.951   6.067  18.827  0.00  0.00    +0.000 C 
ATOM     22  C   UNL     1       4.311   4.615  19.138  0.00  0.00    +0.000 C 
BRANCH  17  23
ATOM     23  C   UNL     1       4.243   3.742  16.709  0.00  0.00    +0.000 C 
BRANCH  23  24
ATOM     24  C   UNL     1       5.773   3.935  16.689  0.00  0.00    +0.000 C 
BRANCH  24  26
ATOM     25  C   UNL     1       5.104   6.146  15.632  0.00  0.00    +0.000 C 
ATOM     26  C   UNL     1       6.278   5.195  15.939  0.00  0.00    +0.000 C 
ATOM     27  C   UNL     1       7.268   5.968  16.833  0.00  0.00    +0.000 C 
BRANCH  26  28
ATOM     28  C   UNL     1       6.981   4.811  14.633  0.00  0.00    +0.000 C 
ATOM     29  O   UNL     1       7.817   5.501  14.071  0.00  0.00    +0.000 OA
BRANCH  28  30
ATOM     30  O   UNL     1       6.599   3.621  14.118  0.00  0.00    +0.000 OA
ATOM     31  H   UNL     1       6.971   2.834  14.564  0.00  0.00    +0.000 HD
ENDBRANCH  28  30
ENDBRANCH  26  28
ENDBRANCH  24  26
ENDBRANCH  23  24
ENDBRANCH  17  23
ENDBRANCH   1  20
TORSDOF 7
ENDMDL
MODEL 3
REMARK VINA RESULT:      -8.2      1.986      2.994
REMARK  Name = 
REMARK  9 active torsions:
REMARK  status: ('A' for Active; 'I' for Inactive)
REMARK    1  A    between atoms: C_1  and  C_2
REMARK    2  A    between atoms: C_2  and  C_3
REMARK    3  A    between atoms: C_2  and  C_4
REMARK    4  A    between atoms: C_2  and  C_27
REMARK    5  A    between atoms: C_4  and  C_5
REMARK    6  A    between atoms: C_5  and  C_6
REMARK    7  A    between atoms: N_9  and  C_10
REMARK    8  A    between atoms: C_10  and  C_11
REMARK    9  A    between atoms: C_27  and  O_29
REMARK                            x       y       z     vdW  Elec       q    Type
REMARK                         _______ _______ _______ _____ _____    ______ ____
ROOT
ATOM      1  C   UNL     1       2.125   7.907  18.619  0.00  0.00    +0.000 C 
ENDROOT
BRANCH   1   2
ATOM      2  C   UNL     1       1.422   8.685  19.711  0.00  0.00    +0.000 A 
ATOM      3  C   UNL     1       1.490   8.233  21.034  0.00  0.00    +0.000 A 
ATOM      4  C   UNL     1       0.750   8.863  22.033  0.00  0.00    +0.000 A 
ATOM      5  C   UNL     1      -0.055   9.969  21.733  0.00  0.00    +0.000 A 
ATOM      6  C   UNL     1      -0.086  10.480  20.422  0.00  0.00    +0.000 A 
ATOM      7  C   UNL     1       0.640   9.816  19.418  0.00  0.00    +0.000 A 
ATOM      8  N   UNL     1      -0.855  11.602  20.092  0.00  0.00    +0.000 N 
ATOM      9  C   UNL     1      -1.577  12.415  20.969  0.00  0.00    +0.000 A 
ATOM     10  N   UNL     1      -2.111  13.550  20.444  0.00  0.00    +0.000 NA
ATOM     11  C   UNL     1      -2.804  14.332  21.302  0.00  0.00    +0.000 A 
ATOM     12  C   UNL     1      -2.981  14.004  22.635  0.00  0.00    +0.000 A 
ATOM     13  N   UNL     1      -2.461  12.886  23.173  0.00  0.00    +0.000 NA
ATOM     14  C   UNL     1      -1.749  12.095  22.327  0.00  0.00    +0.000 A 
ATOM     15  S   UNL     1      -1.032  10.647  23.066  0.00  0.00    +0.000 S 
ATOM     16  H   UNL     1      -0.778  12.000  19.166  0.00  0.00    +0.000 HD
ENDBRANCH   1   2
BRANCH   1  20
ATOM     17  C   UNL     1       3.893   3.976  18.306  0.00  0.00    +0.000 C 
ATOM     18  C   UNL     1       2.440   4.109  18.791  0.00  0.00    +0.000 C 
ATOM     19  C   UNL     1       1.834   5.492  18.513  0.00  0.00    +0.000 C 
ATOM     20  N   UNL     1       2.667   6.596  19.024  0.00  0.00    +0.000 NA
ATOM     21  C   UNL     1       4.054   6.495  18.536  0.00  0.00    +0.000 C 
ATOM     22  C   UNL     1       4.684   5.150  18.898  0.00  0.00    +0.000 C 
BRANCH  17  23
ATOM     23  C   UNL     1       3.978   3.882  16.762  0.00  0.00    +0.000 C 
BRANCH  23  24
ATOM     24  C   UNL     1       5.388   3.518  16.256  0.00  0.00    +0.000 C 
BRANCH  24  26
ATOM     25  C   UNL     1       6.711   4.180  14.191  0.00  0.00    +0.000 C 
ATOM     26  C   UNL     1       6.161   4.662  15.549  0.00  0.00    +0.000 C 
ATOM     27  C   UNL     1       5.201   5.833  15.261  0.00  0.00    +0.000 C 
BRANCH  26  28
ATOM     28  C   UNL     1       7.315   5.166  16.421  0.00  0.00    +0.000 C 
ATOM     29  O   UNL     1       7.606   6.343  16.567  0.00  0.00    +0.000 OA
BRANCH  28  30
ATOM     30  O   UNL     1       8.023   4.191  17.033  0.00  0.00    +0.000 OA
ATOM     31  H   UNL     1       8.957   4.410  17.224  0.00  0.00    +0.000 HD
ENDBRANCH  28  30
ENDBRANCH  26  28
ENDBRANCH  24  26
ENDBRANCH  23  24
ENDBRANCH  17  23
ENDBRANCH   1  20
TORSDOF 7
ENDMDL
MODEL 4
REMARK VINA RESULT:      -8.0      1.794      2.537
REMARK  Name = 
REMARK  9 active torsions:
REMARK  status: ('A' for Active; 'I' for Inactive)
REMARK    1  A    between atoms: C_1  and  C_2
REMARK    2  A    between atoms: C_2  and  C_3
REMARK    3  A    between atoms: C_2  and  C_4
REMARK    4  A    between atoms: C_2  and  C_27
REMARK    5  A    between atoms: C_4  and  C_5
REMARK    6  A    between atoms: C_5  and  C_6
REMARK    7  A    between atoms: N_9  and  C_10
REMARK    8  A    between atoms: C_10  and  C_11
REMARK    9  A    between atoms: C_27  and  O_29
REMARK                            x       y       z     vdW  Elec       q    Type
REMARK                         _______ _______ _______ _____ _____    ______ ____
ROOT
ATOM      1  C   UNL     1       2.815   7.577  18.910  0.00  0.00    +0.000 C 
ENDROOT
BRANCH   1   2
ATOM      2  C   UNL     1       1.677   8.570  19.018  0.00  0.00    +0.000 A 
ATOM      3  C   UNL     1       1.152   9.150  17.857  0.00  0.00    +0.000 A 
ATOM      4  C   UNL     1       0.191  10.155  17.942  0.00  0.00    +0.000 A 
ATOM      5  C   UNL     1      -0.279  10.586  19.189  0.00  0.00    +0.000 A 
ATOM      6  C   UNL     1       0.187   9.971  20.366  0.00  0.00    +0.000 A 
ATOM      7  C   UNL     1       1.179   8.981  20.267  0.00  0.00    +0.000 A 
ATOM      8  N   UNL     1      -0.283  10.355  21.627  0.00  0.00    +0.000 N 
ATOM      9  C   UNL     1      -1.306  11.266  21.903  0.00  0.00    +0.000 A 
ATOM     10  N   UNL     1      -1.707  11.354  23.199  0.00  0.00    +0.000 NA
ATOM     11  C   UNL     1      -2.700  12.236  23.454  0.00  0.00    +0.000 A 
ATOM     12  C   UNL     1      -3.275  13.019  22.469  0.00  0.00    +0.000 A 
ATOM     13  N   UNL     1      -2.892  12.947  21.181  0.00  0.00    +0.000 NA
ATOM     14  C   UNL     1      -1.904  12.055  20.905  0.00  0.00    +0.000 A 
ATOM     15  S   UNL     1      -1.443  11.942  19.192  0.00  0.00    +0.000 S 
ATOM     16  H   UNL     1      -0.001   9.828  22.443  0.00  0.00    +0.000 HD
ENDBRANCH   1   2
BRANCH   1  20
ATOM     17  C   UNL     1       2.858   3.276  18.493  0.00  0.00    +0.000 C 
ATOM     18  C   UNL     1       1.643   4.067  17.981  0.00  0.00    +0.000 C 
ATOM     19  C   UNL     1       1.910   5.574  17.861  0.00  0.00    +0.000 C 
ATOM     20  N   UNL     1       2.441   6.163  19.104  0.00  0.00    +0.000 NA
ATOM     21  C   UNL     1       3.626   5.431  19.584  0.00  0.00    +0.000 C 
ATOM     22  C   UNL     1       3.328   3.946  19.791  0.00  0.00    +0.000 C 
BRANCH  17  23
ATOM     23  C   UNL     1       3.964   3.158  17.415  0.00  0.00    +0.000 C 
BRANCH  23  24
ATOM     24  C   UNL     1       5.190   4.046  17.709  0.00  0.00    +0.000 C 
BRANCH  24  26
ATOM     25  C   UNL     1       5.767   3.836  15.245  0.00  0.00    +0.000 C 
ATOM     26  C   UNL     1       5.810   4.759  16.479  0.00  0.00    +0.000 C 
ATOM     27  C   UNL     1       4.982   6.014  16.137  0.00  0.00    +0.000 C 
BRANCH  26  28
ATOM     28  C   UNL     1       7.257   5.176  16.758  0.00  0.00    +0.000 C 
ATOM     29  O   UNL     1       7.688   6.309  16.611  0.00  0.00    +0.000 OA
BRANCH  28  30
ATOM     30  O   UNL     1       8.058   4.175  17.184  0.00  0.00    +0.000 OA
ATOM     31  H   UNL     1       8.761   3.906  16.559  0.00  0.00    +0.000 HD
ENDBRANCH  28  30
ENDBRANCH  26  28
ENDBRANCH  24  26
ENDBRANCH  23  24
ENDBRANCH  17  23
ENDBRANCH   1  20
TORSDOF 7
ENDMDL
MODEL 5
REMARK VINA RESULT:      -7.9      2.492      3.640
REMARK  Name = 
REMARK  9 active torsions:
REMARK  status: ('A' for Active; 'I' for Inactive)
REMARK    1  A    between atoms: C_1  and  C_2
REMARK    2  A    between atoms: C_2  and  C_3
REMARK    3  A    between atoms: C_2  and  C_4
REMARK    4  A    between atoms: C_2  and  C_27
REMARK    5  A    between atoms: C_4  and  C_5
REMARK    6  A    between atoms: C_5  and  C_6
REMARK    7  A    between atoms: N_9  and  C_10
REMARK    8  A    between atoms: C_10  and  C_11
REMARK    9  A    between atoms: C_27  and  O_29
REMARK                            x       y       z     vdW  Elec       q    Type
REMARK                         _______ _______ _______ _____ _____    ______ ____
ROOT
ATOM      1  C   UNL     1       1.546   8.164  21.255  0.00  0.00    +0.000 C 
ENDROOT
BRANCH   1   2
ATOM      2  C   UNL     1       0.578   9.315  21.079  0.00  0.00    +0.000 A 
ATOM      3  C   UNL     1       0.524   9.991  19.854  0.00  0.00    +0.000 A 
ATOM      4  C   UNL     1      -0.269  11.128  19.710  0.00  0.00    +0.000 A 
ATOM      5  C   UNL     1      -1.039  11.599  20.781  0.00  0.00    +0.000 A 
ATOM      6  C   UNL     1      -1.051  10.896  22.000  0.00  0.00    +0.000 A 
ATOM      7  C   UNL     1      -0.223   9.770  22.141  0.00  0.00    +0.000 A 
ATOM      8  N   UNL     1      -1.832  11.320  23.081  0.00  0.00    +0.000 N 
ATOM      9  C   UNL     1      -2.755  12.369  23.093  0.00  0.00    +0.000 A 
ATOM     10  N   UNL     1      -3.523  12.490  24.209  0.00  0.00    +0.000 NA
ATOM     11  C   UNL     1      -4.415  13.505  24.208  0.00  0.00    +0.000 A 
ATOM     12  C   UNL     1      -4.543  14.387  23.150  0.00  0.00    +0.000 A 
ATOM     13  N   UNL     1      -3.792  14.285  22.037  0.00  0.00    +0.000 NA
ATOM     14  C   UNL     1      -2.899  13.260  22.015  0.00  0.00    +0.000 A 
ATOM     15  S   UNL     1      -1.950  13.114  20.521  0.00  0.00    +0.000 S 
ATOM     16  H   UNL     1      -1.892  10.739  23.907  0.00  0.00    +0.000 HD
ENDBRANCH   1   2
BRANCH   1  20
ATOM     17  C   UNL     1       2.883   5.020  18.610  0.00  0.00    +0.000 C 
ATOM     18  C   UNL     1       2.519   6.393  18.020  0.00  0.00    +0.000 C 
ATOM     19  C   UNL     1       2.415   7.498  19.080  0.00  0.00    +0.000 C 
ATOM     20  N   UNL     1       1.513   7.142  20.192  0.00  0.00    +0.000 NA
ATOM     21  C   UNL     1       1.876   5.843  20.785  0.00  0.00    +0.000 C 
ATOM     22  C   UNL     1       1.888   4.728  19.740  0.00  0.00    +0.000 C 
BRANCH  17  23
ATOM     23  C   UNL     1       4.367   4.959  19.053  0.00  0.00    +0.000 C 
BRANCH  23  24
ATOM     24  C   UNL     1       5.279   4.278  18.013  0.00  0.00    +0.000 C 
BRANCH  24  26
ATOM     25  C   UNL     1       5.219   5.546  15.814  0.00  0.00    +0.000 C 
ATOM     26  C   UNL     1       6.054   5.236  17.073  0.00  0.00    +0.000 C 
ATOM     27  C   UNL     1       6.305   6.577  17.792  0.00  0.00    +0.000 C 
BRANCH  26  28
ATOM     28  C   UNL     1       7.399   4.632  16.659  0.00  0.00    +0.000 C 
ATOM     29  O   UNL     1       7.827   4.619  15.516  0.00  0.00    +0.000 OA
BRANCH  28  30
ATOM     30  O   UNL     1       8.105   4.087  17.675  0.00  0.00    +0.000 OA
ATOM     31  H   UNL     1       8.973   3.711  17.426  0.00  0.00    +0.000 HD
ENDBRANCH  28  30
ENDBRANCH  26  28
ENDBRANCH  24  26
ENDBRANCH  23  24
ENDBRANCH  17  23
ENDBRANCH   1  20
TORSDOF 7
ENDMDL
MODEL 6
REMARK VINA RESULT:      -7.7      0.895      1.173
REMARK  Name = 
REMARK  9 active torsions:
REMARK  status: ('A' for Active; 'I' for Inactive)
REMARK    1  A    between atoms: C_1  and  C_2
REMARK    2  A    between atoms: C_2  and  C_3
REMARK    3  A    between atoms: C_2  and  C_4
REMARK    4  A    between atoms: C_2  and  C_27
REMARK    5  A    between atoms: C_4  and  C_5
REMARK    6  A    between atoms: C_5  and  C_6
REMARK    7  A    between atoms: N_9  and  C_10
REMARK    8  A    between atoms: C_10  and  C_11
REMARK    9  A    between atoms: C_27  and  O_29
REMARK                            x       y       z     vdW  Elec       q    Type
REMARK                         _______ _______ _______ _____ _____    ______ ____
ROOT
ATOM      1  C   UNL     1       1.819   4.818  20.975  0.00  0.00    +0.000 C 
ENDROOT
BRANCH   1   2
ATOM      2  C   UNL     1       1.743   6.154  20.266  0.00  0.00    +0.000 A 
ATOM      3  C   UNL     1       2.112   6.243  18.919  0.00  0.00    +0.000 A 
ATOM      4  C   UNL     1       2.166   7.482  18.284  0.00  0.00    +0.000 A 
ATOM      5  C   UNL     1       1.832   8.653  18.976  0.00  0.00    +0.000 A 
ATOM      6  C   UNL     1       1.394   8.578  20.312  0.00  0.00    +0.000 A 
ATOM      7  C   UNL     1       1.375   7.326  20.950  0.00  0.00    +0.000 A 
ATOM      8  N   UNL     1       1.023   9.723  21.025  0.00  0.00    +0.000 N 
ATOM      9  C   UNL     1       0.920  11.026  20.531  0.00  0.00    +0.000 A 
ATOM     10  N   UNL     1       0.377  11.951  21.367  0.00  0.00    +0.000 NA
ATOM     11  C   UNL     1       0.277  13.207  20.878  0.00  0.00    +0.000 A 
ATOM     12  C   UNL     1       0.711  13.552  19.610  0.00  0.00    +0.000 A 
ATOM     13  N   UNL     1       1.252  12.652  18.768  0.00  0.00    +0.000 NA
ATOM     14  C   UNL     1       1.347  11.380  19.239  0.00  0.00    +0.000 A 
ATOM     15  S   UNL     1       2.021  10.197  18.098  0.00  0.00    +0.000 S 
ATOM     16  H   UNL     1       0.622   9.624  21.948  0.00  0.00    +0.000 HD
ENDBRANCH   1   2
BRANCH   1  20
ATOM     17  C   UNL     1       4.204   2.878  17.938  0.00  0.00    +0.000 C 
ATOM     18  C   UNL     1       2.846   2.270  18.328  0.00  0.00    +0.000 C 
ATOM     19  C   UNL     1       1.961   3.233  19.132  0.00  0.00    +0.000 C 
ATOM     20  N   UNL     1       2.648   3.795  20.309  0.00  0.00    +0.000 NA
ATOM     21  C   UNL     1       3.936   4.409  19.939  0.00  0.00    +0.000 C 
ATOM     22  C   UNL     1       4.850   3.418  19.220  0.00  0.00    +0.000 C 
BRANCH  17  23
ATOM     23  C   UNL     1       4.060   3.937  16.817  0.00  0.00    +0.000 C 
BRANCH  23  24
ATOM     24  C   UNL     1       5.183   3.857  15.764  0.00  0.00    +0.000 C 
BRANCH  24  26
ATOM     25  C   UNL     1       6.915   5.079  14.365  0.00  0.00    +0.000 C 
ATOM     26  C   UNL     1       6.112   5.096  15.681  0.00  0.00    +0.000 C 
ATOM     27  C   UNL     1       5.260   6.382  15.676  0.00  0.00    +0.000 C 
BRANCH  26  28
ATOM     28  C   UNL     1       7.076   5.141  16.870  0.00  0.00    +0.000 C 
ATOM     29  O   UNL     1       7.972   4.335  17.061  0.00  0.00    +0.000 OA
BRANCH  28  30
ATOM     30  O   UNL     1       6.859   6.160  17.731  0.00  0.00    +0.000 OA
ATOM     31  H   UNL     1       7.362   6.115  18.568  0.00  0.00    +0.000 HD
ENDBRANCH  28  30
ENDBRANCH  26  28
ENDBRANCH  24  26
ENDBRANCH  23  24
ENDBRANCH  17  23
ENDBRANCH   1  20
TORSDOF 7
ENDMDL
MODEL 7
REMARK VINA RESULT:      -7.7      2.055      3.194
REMARK  Name = 
REMARK  9 active torsions:
REMARK  status: ('A' for Active; 'I' for Inactive)
REMARK    1  A    between atoms: C_1  and  C_2
REMARK    2  A    between atoms: C_2  and  C_3
REMARK    3  A    between atoms: C_2  and  C_4
REMARK    4  A    between atoms: C_2  and  C_27
REMARK    5  A    between atoms: C_4  and  C_5
REMARK    6  A    between atoms: C_5  and  C_6
REMARK    7  A    between atoms: N_9  and  C_10
REMARK    8  A    between atoms: C_10  and  C_11
REMARK    9  A    between atoms: C_27  and  O_29
REMARK                            x       y       z     vdW  Elec       q    Type
REMARK                         _______ _______ _______ _____ _____    ______ ____
ROOT
ATOM      1  C   UNL     1       2.303   8.663  17.863  0.00  0.00    +0.000 C 
ENDROOT
BRANCH   1   2
ATOM      2  C   UNL     1       1.123   9.455  18.388  0.00  0.00    +0.000 A 
ATOM      3  C   UNL     1      -0.069   9.485  17.656  0.00  0.00    +0.000 A 
ATOM      4  C   UNL     1      -1.123  10.303  18.057  0.00  0.00    +0.000 A 
ATOM      5  C   UNL     1      -1.013  11.092  19.209  0.00  0.00    +0.000 A 
ATOM      6  C   UNL     1       0.152  11.026  19.996  0.00  0.00    +0.000 A 
ATOM      7  C   UNL     1       1.219  10.221  19.563  0.00  0.00    +0.000 A 
ATOM      8  N   UNL     1       0.285  11.777  21.170  0.00  0.00    +0.000 N 
ATOM      9  C   UNL     1      -0.692  12.570  21.777  0.00  0.00    +0.000 A 
ATOM     10  N   UNL     1      -0.390  13.071  23.005  0.00  0.00    +0.000 NA
ATOM     11  C   UNL     1      -1.344  13.834  23.585  0.00  0.00    +0.000 A 
ATOM     12  C   UNL     1      -2.554  14.110  22.974  0.00  0.00    +0.000 A 
ATOM     13  N   UNL     1      -2.872  13.624  21.760  0.00  0.00    +0.000 NA
ATOM     14  C   UNL     1      -1.929  12.843  21.168  0.00  0.00    +0.000 A 
ATOM     15  S   UNL     1      -2.384  12.174  19.586  0.00  0.00    +0.000 S 
ATOM     16  H   UNL     1       1.092  11.632  21.762  0.00  0.00    +0.000 HD
ENDBRANCH   1   2
BRANCH   1  20
ATOM     17  C   UNL     1       3.367   4.502  18.334  0.00  0.00    +0.000 C 
ATOM     18  C   UNL     1       1.900   4.926  18.514  0.00  0.00    +0.000 C 
ATOM     19  C   UNL     1       1.607   6.333  17.973  0.00  0.00    +0.000 C 
ATOM     20  N   UNL     1       2.524   7.355  18.508  0.00  0.00    +0.000 NA
ATOM     21  C   UNL     1       3.933   6.971  18.309  0.00  0.00    +0.000 C 
ATOM     22  C   UNL     1       4.242   5.610  18.932  0.00  0.00    +0.000 C 
BRANCH  17  23
ATOM     23  C   UNL     1       3.694   4.177  16.855  0.00  0.00    +0.000 C 
BRANCH  23  24
ATOM     24  C   UNL     1       5.159   3.745  16.642  0.00  0.00    +0.000 C 
BRANCH  24  26
ATOM     25  C   UNL     1       6.399   3.915  14.433  0.00  0.00    +0.000 C 
ATOM     26  C   UNL     1       6.000   4.664  15.720  0.00  0.00    +0.000 C 
ATOM     27  C   UNL     1       5.156   5.882  15.294  0.00  0.00    +0.000 C 
BRANCH  26  28
ATOM     28  C   UNL     1       7.261   5.157  16.438  0.00  0.00    +0.000 C 
ATOM     29  O   UNL     1       7.601   6.327  16.507  0.00  0.00    +0.000 OA
BRANCH  28  30
ATOM     30  O   UNL     1       8.003   4.180  17.004  0.00  0.00    +0.000 OA
ATOM     31  H   UNL     1       8.625   4.476  17.698  0.00  0.00    +0.000 HD
ENDBRANCH  28  30
ENDBRANCH  26  28
ENDBRANCH  24  26
ENDBRANCH  23  24
ENDBRANCH  17  23
ENDBRANCH   1  20
TORSDOF 7
ENDMDL
MODEL 8
REMARK VINA RESULT:      -7.7      4.897      9.014
REMARK  Name = 
REMARK  9 active torsions:
REMARK  status: ('A' for Active; 'I' for Inactive)
REMARK    1  A    between atoms: C_1  and  C_2
REMARK    2  A    between atoms: C_2  and  C_3
REMARK    3  A    between atoms: C_2  and  C_4
REMARK    4  A    between atoms: C_2  and  C_27
REMARK    5  A    between atoms: C_4  and  C_5
REMARK    6  A    between atoms: C_5  and  C_6
REMARK    7  A    between atoms: N_9  and  C_10
REMARK    8  A    between atoms: C_10  and  C_11
REMARK    9  A    between atoms: C_27  and  O_29
REMARK                            x       y       z     vdW  Elec       q    Type
REMARK                         _______ _______ _______ _____ _____    ______ ____
ROOT
ATOM      1  C   UNL     1       1.362   7.909  21.059  0.00  0.00    +0.000 C 
ENDROOT
BRANCH   1   2
ATOM      2  C   UNL     1       1.981   6.812  20.220  0.00  0.00    +0.000 A 
ATOM      3  C   UNL     1       1.759   5.472  20.561  0.00  0.00    +0.000 A 
ATOM      4  C   UNL     1       2.418   4.452  19.878  0.00  0.00    +0.000 A 
ATOM      5  C   UNL     1       3.295   4.750  18.827  0.00  0.00    +0.000 A 
ATOM      6  C   UNL     1       3.481   6.085  18.424  0.00  0.00    +0.000 A 
ATOM      7  C   UNL     1       2.835   7.106  19.142  0.00  0.00    +0.000 A 
ATOM      8  N   UNL     1       4.325   6.417  17.359  0.00  0.00    +0.000 N 
ATOM      9  C   UNL     1       4.986   5.534  16.502  0.00  0.00    +0.000 A 
ATOM     10  N   UNL     1       5.618   6.085  15.432  0.00  0.00    +0.000 NA
ATOM     11  C   UNL     1       6.251   5.221  14.607  0.00  0.00    +0.000 A 
ATOM     12  C   UNL     1       6.277   3.856  14.831  0.00  0.00    +0.000 A 
ATOM     13  N   UNL     1       5.659   3.291  15.885  0.00  0.00    +0.000 NA
ATOM     14  C   UNL     1       5.005   4.145  16.718  0.00  0.00    +0.000 A 
ATOM     15  S   UNL     1       4.158   3.376  18.077  0.00  0.00    +0.000 S 
ATOM     16  H   UNL     1       4.360   7.374  17.034  0.00  0.00    +0.000 HD
ENDBRANCH   1   2
BRANCH   1  20
ATOM     17  C   UNL     1      -0.114  11.637  19.448  0.00  0.00    +0.000 C 
ATOM     18  C   UNL     1       0.586  10.639  18.510  0.00  0.00    +0.000 C 
ATOM     19  C   UNL     1       0.730   9.237  19.118  0.00  0.00    +0.000 C 
ATOM     20  N   UNL     1       1.366   9.252  20.448  0.00  0.00    +0.000 NA
ATOM     21  C   UNL     1       0.680  10.182  21.363  0.00  0.00    +0.000 C 
ATOM     22  C   UNL     1       0.623  11.598  20.792  0.00  0.00    +0.000 C 
BRANCH  17  23
ATOM     23  C   UNL     1      -1.633  11.353  19.559  0.00  0.00    +0.000 C 
BRANCH  23  24
ATOM     24  C   UNL     1      -2.460  12.057  18.464  0.00  0.00    +0.000 C 
BRANCH  24  26
ATOM     25  C   UNL     1      -2.653  11.274  16.056  0.00  0.00    +0.000 C 
ATOM     26  C   UNL     1      -3.211  11.118  17.485  0.00  0.00    +0.000 C 
ATOM     27  C   UNL     1      -2.988   9.651  17.903  0.00  0.00    +0.000 C 
BRANCH  26  28
ATOM     28  C   UNL     1      -4.714  11.414  17.484  0.00  0.00    +0.000 C 
ATOM     29  O   UNL     1      -5.548  10.747  18.074  0.00  0.00    +0.000 OA
BRANCH  28  30
ATOM     30  O   UNL     1      -5.072  12.494  16.755  0.00  0.00    +0.000 OA
ATOM     31  H   UNL     1      -5.440  13.242  17.267  0.00  0.00    +0.000 HD
ENDBRANCH  28  30
ENDBRANCH  26  28
ENDBRANCH  24  26
ENDBRANCH  23  24
ENDBRANCH  17  23
ENDBRANCH   1  20
TORSDOF 7
ENDMDL
MODEL 9
REMARK VINA RESULT:      -7.7      2.289      3.275
REMARK  Name = 
REMARK  9 active torsions:
REMARK  status: ('A' for Active; 'I' for Inactive)
REMARK    1  A    between atoms: C_1  and  C_2
REMARK    2  A    between atoms: C_2  and  C_3
REMARK    3  A    between atoms: C_2  and  C_4
REMARK    4  A    between atoms: C_2  and  C_27
REMARK    5  A    between atoms: C_4  and  C_5
REMARK    6  A    between atoms: C_5  and  C_6
REMARK    7  A    between atoms: N_9  and  C_10
REMARK    8  A    between atoms: C_10  and  C_11
REMARK    9  A    between atoms: C_27  and  O_29
REMARK                            x       y       z     vdW  Elec       q    Type
REMARK                         _______ _______ _______ _____ _____    ______ ____
ROOT
ATOM      1  C   UNL     1       1.988   7.665  20.832  0.00  0.00    +0.000 C 
ENDROOT
BRANCH   1   2
ATOM      2  C   UNL     1       1.040   8.835  20.668  0.00  0.00    +0.000 A 
ATOM      3  C   UNL     1       1.020   9.543  19.460  0.00  0.00    +0.000 A 
ATOM      4  C   UNL     1       0.247  10.695  19.331  0.00  0.00    +0.000 A 
ATOM      5  C   UNL     1      -0.537  11.150  20.399  0.00  0.00    +0.000 A 
ATOM      6  C   UNL     1      -0.582  10.415  21.599  0.00  0.00    +0.000 A 
ATOM      7  C   UNL     1       0.226   9.273  21.726  0.00  0.00    +0.000 A 
ATOM      8  N   UNL     1      -1.378  10.823  22.676  0.00  0.00    +0.000 N 
ATOM      9  C   UNL     1      -2.285  11.885  22.698  0.00  0.00    +0.000 A 
ATOM     10  N   UNL     1      -3.073  11.988  23.802  0.00  0.00    +0.000 NA
ATOM     11  C   UNL     1      -3.950  13.016  23.811  0.00  0.00    +0.000 A 
ATOM     12  C   UNL     1      -4.045  13.927  22.774  0.00  0.00    +0.000 A 
ATOM     13  N   UNL     1      -3.274  13.843  21.673  0.00  0.00    +0.000 NA
ATOM     14  C   UNL     1      -2.396  12.806  21.641  0.00  0.00    +0.000 A 
ATOM     15  S   UNL     1      -1.420  12.685  20.162  0.00  0.00    +0.000 S 
ATOM     16  H   UNL     1      -1.462  10.222  23.485  0.00  0.00    +0.000 HD
ENDBRANCH   1   2
BRANCH   1  20
ATOM     17  C   UNL     1       2.656   4.032  18.589  0.00  0.00    +0.000 C 
ATOM     18  C   UNL     1       2.329   5.331  17.833  0.00  0.00    +0.000 C 
ATOM     19  C   UNL     1       2.473   6.589  18.702  0.00  0.00    +0.000 C 
ATOM     20  N   UNL     1       1.715   6.503  19.964  0.00  0.00    +0.000 NA
ATOM     21  C   UNL     1       2.048   5.277  20.711  0.00  0.00    +0.000 C 
ATOM     22  C   UNL     1       1.814   4.022  19.871  0.00  0.00    +0.000 C 
BRANCH  17  23
ATOM     23  C   UNL     1       4.177   3.881  18.840  0.00  0.00    +0.000 C 
BRANCH  23  24
ATOM     24  C   UNL     1       5.027   4.161  17.584  0.00  0.00    +0.000 C 
BRANCH  24  26
ATOM     25  C   UNL     1       6.315   5.570  19.258  0.00  0.00    +0.000 C 
ATOM     26  C   UNL     1       6.199   5.156  17.777  0.00  0.00    +0.000 C 
ATOM     27  C   UNL     1       7.527   4.474  17.391  0.00  0.00    +0.000 C 
BRANCH  26  28
ATOM     28  C   UNL     1       6.009   6.404  16.909  0.00  0.00    +0.000 C 
ATOM     29  O   UNL     1       6.632   7.444  17.052  0.00  0.00    +0.000 OA
BRANCH  28  30
ATOM     30  O   UNL     1       5.068   6.280  15.947  0.00  0.00    +0.000 OA
ATOM     31  H   UNL     1       4.365   5.626  16.131  0.00  0.00    +0.000 HD
ENDBRANCH  28  30
ENDBRANCH  26  28
ENDBRANCH  24  26
ENDBRANCH  23  24
ENDBRANCH  17  23
ENDBRANCH   1  20
TORSDOF 7
ENDMDL
