MODEL 1
REMARK VINA RESULT:      -6.7      0.000      0.000
REMARK  Name = 
REMARK  1 active torsions:
REMARK  status: ('A' for Active; 'I' for Inactive)
REMARK    1  A    between atoms: C_1  and  S_2
REMARK                            x       y       z     vdW  Elec       q    Type
REMARK                         _______ _______ _______ _____ _____    ______ ____
ROOT
ATOM      1  C   UNL     1       2.298   7.362  18.604  0.00  0.00    +0.000 C 
ATOM      2  S   UNL     1       3.457   6.180  19.324  0.00  0.00    +0.000 S 
ATOM      3  C   UNL     1       4.312   5.692  17.806  0.00  0.00    +0.000 A 
ATOM      4  C   UNL     1       5.308   6.446  17.198  0.00  0.00    +0.000 A 
ATOM      5  C   UNL     1       5.945   5.922  16.073  0.00  0.00    +0.000 A 
ATOM      6  C   UNL     1       5.588   4.662  15.576  0.00  0.00    +0.000 A 
ATOM      7  C   UNL     1       4.574   3.915  16.189  0.00  0.00    +0.000 A 
ATOM      8  C   UNL     1       3.930   4.434  17.309  0.00  0.00    +0.000 A 
ATOM      9  C   UNL     1       2.851   3.848  18.087  0.00  0.00    +0.000 A 
ATOM     10  C   UNL     1       2.207   2.629  17.901  0.00  0.00    +0.000 A 
ATOM     11  C   UNL     1       1.169   2.264  18.767  0.00  0.00    +0.000 A 
ATOM     12  C   UNL     1       0.773   3.117  19.806  0.00  0.00    +0.000 A 
ATOM     13  C   UNL     1       1.418   4.338  20.003  0.00  0.00    +0.000 A 
ATOM     14  C   UNL     1       2.454   4.685  19.146  0.00  0.00    +0.000 A 
ENDROOT
TORSDOF 0
ENDMDL
MODEL 2
REMARK VINA RESULT:      -6.6      1.317      4.842
REMARK  Name = 
REMARK  1 active torsions:
REMARK  status: ('A' for Active; 'I' for Inactive)
REMARK    1  A    between atoms: C_1  and  S_2
REMARK                            x       y       z     vdW  Elec       q    Type
REMARK                         _______ _______ _______ _____ _____    ______ ____
ROOT
ATOM      1  C   UNL     1       2.542   2.362  17.617  0.00  0.00    +0.000 C 
ATOM      2  S   UNL     1       3.914   3.109  18.522  0.00  0.00    +0.000 S 
ATOM      3  C   UNL     1       3.035   4.535  19.204  0.00  0.00    +0.000 A 
ATOM      4  C   UNL     1       2.205   4.477  20.316  0.00  0.00    +0.000 A 
ATOM      5  C   UNL     1       1.646   5.664  20.791  0.00  0.00    +0.000 A 
ATOM      6  C   UNL     1       1.922   6.883  20.159  0.00  0.00    +0.000 A 
ATOM      7  C   UNL     1       2.751   6.929  19.030  0.00  0.00    +0.000 A 
ATOM      8  C   UNL     1       3.307   5.747  18.548  0.00  0.00    +0.000 A 
ATOM      9  C   UNL     1       4.173   5.557  17.395  0.00  0.00    +0.000 A 
ATOM     10  C   UNL     1       4.652   6.510  16.501  0.00  0.00    +0.000 A 
ATOM     11  C   UNL     1       5.467   6.101  15.438  0.00  0.00    +0.000 A 
ATOM     12  C   UNL     1       5.792   4.749  15.266  0.00  0.00    +0.000 A 
ATOM     13  C   UNL     1       5.320   3.789  16.162  0.00  0.00    +0.000 A 
ATOM     14  C   UNL     1       4.523   4.206  17.219  0.00  0.00    +0.000 A 
ENDROOT
TORSDOF 0
ENDMDL
MODEL 3
REMARK VINA RESULT:      -6.5      1.411      2.813
REMARK  Name = 
REMARK  1 active torsions:
REMARK  status: ('A' for Active; 'I' for Inactive)
REMARK    1  A    between atoms: C_1  and  S_2
REMARK                            x       y       z     vdW  Elec       q    Type
REMARK                         _______ _______ _______ _____ _____    ______ ____
ROOT
ATOM      1  C   UNL     1       3.875   1.721  18.228  0.00  0.00    +0.000 C 
ATOM      2  S   UNL     1       2.803   2.860  17.326  0.00  0.00    +0.000 S 
ATOM      3  C   UNL     1       4.032   4.133  16.946  0.00  0.00    +0.000 A 
ATOM      4  C   UNL     1       4.958   4.036  15.916  0.00  0.00    +0.000 A 
ATOM      5  C   UNL     1       5.801   5.121  15.677  0.00  0.00    +0.000 A 
ATOM      6  C   UNL     1       5.708   6.281  16.457  0.00  0.00    +0.000 A 
ATOM      7  C   UNL     1       4.778   6.364  17.502  0.00  0.00    +0.000 A 
ATOM      8  C   UNL     1       3.937   5.282  17.750  0.00  0.00    +0.000 A 
ATOM      9  C   UNL     1       2.921   5.142  18.780  0.00  0.00    +0.000 A 
ATOM     10  C   UNL     1       2.544   6.055  19.761  0.00  0.00    +0.000 A 
ATOM     11  C   UNL     1       1.542   5.704  20.673  0.00  0.00    +0.000 A 
ATOM     12  C   UNL     1       0.928   4.445  20.611  0.00  0.00    +0.000 A 
ATOM     13  C   UNL     1       1.296   3.527  19.627  0.00  0.00    +0.000 A 
ATOM     14  C   UNL     1       2.282   3.890  18.720  0.00  0.00    +0.000 A 
ENDROOT
TORSDOF 0
ENDMDL
MODEL 4
REMARK VINA RESULT:      -6.4      1.575      3.002
REMARK  Name = 
REMARK  1 active torsions:
REMARK  status: ('A' for Active; 'I' for Inactive)
REMARK    1  A    between atoms: C_1  and  S_2
REMARK                            x       y       z     vdW  Elec       q    Type
REMARK                         _______ _______ _______ _____ _____    ______ ____
ROOT
ATOM      1  C   UNL     1       4.404   2.819  19.553  0.00  0.00    +0.000 C 
ATOM      2  S   UNL     1       3.099   3.320  18.409  0.00  0.00    +0.000 S 
ATOM      3  C   UNL     1       4.102   4.330  17.292  0.00  0.00    +0.000 A 
ATOM      4  C   UNL     1       4.913   3.810  16.292  0.00  0.00    +0.000 A 
ATOM      5  C   UNL     1       5.576   4.699  15.445  0.00  0.00    +0.000 A 
ATOM      6  C   UNL     1       5.419   6.082  15.602  0.00  0.00    +0.000 A 
ATOM      7  C   UNL     1       4.608   6.596  16.622  0.00  0.00    +0.000 A 
ATOM      8  C   UNL     1       3.948   5.715  17.474  0.00  0.00    +0.000 A 
ATOM      9  C   UNL     1       3.079   6.021  18.598  0.00  0.00    +0.000 A 
ATOM     10  C   UNL     1       2.698   7.266  19.090  0.00  0.00    +0.000 A 
ATOM     11  C   UNL     1       1.857   7.333  20.207  0.00  0.00    +0.000 A 
ATOM     12  C   UNL     1       1.409   6.162  20.835  0.00  0.00    +0.000 A 
ATOM     13  C   UNL     1       1.783   4.910  20.344  0.00  0.00    +0.000 A 
ATOM     14  C   UNL     1       2.606   4.856  19.229  0.00  0.00    +0.000 A 
ENDROOT
TORSDOF 0
ENDMDL
MODEL 5
REMARK VINA RESULT:      -6.2      1.587      4.698
REMARK  Name = 
REMARK  1 active torsions:
REMARK  status: ('A' for Active; 'I' for Inactive)
REMARK    1  A    between atoms: C_1  and  S_2
REMARK                            x       y       z     vdW  Elec       q    Type
REMARK                         _______ _______ _______ _____ _____    ______ ____
ROOT
ATOM      1  C   UNL     1       3.220   2.720  18.307  0.00  0.00    +0.000 C 
ATOM      2  S   UNL     1       4.551   3.836  18.798  0.00  0.00    +0.000 S 
ATOM      3  C   UNL     1       3.601   5.375  18.842  0.00  0.00    +0.000 A 
ATOM      4  C   UNL     1       2.770   5.746  19.893  0.00  0.00    +0.000 A 
ATOM      5  C   UNL     1       2.153   6.996  19.842  0.00  0.00    +0.000 A 
ATOM      6  C   UNL     1       2.372   7.854  18.757  0.00  0.00    +0.000 A 
ATOM      7  C   UNL     1       3.202   7.466  17.697  0.00  0.00    +0.000 A 
ATOM      8  C   UNL     1       3.817   6.218  17.739  0.00  0.00    +0.000 A 
ATOM      9  C   UNL     1       4.695   5.606  16.754  0.00  0.00    +0.000 A 
ATOM     10  C   UNL     1       5.131   6.123  15.537  0.00  0.00    +0.000 A 
ATOM     11  C   UNL     1       5.969   5.348  14.726  0.00  0.00    +0.000 A 
ATOM     12  C   UNL     1       6.360   4.063  15.125  0.00  0.00    +0.000 A 
ATOM     13  C   UNL     1       5.932   3.540  16.346  0.00  0.00    +0.000 A 
ATOM     14  C   UNL     1       5.111   4.321  17.148  0.00  0.00    +0.000 A 
ENDROOT
TORSDOF 0
ENDMDL
MODEL 6
REMARK VINA RESULT:      -6.2      1.823      4.857
REMARK  Name = 
REMARK  1 active torsions:
REMARK  status: ('A' for Active; 'I' for Inactive)
REMARK    1  A    between atoms: C_1  and  S_2
REMARK                            x       y       z     vdW  Elec       q    Type
REMARK                         _______ _______ _______ _____ _____    ______ ____
ROOT
ATOM      1  C   UNL     1       4.250   3.532  17.011  0.00  0.00    +0.000 C 
ATOM      2  S   UNL     1       4.902   4.425  18.439  0.00  0.00    +0.000 S 
ATOM      3  C   UNL     1       3.723   3.836  19.678  0.00  0.00    +0.000 A 
ATOM      4  C   UNL     1       3.801   2.594  20.297  0.00  0.00    +0.000 A 
ATOM      5  C   UNL     1       2.875   2.290  21.294  0.00  0.00    +0.000 A 
ATOM      6  C   UNL     1       1.895   3.220  21.663  0.00  0.00    +0.000 A 
ATOM      7  C   UNL     1       1.817   4.465  21.025  0.00  0.00    +0.000 A 
ATOM      8  C   UNL     1       2.735   4.773  20.024  0.00  0.00    +0.000 A 
ATOM      9  C   UNL     1       2.831   5.983  19.224  0.00  0.00    +0.000 A 
ATOM     10  C   UNL     1       2.032   7.121  19.269  0.00  0.00    +0.000 A 
ATOM     11  C   UNL     1       2.293   8.176  18.386  0.00  0.00    +0.000 A 
ATOM     12  C   UNL     1       3.340   8.088  17.458  0.00  0.00    +0.000 A 
ATOM     13  C   UNL     1       4.150   6.952  17.412  0.00  0.00    +0.000 A 
ATOM     14  C   UNL     1       3.890   5.918  18.299  0.00  0.00    +0.000 A 
ENDROOT
TORSDOF 0
ENDMDL
MODEL 7
REMARK VINA RESULT:      -6.1      1.658      4.650
REMARK  Name = 
REMARK  1 active torsions:
REMARK  status: ('A' for Active; 'I' for Inactive)
REMARK    1  A    between atoms: C_1  and  S_2
REMARK                            x       y       z     vdW  Elec       q    Type
REMARK                         _______ _______ _______ _____ _____    ______ ____
ROOT
ATOM      1  C   UNL     1       2.269   7.488  19.457  0.00  0.00    +0.000 C 
ATOM      2  S   UNL     1       2.222   6.109  18.292  0.00  0.00    +0.000 S 
ATOM      3  C   UNL     1       2.269   4.752  19.488  0.00  0.00    +0.000 A 
ATOM      4  C   UNL     1       1.165   4.310  20.206  0.00  0.00    +0.000 A 
ATOM      5  C   UNL     1       1.315   3.202  21.041  0.00  0.00    +0.000 A 
ATOM      6  C   UNL     1       2.552   2.552  21.145  0.00  0.00    +0.000 A 
ATOM      7  C   UNL     1       3.662   3.013  20.426  0.00  0.00    +0.000 A 
ATOM      8  C   UNL     1       3.521   4.122  19.595  0.00  0.00    +0.000 A 
ATOM      9  C   UNL     1       4.529   4.777  18.778  0.00  0.00    +0.000 A 
ATOM     10  C   UNL     1       5.874   4.451  18.629  0.00  0.00    +0.000 A 
ATOM     11  C   UNL     1       6.680   5.236  17.795  0.00  0.00    +0.000 A 
ATOM     12  C   UNL     1       6.146   6.344  17.123  0.00  0.00    +0.000 A 
ATOM     13  C   UNL     1       4.797   6.673  17.262  0.00  0.00    +0.000 A 
ATOM     14  C   UNL     1       4.005   5.881  18.082  0.00  0.00    +0.000 A 
ENDROOT
TORSDOF 0
ENDMDL
MODEL 8
REMARK VINA RESULT:      -6.1      2.146      3.369
REMARK  Name = 
REMARK  1 active torsions:
REMARK  status: ('A' for Active; 'I' for Inactive)
REMARK    1  A    between atoms: C_1  and  S_2
REMARK                            x       y       z     vdW  Elec       q    Type
REMARK                         _______ _______ _______ _____ _____    ______ ____
ROOT
ATOM      1  C   UNL     1       6.112   4.781  18.943  0.00  0.00    +0.000 C 
ATOM      2  S   UNL     1       4.564   4.343  18.123  0.00  0.00    +0.000 S 
ATOM      3  C   UNL     1       3.743   5.951  18.233  0.00  0.00    +0.000 A 
ATOM      4  C   UNL     1       4.006   7.017  17.381  0.00  0.00    +0.000 A 
ATOM      5  C   UNL     1       3.248   8.180  17.521  0.00  0.00    +0.000 A 
ATOM      6  C   UNL     1       2.245   8.264  18.495  0.00  0.00    +0.000 A 
ATOM      7  C   UNL     1       1.996   7.187  19.356  0.00  0.00    +0.000 A 
ATOM      8  C   UNL     1       2.753   6.025  19.227  0.00  0.00    +0.000 A 
ATOM      9  C   UNL     1       2.681   4.805  20.013  0.00  0.00    +0.000 A 
ATOM     10  C   UNL     1       1.839   4.505  21.080  0.00  0.00    +0.000 A 
ATOM     11  C   UNL     1       1.953   3.262  21.713  0.00  0.00    +0.000 A 
ATOM     12  C   UNL     1       2.907   2.328  21.287  0.00  0.00    +0.000 A 
ATOM     13  C   UNL     1       3.751   2.618  20.214  0.00  0.00    +0.000 A 
ATOM     14  C   UNL     1       3.622   3.849  19.587  0.00  0.00    +0.000 A 
ENDROOT
TORSDOF 0
ENDMDL
MODEL 9
REMARK VINA RESULT:      -6.1      1.346      4.673
REMARK  Name = 
REMARK  1 active torsions:
REMARK  status: ('A' for Active; 'I' for Inactive)
REMARK    1  A    between atoms: C_1  and  S_2
REMARK                            x       y       z     vdW  Elec       q    Type
REMARK                         _______ _______ _______ _____ _____    ______ ____
ROOT
ATOM      1  C   UNL     1       6.460   5.381  19.313  0.00  0.00    +0.000 C 
ATOM      2  S   UNL     1       5.369   6.232  18.152  0.00  0.00    +0.000 S 
ATOM      3  C   UNL     1       3.935   5.138  18.288  0.00  0.00    +0.000 A 
ATOM      4  C   UNL     1       3.020   5.183  19.333  0.00  0.00    +0.000 A 
ATOM      5  C   UNL     1       1.911   4.337  19.281  0.00  0.00    +0.000 A 
ATOM      6  C   UNL     1       1.729   3.468  18.197  0.00  0.00    +0.000 A 
ATOM      7  C   UNL     1       2.664   3.422  17.155  0.00  0.00    +0.000 A 
ATOM      8  C   UNL     1       3.775   4.260  17.203  0.00  0.00    +0.000 A 
ATOM      9  C   UNL     1       4.870   4.368  16.252  0.00  0.00    +0.000 A 
ATOM     10  C   UNL     1       5.067   3.664  15.068  0.00  0.00    +0.000 A 
ATOM     11  C   UNL     1       6.213   3.917  14.305  0.00  0.00    +0.000 A 
ATOM     12  C   UNL     1       7.160   4.860  14.727  0.00  0.00    +0.000 A 
ATOM     13  C   UNL     1       6.966   5.574  15.910  0.00  0.00    +0.000 A 
ATOM     14  C   UNL     1       5.820   5.325  16.653  0.00  0.00    +0.000 A 
ENDROOT
TORSDOF 0
ENDMDL
