MODEL 1
REMARK VINA RESULT:      -7.9      0.000      0.000
REMARK  Name = 
REMARK  5 active torsions:
REMARK  status: ('A' for Active; 'I' for Inactive)
REMARK    1  A    between atoms: C_2  and  O_3
REMARK    2  A    between atoms: C_2  and  C_4
REMARK    3  A    between atoms: C_13  and  O_14
REMARK    4  A    between atoms: O_14  and  C_15
REMARK    5  A    between atoms: C_15  and  C_16
REMARK                            x       y       z     vdW  Elec       q    Type
REMARK                         _______ _______ _______ _____ _____    ______ ____
ROOT
ATOM      1  C   UNL     1       6.379   4.853  16.008  0.00  0.00    +0.000 A 
ATOM      2  C   UNL     1       6.866   5.934  16.737  0.00  0.00    +0.000 A 
ATOM      3  C   UNL     1       6.325   6.165  17.986  0.00  0.00    +0.000 A 
ATOM      4  N   UNL     1       5.343   5.412  18.529  0.00  0.00    +0.000 NA
ATOM      5  C   UNL     1       4.891   4.348  17.818  0.00  0.00    +0.000 A 
ATOM      6  N   UNL     1       3.844   3.522  18.351  0.00  0.00    +0.000 N 
ATOM      7  N   UNL     1       3.446   2.401  17.667  0.00  0.00    +0.000 NA
ATOM      8  C   UNL     1       2.514   1.850  18.438  0.00  0.00    +0.000 A 
ATOM      9  C   UNL     1       2.264   2.594  19.596  0.00  0.00    +0.000 A 
ATOM     10  C   UNL     1       3.112   3.684  19.530  0.00  0.00    +0.000 A 
ATOM     11  C   UNL     1       5.406   4.023  16.562  0.00  0.00    +0.000 A 
ENDROOT
BRANCH   1  13
ATOM     12  O   UNL     1       7.751   5.355  14.141  0.00  0.00    +0.000 OA
ATOM     13  C   UNL     1       6.942   4.606  14.660  0.00  0.00    +0.000 C 
BRANCH  13  14
ATOM     14  O   UNL     1       6.430   3.524  14.037  0.00  0.00    +0.000 OA
ATOM     15  H   UNL     1       6.765   2.658  14.335  0.00  0.00    +0.000 HD
ENDBRANCH  13  14
ENDBRANCH   1  13
BRANCH  10  16
ATOM     16  O   UNL     1       3.273   4.749  20.330  0.00  0.00    +0.000 OA
BRANCH  16  17
ATOM     17  C   UNL     1       2.070   5.367  20.795  0.00  0.00    +0.000 C 
BRANCH  17  18
ATOM     18  C   UNL     1       1.891   6.765  20.243  0.00  0.00    +0.000 A 
ATOM     19  C   UNL     1       2.310   7.038  18.929  0.00  0.00    +0.000 A 
ATOM     20  C   UNL     1       2.123   8.303  18.366  0.00  0.00    +0.000 A 
ATOM     21  C   UNL     1       1.506   9.303  19.112  0.00  0.00    +0.000 A 
ATOM     22 CL   UNL     1       1.265  10.858  18.417  0.00  0.00    +0.000 Cl
ATOM     23  C   UNL     1       1.076   9.048  20.413  0.00  0.00    +0.000 A 
ATOM     24  C   UNL     1       1.263   7.783  20.975  0.00  0.00    +0.000 A 
ENDBRANCH  17  18
ENDBRANCH  16  17
ENDBRANCH  10  16
TORSDOF 5
ENDMDL
MODEL 2
REMARK VINA RESULT:      -7.8      0.196      1.222
REMARK  Name = 
REMARK  5 active torsions:
REMARK  status: ('A' for Active; 'I' for Inactive)
REMARK    1  A    between atoms: C_2  and  O_3
REMARK    2  A    between atoms: C_2  and  C_4
REMARK    3  A    between atoms: C_13  and  O_14
REMARK    4  A    between atoms: O_14  and  C_15
REMARK    5  A    between atoms: C_15  and  C_16
REMARK                            x       y       z     vdW  Elec       q    Type
REMARK                         _______ _______ _______ _____ _____    ______ ____
ROOT
ATOM      1  C   UNL     1       6.296   4.929  15.816  0.00  0.00    +0.000 A 
ATOM      2  C   UNL     1       6.726   6.076  16.478  0.00  0.00    +0.000 A 
ATOM      3  C   UNL     1       6.217   6.323  17.737  0.00  0.00    +0.000 A 
ATOM      4  N   UNL     1       5.318   5.523  18.353  0.00  0.00    +0.000 NA
ATOM      5  C   UNL     1       4.923   4.396  17.707  0.00  0.00    +0.000 A 
ATOM      6  N   UNL     1       3.965   3.519  18.319  0.00  0.00    +0.000 N 
ATOM      7  N   UNL     1       3.629   2.341  17.701  0.00  0.00    +0.000 NA
ATOM      8  C   UNL     1       2.773   1.756  18.534  0.00  0.00    +0.000 A 
ATOM      9  C   UNL     1       2.511   2.532  19.668  0.00  0.00    +0.000 A 
ATOM     10  C   UNL     1       3.268   3.678  19.520  0.00  0.00    +0.000 A 
ATOM     11  C   UNL     1       5.413   4.054  16.446  0.00  0.00    +0.000 A 
ENDROOT
BRANCH   1  13
ATOM     12  O   UNL     1       6.392   3.771  13.750  0.00  0.00    +0.000 OA
ATOM     13  C   UNL     1       6.824   4.664  14.458  0.00  0.00    +0.000 C 
BRANCH  13  14
ATOM     14  O   UNL     1       7.865   5.448  14.106  0.00  0.00    +0.000 OA
ATOM     15  H   UNL     1       8.739   5.179  14.443  0.00  0.00    +0.000 HD
ENDBRANCH  13  14
ENDBRANCH   1  13
BRANCH  10  16
ATOM     16  O   UNL     1       3.378   4.788  20.266  0.00  0.00    +0.000 OA
BRANCH  16  17
ATOM     17  C   UNL     1       2.146   5.358  20.718  0.00  0.00    +0.000 C 
BRANCH  17  18
ATOM     18  C   UNL     1       1.897   6.731  20.130  0.00  0.00    +0.000 A 
ATOM     19  C   UNL     1       1.275   7.710  20.925  0.00  0.00    +0.000 A 
ATOM     20  C   UNL     1       1.066   9.002  20.437  0.00  0.00    +0.000 A 
ATOM     21  C   UNL     1       1.486   9.328  19.151  0.00  0.00    +0.000 A 
ATOM     22 CL   UNL     1       1.239  10.921  18.551  0.00  0.00    +0.000 Cl
ATOM     23  C   UNL     1       2.113   8.373  18.351  0.00  0.00    +0.000 A 
ATOM     24  C   UNL     1       2.322   7.081  18.841  0.00  0.00    +0.000 A 
ENDBRANCH  17  18
ENDBRANCH  16  17
ENDBRANCH  10  16
TORSDOF 5
ENDMDL
MODEL 3
REMARK VINA RESULT:      -7.6      2.750      6.105
REMARK  Name = 
REMARK  5 active torsions:
REMARK  status: ('A' for Active; 'I' for Inactive)
REMARK    1  A    between atoms: C_2  and  O_3
REMARK    2  A    between atoms: C_2  and  C_4
REMARK    3  A    between atoms: C_13  and  O_14
REMARK    4  A    between atoms: O_14  and  C_15
REMARK    5  A    between atoms: C_15  and  C_16
REMARK                            x       y       z     vdW  Elec       q    Type
REMARK                         _______ _______ _______ _____ _____    ______ ____
ROOT
ATOM      1  C   UNL     1       1.528   8.223  20.555  0.00  0.00    +0.000 A 
ATOM      2  C   UNL     1       1.725   8.744  19.279  0.00  0.00    +0.000 A 
ATOM      3  C   UNL     1       2.173   7.886  18.294  0.00  0.00    +0.000 A 
ATOM      4  N   UNL     1       2.444   6.579  18.504  0.00  0.00    +0.000 NA
ATOM      5  C   UNL     1       2.228   6.077  19.747  0.00  0.00    +0.000 A 
ATOM      6  N   UNL     1       2.507   4.695  20.019  0.00  0.00    +0.000 N 
ATOM      7  N   UNL     1       2.213   4.171  21.253  0.00  0.00    +0.000 NA
ATOM      8  C   UNL     1       2.544   2.887  21.161  0.00  0.00    +0.000 A 
ATOM      9  C   UNL     1       3.080   2.557  19.912  0.00  0.00    +0.000 A 
ATOM     10  C   UNL     1       3.072   3.730  19.180  0.00  0.00    +0.000 A 
ATOM     11  C   UNL     1       1.745   6.866  20.791  0.00  0.00    +0.000 A 
ENDROOT
BRANCH   1  13
ATOM     12  O   UNL     1       0.011   9.749  21.549  0.00  0.00    +0.000 OA
ATOM     13  C   UNL     1       1.063   9.138  21.623  0.00  0.00    +0.000 C 
BRANCH  13  14
ATOM     14  O   UNL     1       1.934   9.286  22.643  0.00  0.00    +0.000 OA
ATOM     15  H   UNL     1       1.603   9.766  23.424  0.00  0.00    +0.000 HD
ENDBRANCH  13  14
ENDBRANCH   1  13
BRANCH  10  16
ATOM     16  O   UNL     1       3.510   4.026  17.947  0.00  0.00    +0.000 OA
BRANCH  16  17
ATOM     17  C   UNL     1       4.878   3.708  17.679  0.00  0.00    +0.000 C 
BRANCH  17  18
ATOM     18  C   UNL     1       5.772   4.929  17.726  0.00  0.00    +0.000 A 
ATOM     19  C   UNL     1       5.424   6.058  16.963  0.00  0.00    +0.000 A 
ATOM     20  C   UNL     1       6.197   7.221  17.011  0.00  0.00    +0.000 A 
ATOM     21  C   UNL     1       7.321   7.266  17.829  0.00  0.00    +0.000 A 
ATOM     22 CL   UNL     1       8.269   8.700  17.898  0.00  0.00    +0.000 Cl
ATOM     23  C   UNL     1       7.677   6.159  18.600  0.00  0.00    +0.000 A 
ATOM     24  C   UNL     1       6.903   4.997  18.551  0.00  0.00    +0.000 A 
ENDBRANCH  17  18
ENDBRANCH  16  17
ENDBRANCH  10  16
TORSDOF 5
ENDMDL
MODEL 4
REMARK VINA RESULT:      -7.5      2.776      6.090
REMARK  Name = 
REMARK  5 active torsions:
REMARK  status: ('A' for Active; 'I' for Inactive)
REMARK    1  A    between atoms: C_2  and  O_3
REMARK    2  A    between atoms: C_2  and  C_4
REMARK    3  A    between atoms: C_13  and  O_14
REMARK    4  A    between atoms: O_14  and  C_15
REMARK    5  A    between atoms: C_15  and  C_16
REMARK                            x       y       z     vdW  Elec       q    Type
REMARK                         _______ _______ _______ _____ _____    ______ ____
ROOT
ATOM      1  C   UNL     1       1.449   8.011  20.721  0.00  0.00    +0.000 A 
ATOM      2  C   UNL     1       1.839   8.637  19.541  0.00  0.00    +0.000 A 
ATOM      3  C   UNL     1       2.265   7.839  18.497  0.00  0.00    +0.000 A 
ATOM      4  N   UNL     1       2.337   6.491  18.566  0.00  0.00    +0.000 NA
ATOM      5  C   UNL     1       1.934   5.890  19.714  0.00  0.00    +0.000 A 
ATOM      6  N   UNL     1       1.998   4.460  19.835  0.00  0.00    +0.000 N 
ATOM      7  N   UNL     1       1.514   3.850  20.965  0.00  0.00    +0.000 NA
ATOM      8  C   UNL     1       1.679   2.550  20.743  0.00  0.00    +0.000 A 
ATOM      9  C   UNL     1       2.289   2.288  19.511  0.00  0.00    +0.000 A 
ATOM     10  C   UNL     1       2.510   3.524  18.933  0.00  0.00    +0.000 A 
ATOM     11  C   UNL     1       1.458   6.619  20.804  0.00  0.00    +0.000 A 
ENDROOT
BRANCH   1  13
ATOM     12  O   UNL     1       1.785   9.493  22.540  0.00  0.00    +0.000 OA
ATOM     13  C   UNL     1       1.004   8.859  21.851  0.00  0.00    +0.000 C 
BRANCH  13  14
ATOM     14  O   UNL     1      -0.323   8.811  22.090  0.00  0.00    +0.000 OA
ATOM     15  H   UNL     1      -0.610   8.207  22.801  0.00  0.00    +0.000 HD
ENDBRANCH  13  14
ENDBRANCH   1  13
BRANCH  10  16
ATOM     16  O   UNL     1       3.105   3.889  17.787  0.00  0.00    +0.000 OA
BRANCH  16  17
ATOM     17  C   UNL     1       4.494   3.570  17.677  0.00  0.00    +0.000 C 
BRANCH  17  18
ATOM     18  C   UNL     1       5.371   4.803  17.693  0.00  0.00    +0.000 A 
ATOM     19  C   UNL     1       6.467   4.849  18.574  0.00  0.00    +0.000 A 
ATOM     20  C   UNL     1       7.328   5.949  18.591  0.00  0.00    +0.000 A 
ATOM     21  C   UNL     1       7.104   7.010  17.719  0.00  0.00    +0.000 A 
ATOM     22 CL   UNL     1       8.168   8.362  17.729  0.00  0.00    +0.000 Cl
ATOM     23  C   UNL     1       6.028   6.979  16.832  0.00  0.00    +0.000 A 
ATOM     24  C   UNL     1       5.168   5.877  16.816  0.00  0.00    +0.000 A 
ENDBRANCH  17  18
ENDBRANCH  16  17
ENDBRANCH  10  16
TORSDOF 5
ENDMDL
MODEL 5
REMARK VINA RESULT:      -7.5      2.677      5.983
REMARK  Name = 
REMARK  5 active torsions:
REMARK  status: ('A' for Active; 'I' for Inactive)
REMARK    1  A    between atoms: C_2  and  O_3
REMARK    2  A    between atoms: C_2  and  C_4
REMARK    3  A    between atoms: C_13  and  O_14
REMARK    4  A    between atoms: O_14  and  C_15
REMARK    5  A    between atoms: C_15  and  C_16
REMARK                            x       y       z     vdW  Elec       q    Type
REMARK                         _______ _______ _______ _____ _____    ______ ____
ROOT
ATOM      1  C   UNL     1       1.792   7.975  19.931  0.00  0.00    +0.000 A 
ATOM      2  C   UNL     1       1.955   8.565  18.680  0.00  0.00    +0.000 A 
ATOM      3  C   UNL     1       2.480   7.790  17.665  0.00  0.00    +0.000 A 
ATOM      4  N   UNL     1       2.857   6.502  17.824  0.00  0.00    +0.000 NA
ATOM      5  C   UNL     1       2.674   5.931  19.042  0.00  0.00    +0.000 A 
ATOM      6  N   UNL     1       3.065   4.567  19.259  0.00  0.00    +0.000 N 
ATOM      7  N   UNL     1       2.805   3.968  20.466  0.00  0.00    +0.000 NA
ATOM      8  C   UNL     1       3.242   2.721  20.325  0.00  0.00    +0.000 A 
ATOM      9  C   UNL     1       3.813   2.490  19.069  0.00  0.00    +0.000 A 
ATOM     10  C   UNL     1       3.714   3.688  18.387  0.00  0.00    +0.000 A 
ATOM     11  C   UNL     1       2.119   6.632  20.112  0.00  0.00    +0.000 A 
ENDROOT
BRANCH   1  13
ATOM     12  O   UNL     1       0.383   9.646  20.848  0.00  0.00    +0.000 OA
ATOM     13  C   UNL     1       1.244   8.803  21.030  0.00  0.00    +0.000 C 
BRANCH  13  14
ATOM     14  O   UNL     1       1.828   8.588  22.228  0.00  0.00    +0.000 OA
ATOM     15  H   UNL     1       2.188   9.375  22.677  0.00  0.00    +0.000 HD
ENDBRANCH  13  14
ENDBRANCH   1  13
BRANCH  10  16
ATOM     16  O   UNL     1       4.135   4.072  17.172  0.00  0.00    +0.000 OA
BRANCH  16  17
ATOM     17  C   UNL     1       5.541   3.959  16.937  0.00  0.00    +0.000 C 
BRANCH  17  18
ATOM     18  C   UNL     1       6.299   5.193  17.375  0.00  0.00    +0.000 A 
ATOM     19  C   UNL     1       7.224   5.087  18.430  0.00  0.00    +0.000 A 
ATOM     20  C   UNL     1       7.977   6.191  18.837  0.00  0.00    +0.000 A 
ATOM     21  C   UNL     1       7.816   7.410  18.186  0.00  0.00    +0.000 A 
ATOM     22 CL   UNL     1       8.749   8.769  18.678  0.00  0.00    +0.000 Cl
ATOM     23  C   UNL     1       6.910   7.533  17.132  0.00  0.00    +0.000 A 
ATOM     24  C   UNL     1       6.159   6.428  16.726  0.00  0.00    +0.000 A 
ENDBRANCH  17  18
ENDBRANCH  16  17
ENDBRANCH  10  16
TORSDOF 5
ENDMDL
MODEL 6
REMARK VINA RESULT:      -7.4      1.597      2.026
REMARK  Name = 
REMARK  5 active torsions:
REMARK  status: ('A' for Active; 'I' for Inactive)
REMARK    1  A    between atoms: C_2  and  O_3
REMARK    2  A    between atoms: C_2  and  C_4
REMARK    3  A    between atoms: C_13  and  O_14
REMARK    4  A    between atoms: O_14  and  C_15
REMARK    5  A    between atoms: C_15  and  C_16
REMARK                            x       y       z     vdW  Elec       q    Type
REMARK                         _______ _______ _______ _____ _____    ______ ____
ROOT
ATOM      1  C   UNL     1       6.244   5.229  15.734  0.00  0.00    +0.000 A 
ATOM      2  C   UNL     1       6.861   6.314  16.352  0.00  0.00    +0.000 A 
ATOM      3  C   UNL     1       6.253   6.850  17.470  0.00  0.00    +0.000 A 
ATOM      4  N   UNL     1       5.091   6.391  17.985  0.00  0.00    +0.000 NA
ATOM      5  C   UNL     1       4.510   5.319  17.387  0.00  0.00    +0.000 A 
ATOM      6  N   UNL     1       3.272   4.799  17.896  0.00  0.00    +0.000 N 
ATOM      7  N   UNL     1       2.730   3.668  17.340  0.00  0.00    +0.000 NA
ATOM      8  C   UNL     1       1.634   3.434  18.055  0.00  0.00    +0.000 A 
ATOM      9  C   UNL     1       1.421   4.399  19.045  0.00  0.00    +0.000 A 
ATOM     10  C   UNL     1       2.471   5.291  18.930  0.00  0.00    +0.000 A 
ATOM     11  C   UNL     1       5.074   4.696  16.274  0.00  0.00    +0.000 A 
ENDROOT
BRANCH   1  13
ATOM     12  O   UNL     1       7.747   5.243  13.901  0.00  0.00    +0.000 OA
ATOM     13  C   UNL     1       6.880   4.656  14.525  0.00  0.00    +0.000 C 
BRANCH  13  14
ATOM     14  O   UNL     1       6.368   3.468  14.142  0.00  0.00    +0.000 OA
ATOM     15  H   UNL     1       6.323   3.310  13.181  0.00  0.00    +0.000 HD
ENDBRANCH  13  14
ENDBRANCH   1  13
BRANCH  10  16
ATOM     16  O   UNL     1       2.760   6.431  19.575  0.00  0.00    +0.000 OA
BRANCH  16  17
ATOM     17  C   UNL     1       2.259   7.629  18.977  0.00  0.00    +0.000 C 
BRANCH  17  18
ATOM     18  C   UNL     1       1.493   8.487  19.960  0.00  0.00    +0.000 A 
ATOM     19  C   UNL     1       0.866   9.659  19.499  0.00  0.00    +0.000 A 
ATOM     20  C   UNL     1       0.113  10.457  20.364  0.00  0.00    +0.000 A 
ATOM     21  C   UNL     1      -0.026  10.083  21.697  0.00  0.00    +0.000 A 
ATOM     22 CL   UNL     1      -0.962  11.058  22.762  0.00  0.00    +0.000 Cl
ATOM     23  C   UNL     1       0.581   8.920  22.171  0.00  0.00    +0.000 A 
ATOM     24  C   UNL     1       1.333   8.123  21.305  0.00  0.00    +0.000 A 
ENDBRANCH  17  18
ENDBRANCH  16  17
ENDBRANCH  10  16
TORSDOF 5
ENDMDL
MODEL 7
REMARK VINA RESULT:      -7.4      3.758      7.200
REMARK  Name = 
REMARK  5 active torsions:
REMARK  status: ('A' for Active; 'I' for Inactive)
REMARK    1  A    between atoms: C_2  and  O_3
REMARK    2  A    between atoms: C_2  and  C_4
REMARK    3  A    between atoms: C_13  and  O_14
REMARK    4  A    between atoms: O_14  and  C_15
REMARK    5  A    between atoms: C_15  and  C_16
REMARK                            x       y       z     vdW  Elec       q    Type
REMARK                         _______ _______ _______ _____ _____    ______ ____
ROOT
ATOM      1  C   UNL     1       2.550   3.691  19.749  0.00  0.00    +0.000 A 
ATOM      2  C   UNL     1       1.898   3.599  18.523  0.00  0.00    +0.000 A 
ATOM      3  C   UNL     1       2.570   4.041  17.401  0.00  0.00    +0.000 A 
ATOM      4  N   UNL     1       3.814   4.570  17.431  0.00  0.00    +0.000 NA
ATOM      5  C   UNL     1       4.448   4.634  18.630  0.00  0.00    +0.000 A 
ATOM      6  N   UNL     1       5.768   5.193  18.712  0.00  0.00    +0.000 N 
ATOM      7  N   UNL     1       6.438   5.183  19.910  0.00  0.00    +0.000 NA
ATOM      8  C   UNL     1       7.623   5.721  19.638  0.00  0.00    +0.000 A 
ATOM      9  C   UNL     1       7.740   6.115  18.301  0.00  0.00    +0.000 A 
ATOM     10  C   UNL     1       6.535   5.789  17.708  0.00  0.00    +0.000 A 
ATOM     11  C   UNL     1       3.855   4.179  19.808  0.00  0.00    +0.000 A 
ENDROOT
BRANCH   1  13
ATOM     12  O   UNL     1       2.396   3.038  22.023  0.00  0.00    +0.000 OA
ATOM     13  C   UNL     1       1.831   3.234  20.961  0.00  0.00    +0.000 C 
BRANCH  13  14
ATOM     14  O   UNL     1       0.518   2.989  20.766  0.00  0.00    +0.000 OA
ATOM     15  H   UNL     1       0.123   3.380  19.965  0.00  0.00    +0.000 HD
ENDBRANCH  13  14
ENDBRANCH   1  13
BRANCH  10  16
ATOM     16  O   UNL     1       6.061   5.979  16.467  0.00  0.00    +0.000 OA
BRANCH  16  17
ATOM     17  C   UNL     1       7.027   5.914  15.414  0.00  0.00    +0.000 C 
BRANCH  17  18
ATOM     18  C   UNL     1       6.606   4.975  14.304  0.00  0.00    +0.000 A 
ATOM     19  C   UNL     1       7.443   4.826  13.183  0.00  0.00    +0.000 A 
ATOM     20  C   UNL     1       7.113   3.938  12.156  0.00  0.00    +0.000 A 
ATOM     21  C   UNL     1       5.947   3.185  12.247  0.00  0.00    +0.000 A 
ATOM     22 CL   UNL     1       5.544   2.082  10.989  0.00  0.00    +0.000 Cl
ATOM     23  C   UNL     1       5.109   3.312  13.355  0.00  0.00    +0.000 A 
ATOM     24  C   UNL     1       5.440   4.201  14.381  0.00  0.00    +0.000 A 
ENDBRANCH  17  18
ENDBRANCH  16  17
ENDBRANCH  10  16
TORSDOF 5
ENDMDL
MODEL 8
REMARK VINA RESULT:      -7.4      3.804      7.212
REMARK  Name = 
REMARK  5 active torsions:
REMARK  status: ('A' for Active; 'I' for Inactive)
REMARK    1  A    between atoms: C_2  and  O_3
REMARK    2  A    between atoms: C_2  and  C_4
REMARK    3  A    between atoms: C_13  and  O_14
REMARK    4  A    between atoms: O_14  and  C_15
REMARK    5  A    between atoms: C_15  and  C_16
REMARK                            x       y       z     vdW  Elec       q    Type
REMARK                         _______ _______ _______ _____ _____    ______ ____
ROOT
ATOM      1  C   UNL     1       2.809   3.422  19.811  0.00  0.00    +0.000 A 
ATOM      2  C   UNL     1       2.176   3.276  18.580  0.00  0.00    +0.000 A 
ATOM      3  C   UNL     1       2.828   3.752  17.460  0.00  0.00    +0.000 A 
ATOM      4  N   UNL     1       4.034   4.362  17.496  0.00  0.00    +0.000 NA
ATOM      5  C   UNL     1       4.651   4.479  18.700  0.00  0.00    +0.000 A 
ATOM      6  N   UNL     1       5.931   5.125  18.788  0.00  0.00    +0.000 N 
ATOM      7  N   UNL     1       6.588   5.169  19.992  0.00  0.00    +0.000 NA
ATOM      8  C   UNL     1       7.738   5.782  19.725  0.00  0.00    +0.000 A 
ATOM      9  C   UNL     1       7.841   6.172  18.386  0.00  0.00    +0.000 A 
ATOM     10  C   UNL     1       6.666   5.761  17.785  0.00  0.00    +0.000 A 
ATOM     11  C   UNL     1       4.078   3.995  19.876  0.00  0.00    +0.000 A 
ENDROOT
BRANCH   1  13
ATOM     12  O   UNL     1       2.707   2.469  21.980  0.00  0.00    +0.000 OA
ATOM     13  C   UNL     1       2.111   2.928  21.021  0.00  0.00    +0.000 C 
BRANCH  13  14
ATOM     14  O   UNL     1       0.764   2.969  20.938  0.00  0.00    +0.000 OA
ATOM     15  H   UNL     1       0.286   3.100  21.777  0.00  0.00    +0.000 HD
ENDBRANCH  13  14
ENDBRANCH   1  13
BRANCH  10  16
ATOM     16  O   UNL     1       6.192   5.908  16.539  0.00  0.00    +0.000 OA
BRANCH  16  17
ATOM     17  C   UNL     1       7.161   5.829  15.490  0.00  0.00    +0.000 C 
BRANCH  17  18
ATOM     18  C   UNL     1       6.724   4.908  14.371  0.00  0.00    +0.000 A 
ATOM     19  C   UNL     1       5.558   4.139  14.537  0.00  0.00    +0.000 A 
ATOM     20  C   UNL     1       5.095   3.309  13.513  0.00  0.00    +0.000 A 
ATOM     21  C   UNL     1       5.791   3.249  12.310  0.00  0.00    +0.000 A 
ATOM     22 CL   UNL     1       5.218   2.237  11.042  0.00  0.00    +0.000 Cl
ATOM     23  C   UNL     1       6.944   4.011  12.123  0.00  0.00    +0.000 A 
ATOM     24  C   UNL     1       7.406   4.840  13.148  0.00  0.00    +0.000 A 
ENDBRANCH  17  18
ENDBRANCH  16  17
ENDBRANCH  10  16
TORSDOF 5
ENDMDL
MODEL 9
REMARK VINA RESULT:      -7.4      3.069      6.629
REMARK  Name = 
REMARK  5 active torsions:
REMARK  status: ('A' for Active; 'I' for Inactive)
REMARK    1  A    between atoms: C_2  and  O_3
REMARK    2  A    between atoms: C_2  and  C_4
REMARK    3  A    between atoms: C_13  and  O_14
REMARK    4  A    between atoms: O_14  and  C_15
REMARK    5  A    between atoms: C_15  and  C_16
REMARK                            x       y       z     vdW  Elec       q    Type
REMARK                         _______ _______ _______ _____ _____    ______ ____
ROOT
ATOM      1  C   UNL     1       1.449   8.102  20.564  0.00  0.00    +0.000 A 
ATOM      2  C   UNL     1       1.794   8.586  19.306  0.00  0.00    +0.000 A 
ATOM      3  C   UNL     1       2.375   7.707  18.413  0.00  0.00    +0.000 A 
ATOM      4  N   UNL     1       2.638   6.413  18.699  0.00  0.00    +0.000 NA
ATOM      5  C   UNL     1       2.277   5.946  19.922  0.00  0.00    +0.000 A 
ATOM      6  N   UNL     1       2.542   4.579  20.272  0.00  0.00    +0.000 N 
ATOM      7  N   UNL     1       2.103   4.088  21.476  0.00  0.00    +0.000 NA
ATOM      8  C   UNL     1       2.463   2.808  21.470  0.00  0.00    +0.000 A 
ATOM      9  C   UNL     1       3.156   2.450  20.308  0.00  0.00    +0.000 A 
ATOM     10  C   UNL     1       3.221   3.600  19.543  0.00  0.00    +0.000 A 
ATOM     11  C   UNL     1       1.655   6.757  20.871  0.00  0.00    +0.000 A 
ENDROOT
BRANCH   1  13
ATOM     12  O   UNL     1       1.504   9.805  22.211  0.00  0.00    +0.000 OA
ATOM     13  C   UNL     1       0.839   9.040  21.534  0.00  0.00    +0.000 C 
BRANCH  13  14
ATOM     14  O   UNL     1      -0.500   8.923  21.650  0.00  0.00    +0.000 OA
ATOM     15  H   UNL     1      -0.905   8.159  21.200  0.00  0.00    +0.000 HD
ENDBRANCH  13  14
ENDBRANCH   1  13
BRANCH  10  16
ATOM     16  O   UNL     1       3.805   3.865  18.364  0.00  0.00    +0.000 OA
BRANCH  16  17
ATOM     17  C   UNL     1       5.201   4.172  18.416  0.00  0.00    +0.000 C 
BRANCH  17  18
ATOM     18  C   UNL     1       5.801   4.357  17.039  0.00  0.00    +0.000 A 
ATOM     19  C   UNL     1       4.975   4.208  15.910  0.00  0.00    +0.000 A 
ATOM     20  C   UNL     1       5.478   4.414  14.622  0.00  0.00    +0.000 A 
ATOM     21  C   UNL     1       6.809   4.779  14.455  0.00  0.00    +0.000 A 
ATOM     22 CL   UNL     1       7.428   5.044  12.872  0.00  0.00    +0.000 Cl
ATOM     23  C   UNL     1       7.641   4.940  15.562  0.00  0.00    +0.000 A 
ATOM     24  C   UNL     1       7.137   4.735  16.849  0.00  0.00    +0.000 A 
ENDBRANCH  17  18
ENDBRANCH  16  17
ENDBRANCH  10  16
TORSDOF 5
ENDMDL
