MODEL 1
REMARK VINA RESULT:      -8.3      0.000      0.000
REMARK  Name = 
REMARK  4 active torsions:
REMARK  status: ('A' for Active; 'I' for Inactive)
REMARK    1  A    between atoms: C_2  and  C_19
REMARK    2  A    between atoms: N_3  and  N_4
REMARK    3  A    between atoms: N_4  and  C_5
REMARK    4  A    between atoms: N_9  and  C_10
REMARK                            x       y       z     vdW  Elec       q    Type
REMARK                         _______ _______ _______ _____ _____    ______ ____
ROOT
ATOM      1  C   UNL     1       4.729   3.875  18.617  0.00  0.00    +0.000 C 
ATOM      2  C   UNL     1       3.634   3.531  17.629  0.00  0.00    +0.000 C 
ATOM      3  C   UNL     1       2.587   4.576  17.872  0.00  0.00    +0.000 C 
ATOM      4  O   UNL     1       1.465   4.476  17.392  0.00  0.00    +0.000 OA
ATOM      5  N   UNL     1       3.135   5.608  18.604  0.00  0.00    +0.000 N 
ATOM      6  C   UNL     1       4.412   5.299  19.032  0.00  0.00    +0.000 C 
ATOM      7  O   UNL     1       5.169   5.974  19.718  0.00  0.00    +0.000 OA
ENDROOT
BRANCH   5   8
ATOM      8  C   UNL     1       2.462   6.825  18.925  0.00  0.00    +0.000 A 
ATOM      9  C   UNL     1       1.961   7.070  20.217  0.00  0.00    +0.000 A 
ATOM     10  C   UNL     1       1.336   8.282  20.534  0.00  0.00    +0.000 A 
ATOM     11  C   UNL     1       1.187   9.256  19.559  0.00  0.00    +0.000 A 
ATOM     12  F   UNL     1       0.594  10.417  19.866  0.00  0.00    +0.000 F 
ATOM     13  C   UNL     1       1.648   9.041  18.272  0.00  0.00    +0.000 A 
ATOM     14  C   UNL     1       2.283   7.834  17.960  0.00  0.00    +0.000 A 
ENDBRANCH   5   8
BRANCH   1  15
ATOM     15  N   UNL     1       6.104   3.786  18.100  0.00  0.00    +0.000 NA
ATOM     16  H   UNL     1       6.648   4.617  18.375  0.00  0.00    +0.000 HD
BRANCH  15  19
ATOM     17  O   UNL     1       7.388   5.618  16.501  0.00  0.00    +0.000 OA
ATOM     18  C   UNL     1       6.823   4.662  15.979  0.00  0.00    +0.000 C 
ATOM     19  N   UNL     1       6.126   3.698  16.696  0.00  0.00    +0.000 N 
ATOM     20  H   UNL     1       5.962   2.786  16.272  0.00  0.00    +0.000 HD
BRANCH  18  21
ATOM     21  C   UNL     1       6.834   4.474  14.515  0.00  0.00    +0.000 A 
ATOM     22  C   UNL     1       5.943   3.606  13.879  0.00  0.00    +0.000 A 
ATOM     23  C   UNL     1       5.975   3.493  12.491  0.00  0.00    +0.000 A 
ATOM     24  C   UNL     1       6.898   4.254  11.793  0.00  0.00    +0.000 A 
ATOM     25  N   UNL     1       7.769   5.106  12.380  0.00  0.00    +0.000 NA
ATOM     26  C   UNL     1       7.712   5.208  13.732  0.00  0.00    +0.000 A 
ENDBRANCH  18  21
ENDBRANCH  15  19
ENDBRANCH   1  15
TORSDOF 4
ENDMDL
MODEL 2
REMARK VINA RESULT:      -8.2      2.931      4.189
REMARK  Name = 
REMARK  4 active torsions:
REMARK  status: ('A' for Active; 'I' for Inactive)
REMARK    1  A    between atoms: C_2  and  C_19
REMARK    2  A    between atoms: N_3  and  N_4
REMARK    3  A    between atoms: N_4  and  C_5
REMARK    4  A    between atoms: N_9  and  C_10
REMARK                            x       y       z     vdW  Elec       q    Type
REMARK                         _______ _______ _______ _____ _____    ______ ____
ROOT
ATOM      1  C   UNL     1       6.786   6.064  16.668  0.00  0.00    +0.000 C 
ATOM      2  C   UNL     1       7.335   5.471  17.948  0.00  0.00    +0.000 C 
ATOM      3  C   UNL     1       6.134   4.862  18.607  0.00  0.00    +0.000 C 
ATOM      4  O   UNL     1       6.172   4.478  19.770  0.00  0.00    +0.000 OA
ATOM      5  N   UNL     1       5.112   4.759  17.688  0.00  0.00    +0.000 N 
ATOM      6  C   UNL     1       5.437   5.392  16.502  0.00  0.00    +0.000 C 
ATOM      7  O   UNL     1       4.755   5.512  15.492  0.00  0.00    +0.000 OA
ENDROOT
BRANCH   5   8
ATOM      8  C   UNL     1       3.857   4.125  17.932  0.00  0.00    +0.000 A 
ATOM      9  C   UNL     1       3.681   2.743  17.741  0.00  0.00    +0.000 A 
ATOM     10  C   UNL     1       2.457   2.123  18.021  0.00  0.00    +0.000 A 
ATOM     11  C   UNL     1       1.390   2.879  18.476  0.00  0.00    +0.000 A 
ATOM     12  F   UNL     1       0.221   2.284  18.747  0.00  0.00    +0.000 F 
ATOM     13  C   UNL     1       1.520   4.246  18.654  0.00  0.00    +0.000 A 
ATOM     14  C   UNL     1       2.747   4.862  18.387  0.00  0.00    +0.000 A 
ENDBRANCH   5   8
BRANCH   1  15
ATOM     15  N   UNL     1       7.611   5.859  15.466  0.00  0.00    +0.000 NA
ATOM     16  H   UNL     1       7.679   6.732  14.921  0.00  0.00    +0.000 HD
BRANCH  15  19
ATOM     17  O   UNL     1       8.105   5.742  12.764  0.00  0.00    +0.000 OA
ATOM     18  C   UNL     1       7.402   4.880  13.280  0.00  0.00    +0.000 C 
ATOM     19  N   UNL     1       7.073   4.866  14.630  0.00  0.00    +0.000 N 
ATOM     20  H   UNL     1       6.774   3.990  15.058  0.00  0.00    +0.000 HD
BRANCH  18  21
ATOM     21  C   UNL     1       6.831   3.779  12.480  0.00  0.00    +0.000 A 
ATOM     22  C   UNL     1       7.641   2.869  11.797  0.00  0.00    +0.000 A 
ATOM     23  C   UNL     1       7.049   1.828  11.085  0.00  0.00    +0.000 A 
ATOM     24  C   UNL     1       5.667   1.739  11.084  0.00  0.00    +0.000 A 
ATOM     25  N   UNL     1       4.857   2.602  11.739  0.00  0.00    +0.000 NA
ATOM     26  C   UNL     1       5.456   3.600  12.435  0.00  0.00    +0.000 A 
ENDBRANCH  18  21
ENDBRANCH  15  19
ENDBRANCH   1  15
TORSDOF 4
ENDMDL
MODEL 3
REMARK VINA RESULT:      -8.1      0.610      1.010
REMARK  Name = 
REMARK  4 active torsions:
REMARK  status: ('A' for Active; 'I' for Inactive)
REMARK    1  A    between atoms: C_2  and  C_19
REMARK    2  A    between atoms: N_3  and  N_4
REMARK    3  A    between atoms: N_4  and  C_5
REMARK    4  A    between atoms: N_9  and  C_10
REMARK                            x       y       z     vdW  Elec       q    Type
REMARK                         _______ _______ _______ _____ _____    ______ ____
ROOT
ATOM      1  C   UNL     1       4.446   3.800  18.652  0.00  0.00    +0.000 C 
ATOM      2  C   UNL     1       3.338   3.509  17.661  0.00  0.00    +0.000 C 
ATOM      3  C   UNL     1       2.350   4.612  17.892  0.00  0.00    +0.000 C 
ATOM      4  O   UNL     1       1.226   4.572  17.408  0.00  0.00    +0.000 OA
ATOM      5  N   UNL     1       2.951   5.618  18.619  0.00  0.00    +0.000 N 
ATOM      6  C   UNL     1       4.207   5.242  19.055  0.00  0.00    +0.000 C 
ATOM      7  O   UNL     1       4.998   5.879  19.739  0.00  0.00    +0.000 OA
ENDROOT
BRANCH   5   8
ATOM      8  C   UNL     1       2.345   6.873  18.928  0.00  0.00    +0.000 A 
ATOM      9  C   UNL     1       1.841   7.150  20.211  0.00  0.00    +0.000 A 
ATOM     10  C   UNL     1       1.284   8.398  20.517  0.00  0.00    +0.000 A 
ATOM     11  C   UNL     1       1.206   9.376  19.539  0.00  0.00    +0.000 A 
ATOM     12  F   UNL     1       0.677  10.570  19.834  0.00  0.00    +0.000 F 
ATOM     13  C   UNL     1       1.673   9.131  18.259  0.00  0.00    +0.000 A 
ATOM     14  C   UNL     1       2.241   7.888  17.958  0.00  0.00    +0.000 A 
ENDBRANCH   5   8
BRANCH   1  15
ATOM     15  N   UNL     1       5.816   3.630  18.141  0.00  0.00    +0.000 NA
ATOM     16  H   UNL     1       6.436   4.363  18.518  0.00  0.00    +0.000 HD
BRANCH  15  19
ATOM     17  O   UNL     1       7.719   5.066  16.771  0.00  0.00    +0.000 OA
ATOM     18  C   UNL     1       6.877   4.437  16.139  0.00  0.00    +0.000 C 
ATOM     19  N   UNL     1       5.860   3.703  16.738  0.00  0.00    +0.000 N 
ATOM     20  H   UNL     1       5.404   2.963  16.206  0.00  0.00    +0.000 HD
BRANCH  18  21
ATOM     21  C   UNL     1       6.877   4.428  14.664  0.00  0.00    +0.000 A 
ATOM     22  C   UNL     1       7.705   5.275  13.923  0.00  0.00    +0.000 A 
ATOM     23  C   UNL     1       7.688   5.200  12.532  0.00  0.00    +0.000 A 
ATOM     24  C   UNL     1       6.843   4.279  11.936  0.00  0.00    +0.000 A 
ATOM     25  N   UNL     1       6.034   3.443  12.626  0.00  0.00    +0.000 NA
ATOM     26  C   UNL     1       6.076   3.526  13.979  0.00  0.00    +0.000 A 
ENDBRANCH  18  21
ENDBRANCH  15  19
ENDBRANCH   1  15
TORSDOF 4
ENDMDL
MODEL 4
REMARK VINA RESULT:      -8.0      3.757      7.294
REMARK  Name = 
REMARK  4 active torsions:
REMARK  status: ('A' for Active; 'I' for Inactive)
REMARK    1  A    between atoms: C_2  and  C_19
REMARK    2  A    between atoms: N_3  and  N_4
REMARK    3  A    between atoms: N_4  and  C_5
REMARK    4  A    between atoms: N_9  and  C_10
REMARK                            x       y       z     vdW  Elec       q    Type
REMARK                         _______ _______ _______ _____ _____    ______ ____
ROOT
ATOM      1  C   UNL     1       6.692   6.227  18.003  0.00  0.00    +0.000 C 
ATOM      2  C   UNL     1       5.485   6.935  17.424  0.00  0.00    +0.000 C 
ATOM      3  C   UNL     1       5.537   6.602  15.964  0.00  0.00    +0.000 C 
ATOM      4  O   UNL     1       4.829   7.185  15.152  0.00  0.00    +0.000 OA
ATOM      5  N   UNL     1       6.402   5.547  15.767  0.00  0.00    +0.000 N 
ATOM      6  C   UNL     1       7.079   5.228  16.929  0.00  0.00    +0.000 C 
ATOM      7  O   UNL     1       7.930   4.365  17.102  0.00  0.00    +0.000 OA
ENDROOT
BRANCH   5   8
ATOM      8  C   UNL     1       6.615   4.890  14.518  0.00  0.00    +0.000 A 
ATOM      9  C   UNL     1       5.809   3.814  14.105  0.00  0.00    +0.000 A 
ATOM     10  C   UNL     1       6.001   3.201  12.861  0.00  0.00    +0.000 A 
ATOM     11  C   UNL     1       7.012   3.643  12.023  0.00  0.00    +0.000 A 
ATOM     12  F   UNL     1       7.190   3.059  10.832  0.00  0.00    +0.000 F 
ATOM     13  C   UNL     1       7.838   4.685  12.406  0.00  0.00    +0.000 A 
ATOM     14  C   UNL     1       7.638   5.305  13.644  0.00  0.00    +0.000 A 
ENDBRANCH   5   8
BRANCH   1  15
ATOM     15  N   UNL     1       6.473   5.541  19.287  0.00  0.00    +0.000 NA
ATOM     16  H   UNL     1       7.007   4.660  19.322  0.00  0.00    +0.000 HD
BRANCH  15  19
ATOM     17  O   UNL     1       5.492   2.972  19.244  0.00  0.00    +0.000 OA
ATOM     18  C   UNL     1       4.723   3.901  19.469  0.00  0.00    +0.000 C 
ATOM     19  N   UNL     1       5.115   5.234  19.486  0.00  0.00    +0.000 N 
ATOM     20  H   UNL     1       4.538   5.914  19.980  0.00  0.00    +0.000 HD
BRANCH  18  21
ATOM     21  C   UNL     1       3.290   3.662  19.729  0.00  0.00    +0.000 A 
ATOM     22  C   UNL     1       2.501   4.591  20.411  0.00  0.00    +0.000 A 
ATOM     23  C   UNL     1       1.146   4.328  20.597  0.00  0.00    +0.000 A 
ATOM     24  C   UNL     1       0.633   3.144  20.095  0.00  0.00    +0.000 A 
ATOM     25  N   UNL     1       1.370   2.228  19.427  0.00  0.00    +0.000 NA
ATOM     26  C   UNL     1       2.685   2.511  19.246  0.00  0.00    +0.000 A 
ENDBRANCH  18  21
ENDBRANCH  15  19
ENDBRANCH   1  15
TORSDOF 4
ENDMDL
MODEL 5
REMARK VINA RESULT:      -8.0      3.865      7.327
REMARK  Name = 
REMARK  4 active torsions:
REMARK  status: ('A' for Active; 'I' for Inactive)
REMARK    1  A    between atoms: C_2  and  C_19
REMARK    2  A    between atoms: N_3  and  N_4
REMARK    3  A    between atoms: N_4  and  C_5
REMARK    4  A    between atoms: N_9  and  C_10
REMARK                            x       y       z     vdW  Elec       q    Type
REMARK                         _______ _______ _______ _____ _____    ______ ____
ROOT
ATOM      1  C   UNL     1       6.685   6.012  18.175  0.00  0.00    +0.000 C 
ATOM      2  C   UNL     1       5.482   6.760  17.641  0.00  0.00    +0.000 C 
ATOM      3  C   UNL     1       5.543   6.532  16.161  0.00  0.00    +0.000 C 
ATOM      4  O   UNL     1       4.840   7.171  15.389  0.00  0.00    +0.000 OA
ATOM      5  N   UNL     1       6.409   5.493  15.896  0.00  0.00    +0.000 N 
ATOM      6  C   UNL     1       7.079   5.092  17.036  0.00  0.00    +0.000 C 
ATOM      7  O   UNL     1       7.930   4.219  17.152  0.00  0.00    +0.000 OA
ENDROOT
BRANCH   5   8
ATOM      8  C   UNL     1       6.630   4.927  14.604  0.00  0.00    +0.000 A 
ATOM      9  C   UNL     1       7.644   5.405  13.755  0.00  0.00    +0.000 A 
ATOM     10  C   UNL     1       7.879   4.819  12.505  0.00  0.00    +0.000 A 
ATOM     11  C   UNL     1       7.092   3.761  12.081  0.00  0.00    +0.000 A 
ATOM     12  F   UNL     1       7.321   3.198  10.888  0.00  0.00    +0.000 F 
ATOM     13  C   UNL     1       6.071   3.278  12.882  0.00  0.00    +0.000 A 
ATOM     14  C   UNL     1       5.845   3.857  14.135  0.00  0.00    +0.000 A 
ENDBRANCH   5   8
BRANCH   1  15
ATOM     15  N   UNL     1       6.459   5.236  19.406  0.00  0.00    +0.000 NA
ATOM     16  H   UNL     1       6.956   4.335  19.362  0.00  0.00    +0.000 HD
BRANCH  15  19
ATOM     17  O   UNL     1       5.402   2.698  19.352  0.00  0.00    +0.000 OA
ATOM     18  C   UNL     1       4.661   3.649  19.583  0.00  0.00    +0.000 C 
ATOM     19  N   UNL     1       5.093   4.969  19.606  0.00  0.00    +0.000 N 
ATOM     20  H   UNL     1       4.538   5.663  20.106  0.00  0.00    +0.000 HD
BRANCH  18  21
ATOM     21  C   UNL     1       3.223   3.450  19.845  0.00  0.00    +0.000 A 
ATOM     22  C   UNL     1       2.759   2.947  21.063  0.00  0.00    +0.000 A 
ATOM     23  C   UNL     1       1.387   2.813  21.267  0.00  0.00    +0.000 A 
ATOM     24  C   UNL     1       0.533   3.188  20.245  0.00  0.00    +0.000 A 
ATOM     25  N   UNL     1       0.952   3.683  19.057  0.00  0.00    +0.000 NA
ATOM     26  C   UNL     1       2.290   3.815  18.885  0.00  0.00    +0.000 A 
ENDBRANCH  18  21
ENDBRANCH  15  19
ENDBRANCH   1  15
TORSDOF 4
ENDMDL
MODEL 6
REMARK VINA RESULT:      -7.8      3.719      7.302
REMARK  Name = 
REMARK  4 active torsions:
REMARK  status: ('A' for Active; 'I' for Inactive)
REMARK    1  A    between atoms: C_2  and  C_19
REMARK    2  A    between atoms: N_3  and  N_4
REMARK    3  A    between atoms: N_4  and  C_5
REMARK    4  A    between atoms: N_9  and  C_10
REMARK                            x       y       z     vdW  Elec       q    Type
REMARK                         _______ _______ _______ _____ _____    ______ ____
ROOT
ATOM      1  C   UNL     1       6.897   6.096  18.048  0.00  0.00    +0.000 C 
ATOM      2  C   UNL     1       5.690   6.850  17.529  0.00  0.00    +0.000 C 
ATOM      3  C   UNL     1       5.688   6.560  16.059  0.00  0.00    +0.000 C 
ATOM      4  O   UNL     1       4.969   7.183  15.288  0.00  0.00    +0.000 OA
ATOM      5  N   UNL     1       6.521   5.491  15.804  0.00  0.00    +0.000 N 
ATOM      6  C   UNL     1       7.226   5.122  16.934  0.00  0.00    +0.000 C 
ATOM      7  O   UNL     1       8.061   4.234  17.053  0.00  0.00    +0.000 OA
ENDROOT
BRANCH   5   8
ATOM      8  C   UNL     1       6.678   4.868  14.529  0.00  0.00    +0.000 A 
ATOM      9  C   UNL     1       5.854   3.803  14.124  0.00  0.00    +0.000 A 
ATOM     10  C   UNL     1       5.990   3.222  12.857  0.00  0.00    +0.000 A 
ATOM     11  C   UNL     1       6.964   3.686  11.988  0.00  0.00    +0.000 A 
ATOM     12  F   UNL     1       7.089   3.133  10.775  0.00  0.00    +0.000 F 
ATOM     13  C   UNL     1       7.808   4.718  12.361  0.00  0.00    +0.000 A 
ATOM     14  C   UNL     1       7.662   5.305  13.623  0.00  0.00    +0.000 A 
ENDBRANCH   5   8
BRANCH   1  15
ATOM     15  N   UNL     1       6.702   5.378  19.317  0.00  0.00    +0.000 NA
ATOM     16  H   UNL     1       7.148   4.449  19.279  0.00  0.00    +0.000 HD
BRANCH  15  19
ATOM     17  O   UNL     1       5.412   2.972  18.989  0.00  0.00    +0.000 OA
ATOM     18  C   UNL     1       4.785   3.931  19.428  0.00  0.00    +0.000 C 
ATOM     19  N   UNL     1       5.338   5.192  19.605  0.00  0.00    +0.000 N 
ATOM     20  H   UNL     1       4.893   5.843  20.252  0.00  0.00    +0.000 HD
BRANCH  18  21
ATOM     21  C   UNL     1       3.360   3.810  19.792  0.00  0.00    +0.000 A 
ATOM     22  C   UNL     1       2.705   2.576  19.802  0.00  0.00    +0.000 A 
ATOM     23  C   UNL     1       1.368   2.517  20.189  0.00  0.00    +0.000 A 
ATOM     24  C   UNL     1       0.737   3.696  20.549  0.00  0.00    +0.000 A 
ATOM     25  N   UNL     1       1.346   4.904  20.553  0.00  0.00    +0.000 NA
ATOM     26  C   UNL     1       2.651   4.936  20.185  0.00  0.00    +0.000 A 
ENDBRANCH  18  21
ENDBRANCH  15  19
ENDBRANCH   1  15
TORSDOF 4
ENDMDL
MODEL 7
REMARK VINA RESULT:      -7.7      3.721      7.122
REMARK  Name = 
REMARK  4 active torsions:
REMARK  status: ('A' for Active; 'I' for Inactive)
REMARK    1  A    between atoms: C_2  and  C_19
REMARK    2  A    between atoms: N_3  and  N_4
REMARK    3  A    between atoms: N_4  and  C_5
REMARK    4  A    between atoms: N_9  and  C_10
REMARK                            x       y       z     vdW  Elec       q    Type
REMARK                         _______ _______ _______ _____ _____    ______ ____
ROOT
ATOM      1  C   UNL     1       6.733   6.007  18.040  0.00  0.00    +0.000 C 
ATOM      2  C   UNL     1       5.557   6.793  17.500  0.00  0.00    +0.000 C 
ATOM      3  C   UNL     1       5.604   6.543  16.023  0.00  0.00    +0.000 C 
ATOM      4  O   UNL     1       4.923   7.199  15.244  0.00  0.00    +0.000 OA
ATOM      5  N   UNL     1       6.429   5.469  15.769  0.00  0.00    +0.000 N 
ATOM      6  C   UNL     1       7.087   5.058  16.912  0.00  0.00    +0.000 C 
ATOM      7  O   UNL     1       7.905   4.155  17.037  0.00  0.00    +0.000 OA
ENDROOT
BRANCH   5   8
ATOM      8  C   UNL     1       6.624   4.878  14.484  0.00  0.00    +0.000 A 
ATOM      9  C   UNL     1       7.639   5.321  13.616  0.00  0.00    +0.000 A 
ATOM     10  C   UNL     1       7.848   4.710  12.374  0.00  0.00    +0.000 A 
ATOM     11  C   UNL     1       7.033   3.662  11.976  0.00  0.00    +0.000 A 
ATOM     12  F   UNL     1       7.238   3.076  10.789  0.00  0.00    +0.000 F 
ATOM     13  C   UNL     1       6.011   3.214  12.794  0.00  0.00    +0.000 A 
ATOM     14  C   UNL     1       5.812   3.818  14.040  0.00  0.00    +0.000 A 
ENDBRANCH   5   8
BRANCH   1  15
ATOM     15  N   UNL     1       6.482   5.257  19.282  0.00  0.00    +0.000 NA
ATOM     16  H   UNL     1       7.309   4.700  19.541  0.00  0.00    +0.000 HD
BRANCH  15  19
ATOM     17  O   UNL     1       3.904   5.946  19.949  0.00  0.00    +0.000 OA
ATOM     18  C   UNL     1       4.124   4.830  19.489  0.00  0.00    +0.000 C 
ATOM     19  N   UNL     1       5.392   4.379  19.145  0.00  0.00    +0.000 N 
ATOM     20  H   UNL     1       5.482   3.604  18.489  0.00  0.00    +0.000 HD
BRANCH  18  21
ATOM     21  C   UNL     1       3.031   3.862  19.276  0.00  0.00    +0.000 A 
ATOM     22  C   UNL     1       2.059   3.624  20.251  0.00  0.00    +0.000 A 
ATOM     23  C   UNL     1       1.030   2.724  19.983  0.00  0.00    +0.000 A 
ATOM     24  C   UNL     1       1.013   2.097  18.749  0.00  0.00    +0.000 A 
ATOM     25  N   UNL     1       1.937   2.309  17.784  0.00  0.00    +0.000 NA
ATOM     26  C   UNL     1       2.923   3.198  18.063  0.00  0.00    +0.000 A 
ENDBRANCH  18  21
ENDBRANCH  15  19
ENDBRANCH   1  15
TORSDOF 4
ENDMDL
MODEL 8
REMARK VINA RESULT:      -7.7      3.676      8.163
REMARK  Name = 
REMARK  4 active torsions:
REMARK  status: ('A' for Active; 'I' for Inactive)
REMARK    1  A    between atoms: C_2  and  C_19
REMARK    2  A    between atoms: N_3  and  N_4
REMARK    3  A    between atoms: N_4  and  C_5
REMARK    4  A    between atoms: N_9  and  C_10
REMARK                            x       y       z     vdW  Elec       q    Type
REMARK                         _______ _______ _______ _____ _____    ______ ____
ROOT
ATOM      1  C   UNL     1       1.866   5.862  20.356  0.00  0.00    +0.000 C 
ATOM      2  C   UNL     1       2.289   4.558  21.000  0.00  0.00    +0.000 C 
ATOM      3  C   UNL     1       3.257   3.969  20.019  0.00  0.00    +0.000 C 
ATOM      4  O   UNL     1       3.637   2.809  20.117  0.00  0.00    +0.000 OA
ATOM      5  N   UNL     1       3.651   4.943  19.126  0.00  0.00    +0.000 N 
ATOM      6  C   UNL     1       2.921   6.104  19.294  0.00  0.00    +0.000 C 
ATOM      7  O   UNL     1       2.996   7.149  18.659  0.00  0.00    +0.000 OA
ENDROOT
BRANCH   5   8
ATOM      8  C   UNL     1       4.650   4.771  18.121  0.00  0.00    +0.000 A 
ATOM      9  C   UNL     1       4.316   4.394  16.808  0.00  0.00    +0.000 A 
ATOM     10  C   UNL     1       5.298   4.265  15.818  0.00  0.00    +0.000 A 
ATOM     11  C   UNL     1       6.628   4.492  16.135  0.00  0.00    +0.000 A 
ATOM     12  F   UNL     1       7.566   4.373  15.186  0.00  0.00    +0.000 F 
ATOM     13  C   UNL     1       6.996   4.843  17.422  0.00  0.00    +0.000 A 
ATOM     14  C   UNL     1       6.012   4.983  18.406  0.00  0.00    +0.000 A 
ENDBRANCH   5   8
BRANCH   1  15
ATOM     15  N   UNL     1       1.775   7.018  21.262  0.00  0.00    +0.000 NA
ATOM     16  H   UNL     1       1.360   6.740  22.163  0.00  0.00    +0.000 HD
BRANCH  15  19
ATOM     17  O   UNL     1       1.514   9.496  22.425  0.00  0.00    +0.000 OA
ATOM     18  C   UNL     1       0.933   9.269  21.368  0.00  0.00    +0.000 C 
ATOM     19  N   UNL     1       0.981   8.043  20.717  0.00  0.00    +0.000 N 
ATOM     20  H   UNL     1       0.765   8.002  19.721  0.00  0.00    +0.000 HD
BRANCH  18  21
ATOM     21  C   UNL     1       0.112  10.303  20.709  0.00  0.00    +0.000 A 
ATOM     22  C   UNL     1      -0.309  10.172  19.383  0.00  0.00    +0.000 A 
ATOM     23  C   UNL     1      -1.111  11.163  18.822  0.00  0.00    +0.000 A 
ATOM     24  C   UNL     1      -1.461  12.247  19.610  0.00  0.00    +0.000 A 
ATOM     25  N   UNL     1      -1.073  12.398  20.897  0.00  0.00    +0.000 NA
ATOM     26  C   UNL     1      -0.302  11.415  21.426  0.00  0.00    +0.000 A 
ENDBRANCH  18  21
ENDBRANCH  15  19
ENDBRANCH   1  15
TORSDOF 4
ENDMDL
MODEL 9
REMARK VINA RESULT:      -7.6      5.515      6.661
REMARK  Name = 
REMARK  4 active torsions:
REMARK  status: ('A' for Active; 'I' for Inactive)
REMARK    1  A    between atoms: C_2  and  C_19
REMARK    2  A    between atoms: N_3  and  N_4
REMARK    3  A    between atoms: N_4  and  C_5
REMARK    4  A    between atoms: N_9  and  C_10
REMARK                            x       y       z     vdW  Elec       q    Type
REMARK                         _______ _______ _______ _____ _____    ______ ____
ROOT
ATOM      1  C   UNL     1       7.898   6.935  18.224  0.00  0.00    +0.000 C 
ATOM      2  C   UNL     1       6.989   7.554  17.183  0.00  0.00    +0.000 C 
ATOM      3  C   UNL     1       5.802   6.639  17.151  0.00  0.00    +0.000 C 
ATOM      4  O   UNL     1       4.960   6.719  16.265  0.00  0.00    +0.000 OA
ATOM      5  N   UNL     1       5.819   5.831  18.267  0.00  0.00    +0.000 N 
ATOM      6  C   UNL     1       6.992   5.985  18.982  0.00  0.00    +0.000 C 
ATOM      7  O   UNL     1       7.342   5.407  20.004  0.00  0.00    +0.000 OA
ENDROOT
BRANCH   5   8
ATOM      8  C   UNL     1       4.785   4.914  18.625  0.00  0.00    +0.000 A 
ATOM      9  C   UNL     1       3.836   5.225  19.615  0.00  0.00    +0.000 A 
ATOM     10  C   UNL     1       2.802   4.335  19.932  0.00  0.00    +0.000 A 
ATOM     11  C   UNL     1       2.716   3.117  19.277  0.00  0.00    +0.000 A 
ATOM     12  F   UNL     1       1.723   2.270  19.578  0.00  0.00    +0.000 F 
ATOM     13  C   UNL     1       3.645   2.769  18.312  0.00  0.00    +0.000 A 
ATOM     14  C   UNL     1       4.670   3.664  17.988  0.00  0.00    +0.000 A 
ENDBRANCH   5   8
BRANCH   1  15
ATOM     15  N   UNL     1       8.541   7.880  19.151  0.00  0.00    +0.000 NA
ATOM     16  H   UNL     1       7.888   8.154  19.899  0.00  0.00    +0.000 HD
BRANCH  15  19
ATOM     17  O   UNL     1       9.196  10.198  20.476  0.00  0.00    +0.000 OA
ATOM     18  C   UNL     1       9.293  10.162  19.254  0.00  0.00    +0.000 C 
ATOM     19  N   UNL     1       8.962   9.049  18.492  0.00  0.00    +0.000 N 
ATOM     20  H   UNL     1       9.353   8.955  17.555  0.00  0.00    +0.000 HD
BRANCH  18  21
ATOM     21  C   UNL     1       9.765  11.332  18.489  0.00  0.00    +0.000 A 
ATOM     22  C   UNL     1       8.891  12.339  18.071  0.00  0.00    +0.000 A 
ATOM     23  C   UNL     1       9.397  13.438  17.381  0.00  0.00    +0.000 A 
ATOM     24  C   UNL     1      10.759  13.488  17.137  0.00  0.00    +0.000 A 
ATOM     25  N   UNL     1      11.630  12.532  17.533  0.00  0.00    +0.000 NA
ATOM     26  C   UNL     1      11.116  11.476  18.213  0.00  0.00    +0.000 A 
ENDBRANCH  18  21
ENDBRANCH  15  19
ENDBRANCH   1  15
TORSDOF 4
ENDMDL
