MODEL 1
REMARK VINA RESULT:      -7.8      0.000      0.000
REMARK  Name = 
REMARK  10 active torsions:
REMARK  status: ('A' for Active; 'I' for Inactive)
REMARK    1  A    between atoms: C_2  and  C_3
REMARK    2  A    between atoms: C_8  and  O_9
REMARK    3  A    between atoms: O_9  and  C_10
REMARK    4  A    between atoms: C_12  and  C_13
REMARK    5  A    between atoms: C_13  and  O_14
REMARK    6  A    between atoms: O_14  and  S_15
REMARK    7  A    between atoms: S_15  and  O_18
REMARK    8  A    between atoms: C_19  and  O_20
REMARK    9  A    between atoms: C_21  and  O_22
REMARK   10  A    between atoms: C_23  and  O_24
REMARK                            x       y       z     vdW  Elec       q    Type
REMARK                         _______ _______ _______ _____ _____    ______ ____
ROOT
ATOM      1  C   UNL     1       2.573   5.086  20.290  0.00  0.00    +0.000 C 
ATOM      2  O   UNL     1       3.826   5.345  19.664  0.00  0.00    +0.000 OA
ATOM      3  C   UNL     1       4.541   4.182  19.247  0.00  0.00    +0.000 C 
ATOM      4  C   UNL     1       3.707   3.371  18.250  0.00  0.00    +0.000 C 
ATOM      5  C   UNL     1       2.381   2.963  18.906  0.00  0.00    +0.000 C 
ATOM      6  C   UNL     1       1.626   4.186  19.453  0.00  0.00    +0.000 C 
ENDROOT
BRANCH   4   7
ATOM      7  O   UNL     1       4.452   2.233  17.815  0.00  0.00    +0.000 OA
ATOM      8  H   UNL     1       4.028   1.424  18.155  0.00  0.00    +0.000 HD
ENDBRANCH   4   7
BRANCH   5   9
ATOM      9  O   UNL     1       1.578   2.232  17.971  0.00  0.00    +0.000 OA
ATOM     10  H   UNL     1       0.745   2.718  17.825  0.00  0.00    +0.000 HD
ENDBRANCH   5   9
BRANCH   6  11
ATOM     11  O   UNL     1       0.489   3.771  20.228  0.00  0.00    +0.000 OA
ATOM     12  H   UNL     1       0.605   2.845  20.502  0.00  0.00    +0.000 HD
ENDBRANCH   6  11
BRANCH   1  13
ATOM     13  O   UNL     1       1.927   6.306  20.706  0.00  0.00    +0.000 OA
BRANCH  13  19
ATOM     14  C   UNL     1       1.157   8.502  20.257  0.00  0.00    +0.000 A 
ATOM     15  C   UNL     1       1.030   9.615  19.413  0.00  0.00    +0.000 A 
ATOM     16  C   UNL     1       1.632   9.610  18.155  0.00  0.00    +0.000 A 
ATOM     17  C   UNL     1       2.375   8.513  17.753  0.00  0.00    +0.000 A 
ATOM     18  C   UNL     1       2.501   7.399  18.592  0.00  0.00    +0.000 A 
ATOM     19  C   UNL     1       1.868   7.366  19.842  0.00  0.00    +0.000 A 
BRANCH  14  21
ATOM     20  O   UNL     1      -0.621   8.163  21.787  0.00  0.00    +0.000 OA
ATOM     21  C   UNL     1       0.526   8.554  21.594  0.00  0.00    +0.000 C 
ENDBRANCH  14  21
ENDBRANCH  13  19
ENDBRANCH   1  13
BRANCH   3  22
ATOM     22  C   UNL     1       5.858   4.640  18.609  0.00  0.00    +0.000 C 
BRANCH  22  23
ATOM     23  O   UNL     1       5.625   4.949  17.240  0.00  0.00    +0.000 OA
BRANCH  23  24
ATOM     24  S   UNL     1       6.793   4.550  16.192  0.00  0.00    +0.000 S 
ATOM     25  O   UNL     1       6.763   5.519  15.117  0.00  0.00    +0.000 OA
ATOM     26  O   UNL     1       7.996   4.245  16.925  0.00  0.00    +0.000 OA
BRANCH  24  27
ATOM     27  O   UNL     1       6.225   3.185  15.556  0.00  0.00    +0.000 OA
ATOM     28  H   UNL     1       6.773   2.448  15.890  0.00  0.00    +0.000 HD
ENDBRANCH  24  27
ENDBRANCH  23  24
ENDBRANCH  22  23
ENDBRANCH   3  22
TORSDOF 10
ENDMDL
MODEL 2
REMARK VINA RESULT:      -7.7      0.598      1.104
REMARK  Name = 
REMARK  10 active torsions:
REMARK  status: ('A' for Active; 'I' for Inactive)
REMARK    1  A    between atoms: C_2  and  C_3
REMARK    2  A    between atoms: C_8  and  O_9
REMARK    3  A    between atoms: O_9  and  C_10
REMARK    4  A    between atoms: C_12  and  C_13
REMARK    5  A    between atoms: C_13  and  O_14
REMARK    6  A    between atoms: O_14  and  S_15
REMARK    7  A    between atoms: S_15  and  O_18
REMARK    8  A    between atoms: C_19  and  O_20
REMARK    9  A    between atoms: C_21  and  O_22
REMARK   10  A    between atoms: C_23  and  O_24
REMARK                            x       y       z     vdW  Elec       q    Type
REMARK                         _______ _______ _______ _____ _____    ______ ____
ROOT
ATOM      1  C   UNL     1       2.637   5.240  20.297  0.00  0.00    +0.000 C 
ATOM      2  O   UNL     1       3.907   5.517  19.713  0.00  0.00    +0.000 OA
ATOM      3  C   UNL     1       4.627   4.369  19.265  0.00  0.00    +0.000 C 
ATOM      4  C   UNL     1       3.814   3.606  18.214  0.00  0.00    +0.000 C 
ATOM      5  C   UNL     1       2.469   3.179  18.819  0.00  0.00    +0.000 C 
ATOM      6  C   UNL     1       1.707   4.382  19.398  0.00  0.00    +0.000 C 
ENDROOT
BRANCH   4   7
ATOM      7  O   UNL     1       4.563   2.482  17.750  0.00  0.00    +0.000 OA
ATOM      8  H   UNL     1       5.322   2.798  17.226  0.00  0.00    +0.000 HD
ENDBRANCH   4   7
BRANCH   5   9
ATOM      9  O   UNL     1       1.687   2.492  17.834  0.00  0.00    +0.000 OA
ATOM     10  H   UNL     1       1.610   3.059  17.044  0.00  0.00    +0.000 HD
ENDBRANCH   5   9
BRANCH   6  11
ATOM     11  O   UNL     1       0.549   3.942  20.127  0.00  0.00    +0.000 OA
ATOM     12  H   UNL     1       0.024   4.715  20.397  0.00  0.00    +0.000 HD
ENDBRANCH   6  11
BRANCH   1  13
ATOM     13  O   UNL     1       1.988   6.445  20.748  0.00  0.00    +0.000 OA
BRANCH  13  19
ATOM     14  C   UNL     1       1.277   8.678  20.391  0.00  0.00    +0.000 A 
ATOM     15  C   UNL     1       1.099   9.797  19.565  0.00  0.00    +0.000 A 
ATOM     16  C   UNL     1       1.532   9.765  18.240  0.00  0.00    +0.000 A 
ATOM     17  C   UNL     1       2.162   8.632  17.751  0.00  0.00    +0.000 A 
ATOM     18  C   UNL     1       2.339   7.512  18.572  0.00  0.00    +0.000 A 
ATOM     19  C   UNL     1       1.871   7.508  19.893  0.00  0.00    +0.000 A 
BRANCH  14  21
ATOM     20  O   UNL     1       1.426   9.425  22.636  0.00  0.00    +0.000 OA
ATOM     21  C   UNL     1       0.827   8.759  21.798  0.00  0.00    +0.000 C 
ENDBRANCH  14  21
ENDBRANCH  13  19
ENDBRANCH   1  13
BRANCH   3  22
ATOM     22  C   UNL     1       5.961   4.845  18.680  0.00  0.00    +0.000 C 
BRANCH  22  23
ATOM     23  O   UNL     1       5.784   5.129  17.298  0.00  0.00    +0.000 OA
BRANCH  23  24
ATOM     24  S   UNL     1       6.920   4.572  16.286  0.00  0.00    +0.000 S 
ATOM     25  O   UNL     1       8.072   4.209  17.082  0.00  0.00    +0.000 OA
ATOM     26  O   UNL     1       6.308   3.661  15.351  0.00  0.00    +0.000 OA
BRANCH  24  27
ATOM     27  O   UNL     1       7.348   5.904  15.492  0.00  0.00    +0.000 OA
ATOM     28  H   UNL     1       7.621   6.572  16.153  0.00  0.00    +0.000 HD
ENDBRANCH  24  27
ENDBRANCH  23  24
ENDBRANCH  22  23
ENDBRANCH   3  22
TORSDOF 10
ENDMDL
MODEL 3
REMARK VINA RESULT:      -7.4      0.931      1.409
REMARK  Name = 
REMARK  10 active torsions:
REMARK  status: ('A' for Active; 'I' for Inactive)
REMARK    1  A    between atoms: C_2  and  C_3
REMARK    2  A    between atoms: C_8  and  O_9
REMARK    3  A    between atoms: O_9  and  C_10
REMARK    4  A    between atoms: C_12  and  C_13
REMARK    5  A    between atoms: C_13  and  O_14
REMARK    6  A    between atoms: O_14  and  S_15
REMARK    7  A    between atoms: S_15  and  O_18
REMARK    8  A    between atoms: C_19  and  O_20
REMARK    9  A    between atoms: C_21  and  O_22
REMARK   10  A    between atoms: C_23  and  O_24
REMARK                            x       y       z     vdW  Elec       q    Type
REMARK                         _______ _______ _______ _____ _____    ______ ____
ROOT
ATOM      1  C   UNL     1       2.711   5.010  20.225  0.00  0.00    +0.000 C 
ATOM      2  O   UNL     1       3.927   5.204  19.508  0.00  0.00    +0.000 OA
ATOM      3  C   UNL     1       4.564   4.005  19.068  0.00  0.00    +0.000 C 
ATOM      4  C   UNL     1       3.630   3.210  18.149  0.00  0.00    +0.000 C 
ATOM      5  C   UNL     1       2.337   2.871  18.904  0.00  0.00    +0.000 C 
ATOM      6  C   UNL     1       1.672   4.134  19.474  0.00  0.00    +0.000 C 
ENDROOT
BRANCH   4   7
ATOM      7  O   UNL     1       4.296   2.034  17.688  0.00  0.00    +0.000 OA
ATOM      8  H   UNL     1       4.820   2.252  16.896  0.00  0.00    +0.000 HD
ENDBRANCH   4   7
BRANCH   5   9
ATOM      9  O   UNL     1       1.442   2.156  18.042  0.00  0.00    +0.000 OA
ATOM     10  H   UNL     1       1.099   1.379  18.521  0.00  0.00    +0.000 HD
ENDBRANCH   5   9
BRANCH   6  11
ATOM     11  O   UNL     1       0.576   3.782  20.335  0.00  0.00    +0.000 OA
ATOM     12  H   UNL     1      -0.257   4.089  19.938  0.00  0.00    +0.000 HD
ENDBRANCH   6  11
BRANCH   1  13
ATOM     13  O   UNL     1       2.146   6.263  20.658  0.00  0.00    +0.000 OA
BRANCH  13  19
ATOM     14  C   UNL     1       1.450   8.487  20.223  0.00  0.00    +0.000 A 
ATOM     15  C   UNL     1       1.284   9.579  19.359  0.00  0.00    +0.000 A 
ATOM     16  C   UNL     1       1.728   9.502  18.040  0.00  0.00    +0.000 A 
ATOM     17  C   UNL     1       2.357   8.351  17.594  0.00  0.00    +0.000 A 
ATOM     18  C   UNL     1       2.521   7.257  18.452  0.00  0.00    +0.000 A 
ATOM     19  C   UNL     1       2.042   7.298  19.768  0.00  0.00    +0.000 A 
BRANCH  14  21
ATOM     20  O   UNL     1       1.460   9.447  22.389  0.00  0.00    +0.000 OA
ATOM     21  C   UNL     1       0.988   8.615  21.622  0.00  0.00    +0.000 C 
ENDBRANCH  14  21
ENDBRANCH  13  19
ENDBRANCH   1  13
BRANCH   3  22
ATOM     22  C   UNL     1       5.850   4.395  18.331  0.00  0.00    +0.000 C 
BRANCH  22  23
ATOM     23  O   UNL     1       5.538   4.670  16.971  0.00  0.00    +0.000 OA
BRANCH  23  24
ATOM     24  S   UNL     1       6.052   6.086  16.375  0.00  0.00    +0.000 S 
ATOM     25  O   UNL     1       7.476   5.971  16.148  0.00  0.00    +0.000 OA
ATOM     26  O   UNL     1       5.138   6.521  15.348  0.00  0.00    +0.000 OA
BRANCH  24  27
ATOM     27  O   UNL     1       5.896   7.063  17.644  0.00  0.00    +0.000 OA
ATOM     28  H   UNL     1       6.630   6.872  18.261  0.00  0.00    +0.000 HD
ENDBRANCH  24  27
ENDBRANCH  23  24
ENDBRANCH  22  23
ENDBRANCH   3  22
TORSDOF 10
ENDMDL
MODEL 4
REMARK VINA RESULT:      -7.4      1.462      2.361
REMARK  Name = 
REMARK  10 active torsions:
REMARK  status: ('A' for Active; 'I' for Inactive)
REMARK    1  A    between atoms: C_2  and  C_3
REMARK    2  A    between atoms: C_8  and  O_9
REMARK    3  A    between atoms: O_9  and  C_10
REMARK    4  A    between atoms: C_12  and  C_13
REMARK    5  A    between atoms: C_13  and  O_14
REMARK    6  A    between atoms: O_14  and  S_15
REMARK    7  A    between atoms: S_15  and  O_18
REMARK    8  A    between atoms: C_19  and  O_20
REMARK    9  A    between atoms: C_21  and  O_22
REMARK   10  A    between atoms: C_23  and  O_24
REMARK                            x       y       z     vdW  Elec       q    Type
REMARK                         _______ _______ _______ _____ _____    ______ ____
ROOT
ATOM      1  C   UNL     1       2.755   5.998  19.647  0.00  0.00    +0.000 C 
ATOM      2  O   UNL     1       4.056   6.019  19.065  0.00  0.00    +0.000 OA
ATOM      3  C   UNL     1       4.943   5.006  19.539  0.00  0.00    +0.000 C 
ATOM      4  C   UNL     1       4.359   3.616  19.267  0.00  0.00    +0.000 C 
ATOM      5  C   UNL     1       2.997   3.488  19.964  0.00  0.00    +0.000 C 
ATOM      6  C   UNL     1       2.045   4.621  19.548  0.00  0.00    +0.000 C 
ENDROOT
BRANCH   4   7
ATOM      7  O   UNL     1       5.275   2.615  19.713  0.00  0.00    +0.000 OA
ATOM      8  H   UNL     1       4.960   2.247  20.559  0.00  0.00    +0.000 HD
ENDBRANCH   4   7
BRANCH   5   9
ATOM      9  O   UNL     1       2.427   2.202  19.689  0.00  0.00    +0.000 OA
ATOM     10  H   UNL     1       1.667   2.062  20.285  0.00  0.00    +0.000 HD
ENDBRANCH   5   9
BRANCH   6  11
ATOM     11  O   UNL     1       0.852   4.597  20.350  0.00  0.00    +0.000 OA
ATOM     12  H   UNL     1       0.073   4.637  19.769  0.00  0.00    +0.000 HD
ENDBRANCH   6  11
BRANCH   1  13
ATOM     13  O   UNL     1       1.931   7.066  19.139  0.00  0.00    +0.000 OA
BRANCH  13  19
ATOM     14  C   UNL     1       1.195   9.303  19.406  0.00  0.00    +0.000 A 
ATOM     15  C   UNL     1       0.806  10.385  20.210  0.00  0.00    +0.000 A 
ATOM     16  C   UNL     1       0.728  10.235  21.593  0.00  0.00    +0.000 A 
ATOM     17  C   UNL     1       1.013   9.008  22.169  0.00  0.00    +0.000 A 
ATOM     18  C   UNL     1       1.405   7.927  21.370  0.00  0.00    +0.000 A 
ATOM     19  C   UNL     1       1.532   8.068  19.982  0.00  0.00    +0.000 A 
BRANCH  14  21
ATOM     20  O   UNL     1       2.205  10.009  17.381  0.00  0.00    +0.000 OA
ATOM     21  C   UNL     1       1.242   9.493  17.940  0.00  0.00    +0.000 C 
ENDBRANCH  14  21
ENDBRANCH  13  19
ENDBRANCH   1  13
BRANCH   3  22
ATOM     22  C   UNL     1       6.287   5.181  18.823  0.00  0.00    +0.000 C 
BRANCH  22  23
ATOM     23  O   UNL     1       6.046   5.417  17.441  0.00  0.00    +0.000 OA
BRANCH  23  24
ATOM     24  S   UNL     1       6.977   4.611  16.389  0.00  0.00    +0.000 S 
ATOM     25  O   UNL     1       8.156   4.167  17.102  0.00  0.00    +0.000 OA
ATOM     26  O   UNL     1       6.150   3.710  15.627  0.00  0.00    +0.000 OA
BRANCH  24  27
ATOM     27  O   UNL     1       7.482   5.787  15.414  0.00  0.00    +0.000 OA
ATOM     28  H   UNL     1       7.385   5.474  14.492  0.00  0.00    +0.000 HD
ENDBRANCH  24  27
ENDBRANCH  23  24
ENDBRANCH  22  23
ENDBRANCH   3  22
TORSDOF 10
ENDMDL
MODEL 5
REMARK VINA RESULT:      -7.4      3.384      5.394
REMARK  Name = 
REMARK  10 active torsions:
REMARK  status: ('A' for Active; 'I' for Inactive)
REMARK    1  A    between atoms: C_2  and  C_3
REMARK    2  A    between atoms: C_8  and  O_9
REMARK    3  A    between atoms: O_9  and  C_10
REMARK    4  A    between atoms: C_12  and  C_13
REMARK    5  A    between atoms: C_13  and  O_14
REMARK    6  A    between atoms: O_14  and  S_15
REMARK    7  A    between atoms: S_15  and  O_18
REMARK    8  A    between atoms: C_19  and  O_20
REMARK    9  A    between atoms: C_21  and  O_22
REMARK   10  A    between atoms: C_23  and  O_24
REMARK                            x       y       z     vdW  Elec       q    Type
REMARK                         _______ _______ _______ _____ _____    ______ ____
ROOT
ATOM      1  C   UNL     1       4.759   4.157  17.567  0.00  0.00    +0.000 C 
ATOM      2  O   UNL     1       5.369   3.920  16.301  0.00  0.00    +0.000 OA
ATOM      3  C   UNL     1       6.074   5.034  15.756  0.00  0.00    +0.000 C 
ATOM      4  C   UNL     1       7.190   5.478  16.708  0.00  0.00    +0.000 C 
ATOM      5  C   UNL     1       6.583   5.856  18.066  0.00  0.00    +0.000 C 
ATOM      6  C   UNL     1       5.735   4.709  18.641  0.00  0.00    +0.000 C 
ENDROOT
BRANCH   4   7
ATOM      7  O   UNL     1       7.910   6.568  16.130  0.00  0.00    +0.000 OA
ATOM      8  H   UNL     1       8.595   6.866  16.756  0.00  0.00    +0.000 HD
ENDBRANCH   4   7
BRANCH   5   9
ATOM      9  O   UNL     1       7.622   6.241  18.975  0.00  0.00    +0.000 OA
ATOM     10  H   UNL     1       8.284   6.768  18.490  0.00  0.00    +0.000 HD
ENDBRANCH   5   9
BRANCH   6  11
ATOM     11  O   UNL     1       5.022   5.146  19.810  0.00  0.00    +0.000 OA
ATOM     12  H   UNL     1       4.219   4.608  19.918  0.00  0.00    +0.000 HD
ENDBRANCH   6  11
BRANCH   1  13
ATOM     13  O   UNL     1       4.045   2.996  18.037  0.00  0.00    +0.000 OA
BRANCH  13  19
ATOM     14  C   UNL     1       3.291   2.418  20.209  0.00  0.00    +0.000 A 
ATOM     15  C   UNL     1       2.351   2.491  21.247  0.00  0.00    +0.000 A 
ATOM     16  C   UNL     1       1.225   3.302  21.114  0.00  0.00    +0.000 A 
ATOM     17  C   UNL     1       1.051   4.053  19.964  0.00  0.00    +0.000 A 
ATOM     18  C   UNL     1       1.985   3.980  18.924  0.00  0.00    +0.000 A 
ATOM     19  C   UNL     1       3.101   3.138  19.019  0.00  0.00    +0.000 A 
BRANCH  14  21
ATOM     20  O   UNL     1       5.345   1.826  21.232  0.00  0.00    +0.000 OA
ATOM     21  C   UNL     1       4.487   1.567  20.396  0.00  0.00    +0.000 C 
ENDBRANCH  14  21
ENDBRANCH  13  19
ENDBRANCH   1  13
BRANCH   3  22
ATOM     22  C   UNL     1       6.652   4.610  14.401  0.00  0.00    +0.000 C 
BRANCH  22  23
ATOM     23  O   UNL     1       5.829   3.592  13.845  0.00  0.00    +0.000 OA
BRANCH  23  24
ATOM     24  S   UNL     1       5.861   3.424  12.234  0.00  0.00    +0.000 S 
ATOM     25  O   UNL     1       4.522   3.667  11.745  0.00  0.00    +0.000 OA
ATOM     26  O   UNL     1       7.013   4.118  11.714  0.00  0.00    +0.000 OA
BRANCH  24  27
ATOM     27  O   UNL     1       6.100   1.841  12.065  0.00  0.00    +0.000 OA
ATOM     28  H   UNL     1       5.441   1.506  11.425  0.00  0.00    +0.000 HD
ENDBRANCH  24  27
ENDBRANCH  23  24
ENDBRANCH  22  23
ENDBRANCH   3  22
TORSDOF 10
ENDMDL
MODEL 6
REMARK VINA RESULT:      -7.3      1.564      2.293
REMARK  Name = 
REMARK  10 active torsions:
REMARK  status: ('A' for Active; 'I' for Inactive)
REMARK    1  A    between atoms: C_2  and  C_3
REMARK    2  A    between atoms: C_8  and  O_9
REMARK    3  A    between atoms: O_9  and  C_10
REMARK    4  A    between atoms: C_12  and  C_13
REMARK    5  A    between atoms: C_13  and  O_14
REMARK    6  A    between atoms: O_14  and  S_15
REMARK    7  A    between atoms: S_15  and  O_18
REMARK    8  A    between atoms: C_19  and  O_20
REMARK    9  A    between atoms: C_21  and  O_22
REMARK   10  A    between atoms: C_23  and  O_24
REMARK                            x       y       z     vdW  Elec       q    Type
REMARK                         _______ _______ _______ _____ _____    ______ ____
ROOT
ATOM      1  C   UNL     1       2.792   6.053  19.614  0.00  0.00    +0.000 C 
ATOM      2  O   UNL     1       4.075   6.070  18.995  0.00  0.00    +0.000 OA
ATOM      3  C   UNL     1       4.973   5.056  19.446  0.00  0.00    +0.000 C 
ATOM      4  C   UNL     1       4.379   3.666  19.194  0.00  0.00    +0.000 C 
ATOM      5  C   UNL     1       3.037   3.544  19.931  0.00  0.00    +0.000 C 
ATOM      6  C   UNL     1       2.076   4.678  19.539  0.00  0.00    +0.000 C 
ENDROOT
BRANCH   4   7
ATOM      7  O   UNL     1       5.305   2.665  19.616  0.00  0.00    +0.000 OA
ATOM      8  H   UNL     1       4.923   2.171  20.365  0.00  0.00    +0.000 HD
ENDBRANCH   4   7
BRANCH   5   9
ATOM      9  O   UNL     1       2.457   2.259  19.676  0.00  0.00    +0.000 OA
ATOM     10  H   UNL     1       2.117   2.244  18.762  0.00  0.00    +0.000 HD
ENDBRANCH   5   9
BRANCH   6  11
ATOM     11  O   UNL     1       0.907   4.659  20.375  0.00  0.00    +0.000 OA
ATOM     12  H   UNL     1       0.340   3.911  20.119  0.00  0.00    +0.000 HD
ENDBRANCH   6  11
BRANCH   1  13
ATOM     13  O   UNL     1       1.955   7.122  19.127  0.00  0.00    +0.000 OA
BRANCH  13  19
ATOM     14  C   UNL     1       1.148   9.329  19.437  0.00  0.00    +0.000 A 
ATOM     15  C   UNL     1       0.740  10.387  20.262  0.00  0.00    +0.000 A 
ATOM     16  C   UNL     1       0.701  10.220  21.645  0.00  0.00    +0.000 A 
ATOM     17  C   UNL     1       1.042   8.997  22.199  0.00  0.00    +0.000 A 
ATOM     18  C   UNL     1       1.453   7.940  21.379  0.00  0.00    +0.000 A 
ATOM     19  C   UNL     1       1.542   8.100  19.990  0.00  0.00    +0.000 A 
BRANCH  14  21
ATOM     20  O   UNL     1       2.182   9.797  17.356  0.00  0.00    +0.000 OA
ATOM     21  C   UNL     1       1.154   9.535  17.972  0.00  0.00    +0.000 C 
ENDBRANCH  14  21
ENDBRANCH  13  19
ENDBRANCH   1  13
BRANCH   3  22
ATOM     22  C   UNL     1       6.296   5.226  18.690  0.00  0.00    +0.000 C 
BRANCH  22  23
ATOM     23  O   UNL     1       6.128   4.768  17.354  0.00  0.00    +0.000 OA
BRANCH  23  24
ATOM     24  S   UNL     1       6.671   5.738  16.175  0.00  0.00    +0.000 S 
ATOM     25  O   UNL     1       5.534   6.109  15.360  0.00  0.00    +0.000 OA
ATOM     26  O   UNL     1       7.565   6.714  16.746  0.00  0.00    +0.000 OA
BRANCH  24  27
ATOM     27  O   UNL     1       7.533   4.722  15.273  0.00  0.00    +0.000 OA
ATOM     28  H   UNL     1       8.398   4.592  15.712  0.00  0.00    +0.000 HD
ENDBRANCH  24  27
ENDBRANCH  23  24
ENDBRANCH  22  23
ENDBRANCH   3  22
TORSDOF 10
ENDMDL
MODEL 7
REMARK VINA RESULT:      -7.3      3.263      5.188
REMARK  Name = 
REMARK  10 active torsions:
REMARK  status: ('A' for Active; 'I' for Inactive)
REMARK    1  A    between atoms: C_2  and  C_3
REMARK    2  A    between atoms: C_8  and  O_9
REMARK    3  A    between atoms: O_9  and  C_10
REMARK    4  A    between atoms: C_12  and  C_13
REMARK    5  A    between atoms: C_13  and  O_14
REMARK    6  A    between atoms: O_14  and  S_15
REMARK    7  A    between atoms: S_15  and  O_18
REMARK    8  A    between atoms: C_19  and  O_20
REMARK    9  A    between atoms: C_21  and  O_22
REMARK   10  A    between atoms: C_23  and  O_24
REMARK                            x       y       z     vdW  Elec       q    Type
REMARK                         _______ _______ _______ _____ _____    ______ ____
ROOT
ATOM      1  C   UNL     1       5.140   5.307  18.286  0.00  0.00    +0.000 C 
ATOM      2  O   UNL     1       4.703   4.928  16.983  0.00  0.00    +0.000 OA
ATOM      3  C   UNL     1       5.659   5.140  15.944  0.00  0.00    +0.000 C 
ATOM      4  C   UNL     1       6.941   4.350  16.228  0.00  0.00    +0.000 C 
ATOM      5  C   UNL     1       7.526   4.794  17.577  0.00  0.00    +0.000 C 
ATOM      6  C   UNL     1       6.491   4.668  18.706  0.00  0.00    +0.000 C 
ENDROOT
BRANCH   4   7
ATOM      7  O   UNL     1       7.870   4.543  15.161  0.00  0.00    +0.000 OA
ATOM      8  H   UNL     1       8.774   4.573  15.526  0.00  0.00    +0.000 HD
ENDBRANCH   4   7
BRANCH   5   9
ATOM      9  O   UNL     1       8.708   4.038  17.868  0.00  0.00    +0.000 OA
ATOM     10  H   UNL     1       8.460   3.262  18.405  0.00  0.00    +0.000 HD
ENDBRANCH   5   9
BRANCH   6  11
ATOM     11  O   UNL     1       6.989   5.265  19.915  0.00  0.00    +0.000 OA
ATOM     12  H   UNL     1       6.590   6.144  20.029  0.00  0.00    +0.000 HD
ENDBRANCH   6  11
BRANCH   1  13
ATOM     13  O   UNL     1       4.112   5.089  19.273  0.00  0.00    +0.000 OA
BRANCH  13  19
ATOM     14  C   UNL     1       3.043   2.999  19.602  0.00  0.00    +0.000 A 
ATOM     15  C   UNL     1       2.015   2.084  19.329  0.00  0.00    +0.000 A 
ATOM     16  C   UNL     1       0.988   2.428  18.452  0.00  0.00    +0.000 A 
ATOM     17  C   UNL     1       0.973   3.685  17.870  0.00  0.00    +0.000 A 
ATOM     18  C   UNL     1       1.999   4.600  18.137  0.00  0.00    +0.000 A 
ATOM     19  C   UNL     1       3.063   4.258  18.981  0.00  0.00    +0.000 A 
BRANCH  14  21
ATOM     20  O   UNL     1       5.029   1.872  20.235  0.00  0.00    +0.000 OA
ATOM     21  C   UNL     1       4.103   2.609  20.557  0.00  0.00    +0.000 C 
ENDBRANCH  14  21
ENDBRANCH  13  19
ENDBRANCH   1  13
BRANCH   3  22
ATOM     22  C   UNL     1       5.026   4.692  14.622  0.00  0.00    +0.000 C 
BRANCH  22  23
ATOM     23  O   UNL     1       5.794   3.625  14.080  0.00  0.00    +0.000 OA
BRANCH  23  24
ATOM     24  S   UNL     1       5.913   3.555  12.466  0.00  0.00    +0.000 S 
ATOM     25  O   UNL     1       4.604   3.845  11.921  0.00  0.00    +0.000 OA
ATOM     26  O   UNL     1       7.097   4.265  12.053  0.00  0.00    +0.000 OA
BRANCH  24  27
ATOM     27  O   UNL     1       6.145   1.983  12.212  0.00  0.00    +0.000 OA
ATOM     28  H   UNL     1       6.030   1.522  13.067  0.00  0.00    +0.000 HD
ENDBRANCH  24  27
ENDBRANCH  23  24
ENDBRANCH  22  23
ENDBRANCH   3  22
TORSDOF 10
ENDMDL
MODEL 8
REMARK VINA RESULT:      -7.3      1.096      1.235
REMARK  Name = 
REMARK  10 active torsions:
REMARK  status: ('A' for Active; 'I' for Inactive)
REMARK    1  A    between atoms: C_2  and  C_3
REMARK    2  A    between atoms: C_8  and  O_9
REMARK    3  A    between atoms: O_9  and  C_10
REMARK    4  A    between atoms: C_12  and  C_13
REMARK    5  A    between atoms: C_13  and  O_14
REMARK    6  A    between atoms: O_14  and  S_15
REMARK    7  A    between atoms: S_15  and  O_18
REMARK    8  A    between atoms: C_19  and  O_20
REMARK    9  A    between atoms: C_21  and  O_22
REMARK   10  A    between atoms: C_23  and  O_24
REMARK                            x       y       z     vdW  Elec       q    Type
REMARK                         _______ _______ _______ _____ _____    ______ ____
ROOT
ATOM      1  C   UNL     1       2.653   4.648  20.225  0.00  0.00    +0.000 C 
ATOM      2  O   UNL     1       3.719   4.824  19.296  0.00  0.00    +0.000 OA
ATOM      3  C   UNL     1       4.368   3.619  18.891  0.00  0.00    +0.000 C 
ATOM      4  C   UNL     1       3.363   2.666  18.236  0.00  0.00    +0.000 C 
ATOM      5  C   UNL     1       2.238   2.347  19.231  0.00  0.00    +0.000 C 
ATOM      6  C   UNL     1       1.578   3.629  19.762  0.00  0.00    +0.000 C 
ENDROOT
BRANCH   4   7
ATOM      7  O   UNL     1       4.035   1.483  17.803  0.00  0.00    +0.000 OA
ATOM      8  H   UNL     1       4.226   1.555  16.850  0.00  0.00    +0.000 HD
ENDBRANCH   4   7
BRANCH   5   9
ATOM      9  O   UNL     1       1.275   1.482  18.617  0.00  0.00    +0.000 OA
ATOM     10  H   UNL     1       0.887   1.939  17.848  0.00  0.00    +0.000 HD
ENDBRANCH   5   9
BRANCH   6  11
ATOM     11  O   UNL     1       0.666   3.322  20.830  0.00  0.00    +0.000 OA
ATOM     12  H   UNL     1      -0.248   3.454  20.522  0.00  0.00    +0.000 HD
ENDBRANCH   6  11
BRANCH   1  13
ATOM     13  O   UNL     1       2.070   5.910  20.606  0.00  0.00    +0.000 OA
BRANCH  13  19
ATOM     14  C   UNL     1       1.552   8.179  20.152  0.00  0.00    +0.000 A 
ATOM     15  C   UNL     1       1.500   9.282  19.287  0.00  0.00    +0.000 A 
ATOM     16  C   UNL     1       1.993   9.174  17.988  0.00  0.00    +0.000 A 
ATOM     17  C   UNL     1       2.556   7.982  17.563  0.00  0.00    +0.000 A 
ATOM     18  C   UNL     1       2.606   6.878  18.422  0.00  0.00    +0.000 A 
ATOM     19  C   UNL     1       2.077   6.952  19.717  0.00  0.00    +0.000 A 
BRANCH  14  21
ATOM     20  O   UNL     1       0.400   9.324  21.878  0.00  0.00    +0.000 OA
ATOM     21  C   UNL     1       1.042   8.338  21.532  0.00  0.00    +0.000 C 
ENDBRANCH  14  21
ENDBRANCH  13  19
ENDBRANCH   1  13
BRANCH   3  22
ATOM     22  C   UNL     1       5.484   3.991  17.908  0.00  0.00    +0.000 C 
BRANCH  22  23
ATOM     23  O   UNL     1       5.937   5.307  18.200  0.00  0.00    +0.000 OA
BRANCH  23  24
ATOM     24  S   UNL     1       7.475   5.651  17.824  0.00  0.00    +0.000 S 
ATOM     25  O   UNL     1       7.479   6.227  16.496  0.00  0.00    +0.000 OA
ATOM     26  O   UNL     1       8.099   6.300  18.950  0.00  0.00    +0.000 OA
BRANCH  24  27
ATOM     27  O   UNL     1       8.119   4.186  17.658  0.00  0.00    +0.000 OA
ATOM     28  H   UNL     1       7.960   3.891  16.739  0.00  0.00    +0.000 HD
ENDBRANCH  24  27
ENDBRANCH  23  24
ENDBRANCH  22  23
ENDBRANCH   3  22
TORSDOF 10
ENDMDL
MODEL 9
REMARK VINA RESULT:      -7.2      2.748      4.761
REMARK  Name = 
REMARK  10 active torsions:
REMARK  status: ('A' for Active; 'I' for Inactive)
REMARK    1  A    between atoms: C_2  and  C_3
REMARK    2  A    between atoms: C_8  and  O_9
REMARK    3  A    between atoms: O_9  and  C_10
REMARK    4  A    between atoms: C_12  and  C_13
REMARK    5  A    between atoms: C_13  and  O_14
REMARK    6  A    between atoms: O_14  and  S_15
REMARK    7  A    between atoms: S_15  and  O_18
REMARK    8  A    between atoms: C_19  and  O_20
REMARK    9  A    between atoms: C_21  and  O_22
REMARK   10  A    between atoms: C_23  and  O_24
REMARK                            x       y       z     vdW  Elec       q    Type
REMARK                         _______ _______ _______ _____ _____    ______ ____
ROOT
ATOM      1  C   UNL     1       5.003   5.643  17.957  0.00  0.00    +0.000 C 
ATOM      2  O   UNL     1       4.645   5.350  16.609  0.00  0.00    +0.000 OA
ATOM      3  C   UNL     1       5.707   5.476  15.665  0.00  0.00    +0.000 C 
ATOM      4  C   UNL     1       6.861   4.536  16.030  0.00  0.00    +0.000 C 
ATOM      5  C   UNL     1       7.370   4.875  17.438  0.00  0.00    +0.000 C 
ATOM      6  C   UNL     1       6.230   4.842  18.470  0.00  0.00    +0.000 C 
ENDROOT
BRANCH   4   7
ATOM      7  O   UNL     1       7.898   4.647  15.055  0.00  0.00    +0.000 OA
ATOM      8  H   UNL     1       7.643   5.313  14.390  0.00  0.00    +0.000 HD
ENDBRANCH   4   7
BRANCH   5   9
ATOM      9  O   UNL     1       8.428   3.980  17.804  0.00  0.00    +0.000 OA
ATOM     10  H   UNL     1       8.834   3.626  16.991  0.00  0.00    +0.000 HD
ENDBRANCH   5   9
BRANCH   6  11
ATOM     11  O   UNL     1       6.682   5.346  19.737  0.00  0.00    +0.000 OA
ATOM     12  H   UNL     1       7.497   5.861  19.608  0.00  0.00    +0.000 HD
ENDBRANCH   6  11
BRANCH   1  13
ATOM     13  O   UNL     1       3.873   5.521  18.844  0.00  0.00    +0.000 OA
BRANCH  13  19
ATOM     14  C   UNL     1       2.138   4.219  19.798  0.00  0.00    +0.000 A 
ATOM     15  C   UNL     1       1.312   3.084  19.811  0.00  0.00    +0.000 A 
ATOM     16  C   UNL     1       1.407   2.139  18.791  0.00  0.00    +0.000 A 
ATOM     17  C   UNL     1       2.302   2.338  17.752  0.00  0.00    +0.000 A 
ATOM     18  C   UNL     1       3.130   3.467  17.738  0.00  0.00    +0.000 A 
ATOM     19  C   UNL     1       3.081   4.406  18.776  0.00  0.00    +0.000 A 
BRANCH  14  21
ATOM     20  O   UNL     1       1.410   6.279  20.716  0.00  0.00    +0.000 OA
ATOM     21  C   UNL     1       1.991   5.212  20.885  0.00  0.00    +0.000 C 
ENDBRANCH  14  21
ENDBRANCH  13  19
ENDBRANCH   1  13
BRANCH   3  22
ATOM     22  C   UNL     1       5.149   5.137  14.278  0.00  0.00    +0.000 C 
BRANCH  22  23
ATOM     23  O   UNL     1       5.570   3.827  13.917  0.00  0.00    +0.000 OA
BRANCH  23  24
ATOM     24  S   UNL     1       5.893   3.568  12.351  0.00  0.00    +0.000 S 
ATOM     25  O   UNL     1       4.648   3.687  11.624  0.00  0.00    +0.000 OA
ATOM     26  O   UNL     1       7.074   4.310  11.988  0.00  0.00    +0.000 OA
BRANCH  24  27
ATOM     27  O   UNL     1       6.252   1.999  12.336  0.00  0.00    +0.000 OA
ATOM     28  H   UNL     1       6.271   1.687  13.263  0.00  0.00    +0.000 HD
ENDBRANCH  24  27
ENDBRANCH  23  24
ENDBRANCH  22  23
ENDBRANCH   3  22
TORSDOF 10
ENDMDL
