MODEL 1
REMARK VINA RESULT:      -8.7      0.000      0.000
REMARK  Name = 
REMARK  10 active torsions:
REMARK  status: ('A' for Active; 'I' for Inactive)
REMARK    1  A    between atoms: C_1  and  C_2
REMARK    2  A    between atoms: C_2  and  C_3
REMARK    3  A    between atoms: C_3  and  C_4
REMARK    4  A    between atoms: C_4  and  O_5
REMARK    5  A    between atoms: O_5  and  C_6
REMARK    6  A    between atoms: C_9  and  C_10
REMARK    7  A    between atoms: N_11  and  N_12
REMARK    8  A    between atoms: C_13  and  C_15
REMARK    9  A    between atoms: C_25  and  C_26
REMARK   10  A    between atoms: C_26  and  N_27
REMARK                            x       y       z     vdW  Elec       q    Type
REMARK                         _______ _______ _______ _____ _____    ______ ____
ROOT
ATOM      1  C   UNL     1       6.247   6.018  18.171  0.00  0.00    +0.000 A 
ATOM      2  N   UNL     1       6.845   4.956  18.804  0.00  0.00    +0.000 NA
ATOM      3  N   UNL     1       5.966   3.969  18.913  0.00  0.00    +0.000 NA
ATOM      4  N   UNL     1       4.777   4.355  18.369  0.00  0.00    +0.000 N 
ATOM      5  C   UNL     1       3.643   3.472  18.270  0.00  0.00    +0.000 A 
ATOM      6  N   UNL     1       2.492   3.898  17.745  0.00  0.00    +0.000 NA
ATOM      7  O   UNL     1       1.640   2.808  17.803  0.00  0.00    +0.000 OA
ATOM      8  N   UNL     1       2.274   1.707  18.362  0.00  0.00    +0.000 NA
ATOM      9  C   UNL     1       3.515   2.120  18.642  0.00  0.00    +0.000 A 
ATOM     10  N   UNL     1       4.434   1.321  19.205  0.00  0.00    +0.000 N 
ATOM     11  C   UNL     1       4.889   5.703  17.975  0.00  0.00    +0.000 A 
ATOM     12  H   UNL     1       4.140   0.410  19.549  0.00  0.00    +0.000 HD
ATOM     13  H   UNL     1       5.287   1.682  19.620  0.00  0.00    +0.000 HD
ENDROOT
BRANCH   1  15
ATOM     14  N   UNL     1       8.119   7.624  18.550  0.00  0.00    +0.000 N 
ATOM     15  C   UNL     1       7.038   7.201  17.745  0.00  0.00    +0.000 C 
ATOM     16  O   UNL     1       6.767   7.778  16.696  0.00  0.00    +0.000 OA
ATOM     17  H   UNL     1       8.418   7.088  19.356  0.00  0.00    +0.000 HD
BRANCH  14  19
ATOM     18  C   UNL     1       9.016   9.687  19.209  0.00  0.00    +0.000 C 
ATOM     19  N   UNL     1       8.741   8.852  18.249  0.00  0.00    +0.000 NA
BRANCH  18  23
ATOM     20  C   UNL     1      10.632  13.698  18.637  0.00  0.00    +0.000 A 
ATOM     21  C   UNL     1       9.704  13.168  17.737  0.00  0.00    +0.000 A 
ATOM     22  C   UNL     1       9.195  11.860  17.905  0.00  0.00    +0.000 A 
ATOM     23  C   UNL     1       9.625  11.047  18.965  0.00  0.00    +0.000 A 
ATOM     24  C   UNL     1      10.614  11.549  19.819  0.00  0.00    +0.000 A 
ATOM     25  C   UNL     1      11.114  12.860  19.650  0.00  0.00    +0.000 A 
BRANCH  20  26
ATOM     26  O   UNL     1      11.128  14.982  18.617  0.00  0.00    +0.000 OA
BRANCH  26  27
ATOM     27  C   UNL     1      10.155  16.036  18.717  0.00  0.00    +0.000 C 
BRANCH  27  28
ATOM     28  C   UNL     1       9.402  15.963  20.057  0.00  0.00    +0.000 C 
BRANCH  28  30
ATOM     29  C   UNL     1       7.484  16.001  18.375  0.00  0.00    +0.000 C 
ATOM     30  C   UNL     1       7.884  16.032  19.844  0.00  0.00    +0.000 C 
ENDBRANCH  28  30
ENDBRANCH  27  28
ENDBRANCH  26  27
ENDBRANCH  20  26
ENDBRANCH  18  23
ENDBRANCH  14  19
ENDBRANCH   1  15
BRANCH  11  31
ATOM     31  C   UNL     1       3.645   6.403  17.497  0.00  0.00    +0.000 C 
BRANCH  31  32
ATOM     32  N   UNL     1       2.974   7.352  18.372  0.00  0.00    +0.000 NA
ATOM     33  C   UNL     1       2.191   8.341  17.668  0.00  0.00    +0.000 C 
ATOM     34  C   UNL     1       1.781   9.619  18.382  0.00  0.00    +0.000 C 
ATOM     35  C   UNL     1       0.839   9.449  19.559  0.00  0.00    +0.000 C 
ATOM     36  C   UNL     1       1.459   8.737  20.751  0.00  0.00    +0.000 C 
ATOM     37  C   UNL     1       1.520   7.240  20.548  0.00  0.00    +0.000 C 
ATOM     38  C   UNL     1       2.647   6.745  19.654  0.00  0.00    +0.000 C 
ENDBRANCH  31  32
ENDBRANCH  11  31
TORSDOF 9
ENDMDL
MODEL 2
REMARK VINA RESULT:      -8.6      0.512      1.232
REMARK  Name = 
REMARK  10 active torsions:
REMARK  status: ('A' for Active; 'I' for Inactive)
REMARK    1  A    between atoms: C_1  and  C_2
REMARK    2  A    between atoms: C_2  and  C_3
REMARK    3  A    between atoms: C_3  and  C_4
REMARK    4  A    between atoms: C_4  and  O_5
REMARK    5  A    between atoms: O_5  and  C_6
REMARK    6  A    between atoms: C_9  and  C_10
REMARK    7  A    between atoms: N_11  and  N_12
REMARK    8  A    between atoms: C_13  and  C_15
REMARK    9  A    between atoms: C_25  and  C_26
REMARK   10  A    between atoms: C_26  and  N_27
REMARK                            x       y       z     vdW  Elec       q    Type
REMARK                         _______ _______ _______ _____ _____    ______ ____
ROOT
ATOM      1  C   UNL     1       6.389   6.068  18.245  0.00  0.00    +0.000 A 
ATOM      2  N   UNL     1       6.918   5.049  18.998  0.00  0.00    +0.000 NA
ATOM      3  N   UNL     1       6.037   4.060  19.065  0.00  0.00    +0.000 NA
ATOM      4  N   UNL     1       4.913   4.404  18.374  0.00  0.00    +0.000 N 
ATOM      5  C   UNL     1       3.801   3.505  18.201  0.00  0.00    +0.000 A 
ATOM      6  N   UNL     1       2.712   3.890  17.531  0.00  0.00    +0.000 NA
ATOM      7  O   UNL     1       1.863   2.796  17.556  0.00  0.00    +0.000 OA
ATOM      8  N   UNL     1       2.436   1.733  18.242  0.00  0.00    +0.000 NA
ATOM      9  C   UNL     1       3.638   2.174  18.632  0.00  0.00    +0.000 A 
ATOM     10  N   UNL     1       4.493   1.416  19.335  0.00  0.00    +0.000 N 
ATOM     11  C   UNL     1       5.062   5.729  17.920  0.00  0.00    +0.000 A 
ATOM     12  H   UNL     1       4.166   0.523  19.695  0.00  0.00    +0.000 HD
ATOM     13  H   UNL     1       5.294   1.809  19.820  0.00  0.00    +0.000 HD
ENDROOT
BRANCH   1  15
ATOM     14  N   UNL     1       8.203   7.710  18.735  0.00  0.00    +0.000 N 
ATOM     15  C   UNL     1       7.217   7.234  17.843  0.00  0.00    +0.000 C 
ATOM     16  O   UNL     1       7.058   7.751  16.741  0.00  0.00    +0.000 OA
ATOM     17  H   UNL     1       8.416   7.220  19.596  0.00  0.00    +0.000 HD
BRANCH  14  19
ATOM     18  C   UNL     1       9.233   9.705  19.405  0.00  0.00    +0.000 C 
ATOM     19  N   UNL     1       8.850   8.925  18.436  0.00  0.00    +0.000 NA
BRANCH  18  23
ATOM     20  C   UNL     1      10.900  13.682  18.736  0.00  0.00    +0.000 A 
ATOM     21  C   UNL     1      10.614  12.838  17.660  0.00  0.00    +0.000 A 
ATOM     22  C   UNL     1      10.095  11.540  17.873  0.00  0.00    +0.000 A 
ATOM     23  C   UNL     1       9.876  11.052  19.170  0.00  0.00    +0.000 A 
ATOM     24  C   UNL     1      10.239  11.866  20.249  0.00  0.00    +0.000 A 
ATOM     25  C   UNL     1      10.749  13.165  20.030  0.00  0.00    +0.000 A 
BRANCH  20  26
ATOM     26  O   UNL     1      11.326  14.986  18.643  0.00  0.00    +0.000 OA
BRANCH  26  27
ATOM     27  C   UNL     1      10.357  15.993  18.982  0.00  0.00    +0.000 C 
BRANCH  27  28
ATOM     28  C   UNL     1       9.450  16.310  17.780  0.00  0.00    +0.000 C 
BRANCH  28  30
ATOM     29  C   UNL     1       7.611  14.974  18.939  0.00  0.00    +0.000 C 
ATOM     30  C   UNL     1       7.967  16.239  18.171  0.00  0.00    +0.000 C 
ENDBRANCH  28  30
ENDBRANCH  27  28
ENDBRANCH  26  27
ENDBRANCH  20  26
ENDBRANCH  18  23
ENDBRANCH  14  19
ENDBRANCH   1  15
BRANCH  11  31
ATOM     31  C   UNL     1       3.875   6.389  17.271  0.00  0.00    +0.000 C 
BRANCH  31  32
ATOM     32  N   UNL     1       2.897   7.079  18.097  0.00  0.00    +0.000 NA
ATOM     33  C   UNL     1       2.990   6.755  19.502  0.00  0.00    +0.000 C 
ATOM     34  C   UNL     1       1.814   7.050  20.419  0.00  0.00    +0.000 C 
ATOM     35  C   UNL     1       1.461   8.516  20.595  0.00  0.00    +0.000 C 
ATOM     36  C   UNL     1       0.914   9.177  19.339  0.00  0.00    +0.000 C 
ATOM     37  C   UNL     1       2.012   9.530  18.362  0.00  0.00    +0.000 C 
ATOM     38  C   UNL     1       2.548   8.374  17.531  0.00  0.00    +0.000 C 
ENDBRANCH  31  32
ENDBRANCH  11  31
TORSDOF 9
ENDMDL
MODEL 3
REMARK VINA RESULT:      -8.4      0.883      1.185
REMARK  Name = 
REMARK  10 active torsions:
REMARK  status: ('A' for Active; 'I' for Inactive)
REMARK    1  A    between atoms: C_1  and  C_2
REMARK    2  A    between atoms: C_2  and  C_3
REMARK    3  A    between atoms: C_3  and  C_4
REMARK    4  A    between atoms: C_4  and  O_5
REMARK    5  A    between atoms: O_5  and  C_6
REMARK    6  A    between atoms: C_9  and  C_10
REMARK    7  A    between atoms: N_11  and  N_12
REMARK    8  A    between atoms: C_13  and  C_15
REMARK    9  A    between atoms: C_25  and  C_26
REMARK   10  A    between atoms: C_26  and  N_27
REMARK                            x       y       z     vdW  Elec       q    Type
REMARK                         _______ _______ _______ _____ _____    ______ ____
ROOT
ATOM      1  C   UNL     1       6.235   6.041  18.176  0.00  0.00    +0.000 A 
ATOM      2  N   UNL     1       6.849   4.988  18.810  0.00  0.00    +0.000 NA
ATOM      3  N   UNL     1       5.982   3.992  18.927  0.00  0.00    +0.000 NA
ATOM      4  N   UNL     1       4.785   4.362  18.388  0.00  0.00    +0.000 N 
ATOM      5  C   UNL     1       3.661   3.466  18.299  0.00  0.00    +0.000 A 
ATOM      6  N   UNL     1       2.502   3.877  17.779  0.00  0.00    +0.000 NA
ATOM      7  O   UNL     1       1.663   2.777  17.846  0.00  0.00    +0.000 OA
ATOM      8  N   UNL     1       2.312   1.685  18.406  0.00  0.00    +0.000 NA
ATOM      9  C   UNL     1       3.550   2.114  18.678  0.00  0.00    +0.000 A 
ATOM     10  N   UNL     1       4.481   1.327  19.239  0.00  0.00    +0.000 N 
ATOM     11  C   UNL     1       4.880   5.710  17.988  0.00  0.00    +0.000 A 
ATOM     12  H   UNL     1       4.199   0.415  19.588  0.00  0.00    +0.000 HD
ATOM     13  H   UNL     1       5.332   1.700  19.648  0.00  0.00    +0.000 HD
ENDROOT
BRANCH   1  15
ATOM     14  N   UNL     1       8.092   7.668  18.537  0.00  0.00    +0.000 N 
ATOM     15  C   UNL     1       7.011   7.231  17.740  0.00  0.00    +0.000 C 
ATOM     16  O   UNL     1       6.726   7.801  16.692  0.00  0.00    +0.000 OA
ATOM     17  H   UNL     1       8.402   7.138  19.343  0.00  0.00    +0.000 HD
BRANCH  14  19
ATOM     18  C   UNL     1       9.003   9.728  19.187  0.00  0.00    +0.000 C 
ATOM     19  N   UNL     1       8.699   8.902  18.228  0.00  0.00    +0.000 NA
BRANCH  18  23
ATOM     20  C   UNL     1      10.539  13.730  18.377  0.00  0.00    +0.000 A 
ATOM     21  C   UNL     1      10.796  12.676  17.497  0.00  0.00    +0.000 A 
ATOM     22  C   UNL     1      10.321  11.372  17.767  0.00  0.00    +0.000 A 
ATOM     23  C   UNL     1       9.598  11.093  18.937  0.00  0.00    +0.000 A 
ATOM     24  C   UNL     1       9.409  12.132  19.856  0.00  0.00    +0.000 A 
ATOM     25  C   UNL     1       9.881  13.434  19.577  0.00  0.00    +0.000 A 
BRANCH  20  26
ATOM     26  O   UNL     1      10.880  15.048  18.173  0.00  0.00    +0.000 OA
BRANCH  26  27
ATOM     27  C   UNL     1      10.569  15.953  19.246  0.00  0.00    +0.000 C 
BRANCH  27  28
ATOM     28  C   UNL     1      11.644  17.046  19.371  0.00  0.00    +0.000 C 
BRANCH  28  30
ATOM     29  C   UNL     1      10.802  18.552  17.492  0.00  0.00    +0.000 C 
ATOM     30  C   UNL     1      11.084  18.421  18.982  0.00  0.00    +0.000 C 
ENDBRANCH  28  30
ENDBRANCH  27  28
ENDBRANCH  26  27
ENDBRANCH  20  26
ENDBRANCH  18  23
ENDBRANCH  14  19
ENDBRANCH   1  15
BRANCH  11  31
ATOM     31  C   UNL     1       3.626   6.394  17.514  0.00  0.00    +0.000 C 
BRANCH  31  32
ATOM     32  N   UNL     1       2.956   7.348  18.384  0.00  0.00    +0.000 NA
ATOM     33  C   UNL     1       2.183   8.341  17.673  0.00  0.00    +0.000 C 
ATOM     34  C   UNL     1       1.777   9.623  18.382  0.00  0.00    +0.000 C 
ATOM     35  C   UNL     1       0.828   9.462  19.555  0.00  0.00    +0.000 C 
ATOM     36  C   UNL     1       1.438   8.749  20.752  0.00  0.00    +0.000 C 
ATOM     37  C   UNL     1       1.490   7.251  20.552  0.00  0.00    +0.000 C 
ATOM     38  C   UNL     1       2.618   6.747  19.665  0.00  0.00    +0.000 C 
ENDBRANCH  31  32
ENDBRANCH  11  31
TORSDOF 9
ENDMDL
MODEL 4
REMARK VINA RESULT:      -8.4      5.652      8.208
REMARK  Name = 
REMARK  10 active torsions:
REMARK  status: ('A' for Active; 'I' for Inactive)
REMARK    1  A    between atoms: C_1  and  C_2
REMARK    2  A    between atoms: C_2  and  C_3
REMARK    3  A    between atoms: C_3  and  C_4
REMARK    4  A    between atoms: C_4  and  O_5
REMARK    5  A    between atoms: O_5  and  C_6
REMARK    6  A    between atoms: C_9  and  C_10
REMARK    7  A    between atoms: N_11  and  N_12
REMARK    8  A    between atoms: C_13  and  C_15
REMARK    9  A    between atoms: C_25  and  C_26
REMARK   10  A    between atoms: C_26  and  N_27
REMARK                            x       y       z     vdW  Elec       q    Type
REMARK                         _______ _______ _______ _____ _____    ______ ____
ROOT
ATOM      1  C   UNL     1       5.314   5.857  17.344  0.00  0.00    +0.000 A 
ATOM      2  N   UNL     1       6.455   6.588  17.121  0.00  0.00    +0.000 NA
ATOM      3  N   UNL     1       6.999   6.199  15.976  0.00  0.00    +0.000 NA
ATOM      4  N   UNL     1       6.244   5.205  15.427  0.00  0.00    +0.000 N 
ATOM      5  C   UNL     1       6.538   4.625  14.142  0.00  0.00    +0.000 A 
ATOM      6  N   UNL     1       5.782   3.642  13.649  0.00  0.00    +0.000 NA
ATOM      7  O   UNL     1       6.340   3.333  12.420  0.00  0.00    +0.000 OA
ATOM      8  N   UNL     1       7.442   4.135  12.155  0.00  0.00    +0.000 NA
ATOM      9  C   UNL     1       7.557   4.937  13.219  0.00  0.00    +0.000 A 
ATOM     10  N   UNL     1       8.525   5.860  13.329  0.00  0.00    +0.000 N 
ATOM     11  C   UNL     1       5.209   4.888  16.328  0.00  0.00    +0.000 A 
ATOM     12  H   UNL     1       9.273   5.862  12.641  0.00  0.00    +0.000 HD
ATOM     13  H   UNL     1       8.751   6.307  14.212  0.00  0.00    +0.000 HD
ENDROOT
BRANCH   1  15
ATOM     14  N   UNL     1       3.259   6.997  18.183  0.00  0.00    +0.000 N 
ATOM     15  C   UNL     1       4.390   6.197  18.457  0.00  0.00    +0.000 C 
ATOM     16  O   UNL     1       4.601   5.764  19.586  0.00  0.00    +0.000 OA
ATOM     17  H   UNL     1       3.018   7.264  17.236  0.00  0.00    +0.000 HD
BRANCH  14  19
ATOM     18  C   UNL     1       1.767   8.543  19.118  0.00  0.00    +0.000 C 
ATOM     19  N   UNL     1       2.496   7.476  19.266  0.00  0.00    +0.000 NA
BRANCH  18  23
ATOM     20  C   UNL     1      -0.380  10.456  22.399  0.00  0.00    +0.000 A 
ATOM     21  C   UNL     1       0.404   9.322  22.625  0.00  0.00    +0.000 A 
ATOM     22  C   UNL     1       1.083   8.684  21.561  0.00  0.00    +0.000 A 
ATOM     23  C   UNL     1       0.970   9.157  20.245  0.00  0.00    +0.000 A 
ATOM     24  C   UNL     1       0.120  10.244  20.007  0.00  0.00    +0.000 A 
ATOM     25  C   UNL     1      -0.550  10.881  21.076  0.00  0.00    +0.000 A 
BRANCH  20  26
ATOM     26  O   UNL     1      -1.013  11.200  23.368  0.00  0.00    +0.000 OA
BRANCH  26  27
ATOM     27  C   UNL     1      -1.954  12.179  22.897  0.00  0.00    +0.000 C 
BRANCH  27  28
ATOM     28  C   UNL     1      -3.233  12.169  23.753  0.00  0.00    +0.000 C 
BRANCH  28  30
ATOM     29  C   UNL     1      -5.605  13.105  23.661  0.00  0.00    +0.000 C 
ATOM     30  C   UNL     1      -4.124  13.376  23.432  0.00  0.00    +0.000 C 
ENDBRANCH  28  30
ENDBRANCH  27  28
ENDBRANCH  26  27
ENDBRANCH  20  26
ENDBRANCH  18  23
ENDBRANCH  14  19
ENDBRANCH   1  15
BRANCH  11  31
ATOM     31  C   UNL     1       4.340   3.700  16.013  0.00  0.00    +0.000 C 
BRANCH  31  32
ATOM     32  N   UNL     1       3.443   3.177  17.031  0.00  0.00    +0.000 NA
ATOM     33  C   UNL     1       4.125   2.620  18.177  0.00  0.00    +0.000 C 
ATOM     34  C   UNL     1       3.377   1.681  19.110  0.00  0.00    +0.000 C 
ATOM     35  C   UNL     1       2.213   2.289  19.872  0.00  0.00    +0.000 C 
ATOM     36  C   UNL     1       1.037   2.685  18.992  0.00  0.00    +0.000 C 
ATOM     37  C   UNL     1       1.284   3.991  18.272  0.00  0.00    +0.000 C 
ATOM     38  C   UNL     1       2.182   3.904  17.047  0.00  0.00    +0.000 C 
ENDBRANCH  31  32
ENDBRANCH  11  31
TORSDOF 9
ENDMDL
MODEL 5
REMARK VINA RESULT:      -8.4      1.044      1.768
REMARK  Name = 
REMARK  10 active torsions:
REMARK  status: ('A' for Active; 'I' for Inactive)
REMARK    1  A    between atoms: C_1  and  C_2
REMARK    2  A    between atoms: C_2  and  C_3
REMARK    3  A    between atoms: C_3  and  C_4
REMARK    4  A    between atoms: C_4  and  O_5
REMARK    5  A    between atoms: O_5  and  C_6
REMARK    6  A    between atoms: C_9  and  C_10
REMARK    7  A    between atoms: N_11  and  N_12
REMARK    8  A    between atoms: C_13  and  C_15
REMARK    9  A    between atoms: C_25  and  C_26
REMARK   10  A    between atoms: C_26  and  N_27
REMARK                            x       y       z     vdW  Elec       q    Type
REMARK                         _______ _______ _______ _____ _____    ______ ____
ROOT
ATOM      1  C   UNL     1       6.489   6.144  18.360  0.00  0.00    +0.000 A 
ATOM      2  N   UNL     1       7.064   5.214  19.192  0.00  0.00    +0.000 NA
ATOM      3  N   UNL     1       6.243   4.180  19.315  0.00  0.00    +0.000 NA
ATOM      4  N   UNL     1       5.114   4.405  18.584  0.00  0.00    +0.000 N 
ATOM      5  C   UNL     1       4.061   3.430  18.459  0.00  0.00    +0.000 A 
ATOM      6  N   UNL     1       2.965   3.699  17.746  0.00  0.00    +0.000 NA
ATOM      7  O   UNL     1       2.182   2.560  17.836  0.00  0.00    +0.000 OA
ATOM      8  N   UNL     1       2.805   1.585  18.604  0.00  0.00    +0.000 NA
ATOM      9  C   UNL     1       3.970   2.124  18.981  0.00  0.00    +0.000 A 
ATOM     10  N   UNL     1       4.855   1.472  19.750  0.00  0.00    +0.000 N 
ATOM     11  C   UNL     1       5.192   5.702  18.039  0.00  0.00    +0.000 A 
ATOM     12  H   UNL     1       4.576   0.588  20.167  0.00  0.00    +0.000 HD
ATOM     13  H   UNL     1       5.621   1.946  20.217  0.00  0.00    +0.000 HD
ENDROOT
BRANCH   1  15
ATOM     14  N   UNL     1       8.216   7.902  18.747  0.00  0.00    +0.000 N 
ATOM     15  C   UNL     1       7.254   7.327  17.888  0.00  0.00    +0.000 C 
ATOM     16  O   UNL     1       7.064   7.772  16.761  0.00  0.00    +0.000 OA
ATOM     17  H   UNL     1       8.457   7.474  19.633  0.00  0.00    +0.000 HD
BRANCH  14  19
ATOM     18  C   UNL     1       9.326   9.894  19.290  0.00  0.00    +0.000 C 
ATOM     19  N   UNL     1       8.797   9.132  18.377  0.00  0.00    +0.000 NA
BRANCH  18  23
ATOM     20  C   UNL     1      11.159  13.724  18.287  0.00  0.00    +0.000 A 
ATOM     21  C   UNL     1      11.529  13.038  19.446  0.00  0.00    +0.000 A 
ATOM     22  C   UNL     1      10.921  11.808  19.788  0.00  0.00    +0.000 A 
ATOM     23  C   UNL     1       9.912  11.252  18.986  0.00  0.00    +0.000 A 
ATOM     24  C   UNL     1       9.485  11.980  17.869  0.00  0.00    +0.000 A 
ATOM     25  C   UNL     1      10.101  13.205  17.529  0.00  0.00    +0.000 A 
BRANCH  20  26
ATOM     26  O   UNL     1      11.739  14.880  17.818  0.00  0.00    +0.000 OA
BRANCH  26  27
ATOM     27  C   UNL     1      11.480  16.071  18.580  0.00  0.00    +0.000 C 
BRANCH  27  28
ATOM     28  C   UNL     1      11.595  17.325  17.696  0.00  0.00    +0.000 C 
BRANCH  28  30
ATOM     29  C   UNL     1       9.583  18.625  18.574  0.00  0.00    +0.000 C 
ATOM     30  C   UNL     1      10.211  17.912  17.385  0.00  0.00    +0.000 C 
ENDBRANCH  28  30
ENDBRANCH  27  28
ENDBRANCH  26  27
ENDBRANCH  20  26
ENDBRANCH  18  23
ENDBRANCH  14  19
ENDBRANCH   1  15
BRANCH  11  31
ATOM     31  C   UNL     1       3.980   6.241  17.326  0.00  0.00    +0.000 C 
BRANCH  31  32
ATOM     32  N   UNL     1       2.985   6.994  18.073  0.00  0.00    +0.000 NA
ATOM     33  C   UNL     1       3.005   6.736  19.494  0.00  0.00    +0.000 C 
ATOM     34  C   UNL     1       1.797   7.105  20.340  0.00  0.00    +0.000 C 
ATOM     35  C   UNL     1       1.477   8.586  20.430  0.00  0.00    +0.000 C 
ATOM     36  C   UNL     1       1.006   9.199  19.120  0.00  0.00    +0.000 C 
ATOM     37  C   UNL     1       2.157   9.477  18.180  0.00  0.00    +0.000 C 
ATOM     38  C   UNL     1       2.698   8.268  17.431  0.00  0.00    +0.000 C 
ENDBRANCH  31  32
ENDBRANCH  11  31
TORSDOF 9
ENDMDL
MODEL 6
REMARK VINA RESULT:      -8.4      0.977      1.572
REMARK  Name = 
REMARK  10 active torsions:
REMARK  status: ('A' for Active; 'I' for Inactive)
REMARK    1  A    between atoms: C_1  and  C_2
REMARK    2  A    between atoms: C_2  and  C_3
REMARK    3  A    between atoms: C_3  and  C_4
REMARK    4  A    between atoms: C_4  and  O_5
REMARK    5  A    between atoms: O_5  and  C_6
REMARK    6  A    between atoms: C_9  and  C_10
REMARK    7  A    between atoms: N_11  and  N_12
REMARK    8  A    between atoms: C_13  and  C_15
REMARK    9  A    between atoms: C_25  and  C_26
REMARK   10  A    between atoms: C_26  and  N_27
REMARK                            x       y       z     vdW  Elec       q    Type
REMARK                         _______ _______ _______ _____ _____    ______ ____
ROOT
ATOM      1  C   UNL     1       6.466   6.053  18.318  0.00  0.00    +0.000 A 
ATOM      2  N   UNL     1       7.064   5.165  19.179  0.00  0.00    +0.000 NA
ATOM      3  N   UNL     1       6.239   4.149  19.392  0.00  0.00    +0.000 NA
ATOM      4  N   UNL     1       5.085   4.345  18.692  0.00  0.00    +0.000 N 
ATOM      5  C   UNL     1       4.020   3.375  18.662  0.00  0.00    +0.000 A 
ATOM      6  N   UNL     1       2.900   3.616  17.977  0.00  0.00    +0.000 NA
ATOM      7  O   UNL     1       2.111   2.492  18.161  0.00  0.00    +0.000 OA
ATOM      8  N   UNL     1       2.755   1.555  18.960  0.00  0.00    +0.000 NA
ATOM      9  C   UNL     1       3.937   2.103  19.261  0.00  0.00    +0.000 A 
ATOM     10  N   UNL     1       4.846   1.486  20.032  0.00  0.00    +0.000 N 
ATOM     11  C   UNL     1       5.154   5.608  18.071  0.00  0.00    +0.000 A 
ATOM     12  H   UNL     1       4.575   0.630  20.510  0.00  0.00    +0.000 HD
ATOM     13  H   UNL     1       5.633   1.977  20.443  0.00  0.00    +0.000 HD
ENDROOT
BRANCH   1  15
ATOM     14  N   UNL     1       8.022   7.981  18.613  0.00  0.00    +0.000 N 
ATOM     15  C   UNL     1       7.223   7.199  17.751  0.00  0.00    +0.000 C 
ATOM     16  O   UNL     1       7.168   7.438  16.548  0.00  0.00    +0.000 OA
ATOM     17  H   UNL     1       8.160   7.723  19.583  0.00  0.00    +0.000 HD
BRANCH  14  19
ATOM     18  C   UNL     1       9.299   9.926  18.897  0.00  0.00    +0.000 C 
ATOM     19  N   UNL     1       8.580   9.175  18.114  0.00  0.00    +0.000 NA
BRANCH  18  23
ATOM     20  C   UNL     1      10.952  13.819  17.828  0.00  0.00    +0.000 A 
ATOM     21  C   UNL     1       9.604  13.532  17.606  0.00  0.00    +0.000 A 
ATOM     22  C   UNL     1       9.068  12.264  17.929  0.00  0.00    +0.000 A 
ATOM     23  C   UNL     1       9.880  11.249  18.459  0.00  0.00    +0.000 A 
ATOM     24  C   UNL     1      11.247  11.511  18.606  0.00  0.00    +0.000 A 
ATOM     25  C   UNL     1      11.775  12.782  18.288  0.00  0.00    +0.000 A 
BRANCH  20  26
ATOM     26  O   UNL     1      11.557  15.039  17.630  0.00  0.00    +0.000 OA
BRANCH  26  27
ATOM     27  C   UNL     1      11.723  15.859  18.799  0.00  0.00    +0.000 C 
BRANCH  27  28
ATOM     28  C   UNL     1      10.480  15.784  19.703  0.00  0.00    +0.000 C 
BRANCH  28  30
ATOM     29  C   UNL     1       9.978  13.982  21.439  0.00  0.00    +0.000 C 
ATOM     30  C   UNL     1      10.827  15.193  21.076  0.00  0.00    +0.000 C 
ENDBRANCH  28  30
ENDBRANCH  27  28
ENDBRANCH  26  27
ENDBRANCH  20  26
ENDBRANCH  18  23
ENDBRANCH  14  19
ENDBRANCH   1  15
BRANCH  11  31
ATOM     31  C   UNL     1       3.921   6.118  17.375  0.00  0.00    +0.000 C 
BRANCH  31  32
ATOM     32  N   UNL     1       2.944   6.895  18.122  0.00  0.00    +0.000 NA
ATOM     33  C   UNL     1       2.984   6.663  19.548  0.00  0.00    +0.000 C 
ATOM     34  C   UNL     1       1.793   7.060  20.404  0.00  0.00    +0.000 C 
ATOM     35  C   UNL     1       1.489   8.546  20.472  0.00  0.00    +0.000 C 
ATOM     36  C   UNL     1       1.005   9.140  19.159  0.00  0.00    +0.000 C 
ATOM     37  C   UNL     1       2.144   9.388  18.197  0.00  0.00    +0.000 C 
ATOM     38  C   UNL     1       2.661   8.161  17.461  0.00  0.00    +0.000 C 
ENDBRANCH  31  32
ENDBRANCH  11  31
TORSDOF 9
ENDMDL
MODEL 7
REMARK VINA RESULT:      -8.0      1.070      1.575
REMARK  Name = 
REMARK  10 active torsions:
REMARK  status: ('A' for Active; 'I' for Inactive)
REMARK    1  A    between atoms: C_1  and  C_2
REMARK    2  A    between atoms: C_2  and  C_3
REMARK    3  A    between atoms: C_3  and  C_4
REMARK    4  A    between atoms: C_4  and  O_5
REMARK    5  A    between atoms: O_5  and  C_6
REMARK    6  A    between atoms: C_9  and  C_10
REMARK    7  A    between atoms: N_11  and  N_12
REMARK    8  A    between atoms: C_13  and  C_15
REMARK    9  A    between atoms: C_25  and  C_26
REMARK   10  A    between atoms: C_26  and  N_27
REMARK                            x       y       z     vdW  Elec       q    Type
REMARK                         _______ _______ _______ _____ _____    ______ ____
ROOT
ATOM      1  C   UNL     1       6.569   6.024  18.245  0.00  0.00    +0.000 A 
ATOM      2  N   UNL     1       7.011   4.942  18.967  0.00  0.00    +0.000 NA
ATOM      3  N   UNL     1       6.075   4.003  18.953  0.00  0.00    +0.000 NA
ATOM      4  N   UNL     1       5.000   4.442  18.238  0.00  0.00    +0.000 N 
ATOM      5  C   UNL     1       3.848   3.616  17.982  0.00  0.00    +0.000 A 
ATOM      6  N   UNL     1       2.809   4.092  17.291  0.00  0.00    +0.000 NA
ATOM      7  O   UNL     1       1.901   3.048  17.233  0.00  0.00    +0.000 OA
ATOM      8  N   UNL     1       2.388   1.924  17.887  0.00  0.00    +0.000 NA
ATOM      9  C   UNL     1       3.595   2.278  18.342  0.00  0.00    +0.000 A 
ATOM     10  N   UNL     1       4.379   1.441  19.039  0.00  0.00    +0.000 N 
ATOM     11  C   UNL     1       5.239   5.776  17.855  0.00  0.00    +0.000 A 
ATOM     12  H   UNL     1       3.990   0.553  19.343  0.00  0.00    +0.000 HD
ATOM     13  H   UNL     1       5.180   1.765  19.571  0.00  0.00    +0.000 HD
ENDROOT
BRANCH   1  15
ATOM     14  N   UNL     1       8.366   7.615  18.926  0.00  0.00    +0.000 N 
ATOM     15  C   UNL     1       7.475   7.158  17.929  0.00  0.00    +0.000 C 
ATOM     16  O   UNL     1       7.461   7.665  16.812  0.00  0.00    +0.000 OA
ATOM     17  H   UNL     1       8.462   7.132  19.810  0.00  0.00    +0.000 HD
BRANCH  14  19
ATOM     18  C   UNL     1       8.443   9.879  18.322  0.00  0.00    +0.000 C 
ATOM     19  N   UNL     1       9.081   8.807  18.692  0.00  0.00    +0.000 NA
BRANCH  18  23
ATOM     20  C   UNL     1      10.490  13.658  17.573  0.00  0.00    +0.000 A 
ATOM     21  C   UNL     1       9.096  13.605  17.649  0.00  0.00    +0.000 A 
ATOM     22  C   UNL     1       8.427  12.379  17.869  0.00  0.00    +0.000 A 
ATOM     23  C   UNL     1       9.141  11.177  17.991  0.00  0.00    +0.000 A 
ATOM     24  C   UNL     1      10.531  11.219  17.834  0.00  0.00    +0.000 A 
ATOM     25  C   UNL     1      11.194  12.448  17.622  0.00  0.00    +0.000 A 
BRANCH  20  26
ATOM     26  O   UNL     1      11.244  14.802  17.446  0.00  0.00    +0.000 OA
BRANCH  26  27
ATOM     27  C   UNL     1      11.638  15.437  18.674  0.00  0.00    +0.000 C 
BRANCH  27  28
ATOM     28  C   UNL     1      10.645  16.546  19.063  0.00  0.00    +0.000 C 
BRANCH  28  30
ATOM     29  C   UNL     1       9.401  18.606  18.215  0.00  0.00    +0.000 C 
ATOM     30  C   UNL     1      10.439  17.535  17.907  0.00  0.00    +0.000 C 
ENDBRANCH  28  30
ENDBRANCH  27  28
ENDBRANCH  26  27
ENDBRANCH  20  26
ENDBRANCH  18  23
ENDBRANCH  14  19
ENDBRANCH   1  15
BRANCH  11  31
ATOM     31  C   UNL     1       4.117   6.531  17.194  0.00  0.00    +0.000 C 
BRANCH  31  32
ATOM     32  N   UNL     1       3.087   7.149  18.016  0.00  0.00    +0.000 NA
ATOM     33  C   UNL     1       3.177   6.808  19.417  0.00  0.00    +0.000 C 
ATOM     34  C   UNL     1       1.972   7.019  20.319  0.00  0.00    +0.000 C 
ATOM     35  C   UNL     1       1.533   8.459  20.513  0.00  0.00    +0.000 C 
ATOM     36  C   UNL     1       0.969   9.109  19.259  0.00  0.00    +0.000 C 
ATOM     37  C   UNL     1       2.059   9.541  18.306  0.00  0.00    +0.000 C 
ATOM     38  C   UNL     1       2.674   8.432  17.466  0.00  0.00    +0.000 C 
ENDBRANCH  31  32
ENDBRANCH  11  31
TORSDOF 9
ENDMDL
MODEL 8
REMARK VINA RESULT:      -8.0      5.563      8.003
REMARK  Name = 
REMARK  10 active torsions:
REMARK  status: ('A' for Active; 'I' for Inactive)
REMARK    1  A    between atoms: C_1  and  C_2
REMARK    2  A    between atoms: C_2  and  C_3
REMARK    3  A    between atoms: C_3  and  C_4
REMARK    4  A    between atoms: C_4  and  O_5
REMARK    5  A    between atoms: O_5  and  C_6
REMARK    6  A    between atoms: C_9  and  C_10
REMARK    7  A    between atoms: N_11  and  N_12
REMARK    8  A    between atoms: C_13  and  C_15
REMARK    9  A    between atoms: C_25  and  C_26
REMARK   10  A    between atoms: C_26  and  N_27
REMARK                            x       y       z     vdW  Elec       q    Type
REMARK                         _______ _______ _______ _____ _____    ______ ____
ROOT
ATOM      1  C   UNL     1       5.637   5.926  17.395  0.00  0.00    +0.000 A 
ATOM      2  N   UNL     1       6.762   6.649  17.079  0.00  0.00    +0.000 NA
ATOM      3  N   UNL     1       7.221   6.240  15.904  0.00  0.00    +0.000 NA
ATOM      4  N   UNL     1       6.425   5.241  15.426  0.00  0.00    +0.000 N 
ATOM      5  C   UNL     1       6.624   4.639  14.133  0.00  0.00    +0.000 A 
ATOM      6  N   UNL     1       5.830   3.652  13.712  0.00  0.00    +0.000 NA
ATOM      7  O   UNL     1       6.297   3.322  12.450  0.00  0.00    +0.000 OA
ATOM      8  N   UNL     1       7.380   4.115  12.094  0.00  0.00    +0.000 NA
ATOM      9  C   UNL     1       7.573   4.933  13.134  0.00  0.00    +0.000 A 
ATOM     10  N   UNL     1       8.550   5.853  13.160  0.00  0.00    +0.000 N 
ATOM     11  C   UNL     1       5.456   4.942  16.405  0.00  0.00    +0.000 A 
ATOM     12  H   UNL     1       9.246   5.842  12.419  0.00  0.00    +0.000 HD
ATOM     13  H   UNL     1       8.841   6.313  14.017  0.00  0.00    +0.000 HD
ENDROOT
BRANCH   1  15
ATOM     14  N   UNL     1       3.472   6.721  18.346  0.00  0.00    +0.000 N 
ATOM     15  C   UNL     1       4.798   6.287  18.566  0.00  0.00    +0.000 C 
ATOM     16  O   UNL     1       5.249   6.181  19.703  0.00  0.00    +0.000 OA
ATOM     17  H   UNL     1       3.058   6.705  17.422  0.00  0.00    +0.000 HD
BRANCH  14  19
ATOM     18  C   UNL     1       1.884   8.199  19.235  0.00  0.00    +0.000 C 
ATOM     19  N   UNL     1       2.746   7.245  19.435  0.00  0.00    +0.000 NA
BRANCH  18  23
ATOM     20  C   UNL     1      -0.210  10.258  22.461  0.00  0.00    +0.000 A 
ATOM     21  C   UNL     1       0.741   9.274  22.742  0.00  0.00    +0.000 A 
ATOM     22  C   UNL     1       1.405   8.587  21.699  0.00  0.00    +0.000 A 
ATOM     23  C   UNL     1       1.113   8.856  20.354  0.00  0.00    +0.000 A 
ATOM     24  C   UNL     1       0.103   9.785  20.074  0.00  0.00    +0.000 A 
ATOM     25  C   UNL     1      -0.552  10.473  21.120  0.00  0.00    +0.000 A 
BRANCH  20  26
ATOM     26  O   UNL     1      -0.852  11.043  23.390  0.00  0.00    +0.000 OA
BRANCH  26  27
ATOM     27  C   UNL     1      -1.516  12.212  22.879  0.00  0.00    +0.000 C 
BRANCH  27  28
ATOM     28  C   UNL     1      -2.978  12.266  23.357  0.00  0.00    +0.000 C 
BRANCH  28  30
ATOM     29  C   UNL     1      -3.747  12.799  20.983  0.00  0.00    +0.000 C 
ATOM     30  C   UNL     1      -3.821  13.179  22.456  0.00  0.00    +0.000 C 
ENDBRANCH  28  30
ENDBRANCH  27  28
ENDBRANCH  26  27
ENDBRANCH  20  26
ENDBRANCH  18  23
ENDBRANCH  14  19
ENDBRANCH   1  15
BRANCH  11  31
ATOM     31  C   UNL     1       4.563   3.753  16.172  0.00  0.00    +0.000 C 
BRANCH  31  32
ATOM     32  N   UNL     1       3.610   3.359  17.198  0.00  0.00    +0.000 NA
ATOM     33  C   UNL     1       2.241   3.695  16.881  0.00  0.00    +0.000 C 
ATOM     34  C   UNL     1       1.203   3.735  17.990  0.00  0.00    +0.000 C 
ATOM     35  C   UNL     1       0.910   2.412  18.675  0.00  0.00    +0.000 C 
ATOM     36  C   UNL     1       2.069   1.870  19.497  0.00  0.00    +0.000 C 
ATOM     37  C   UNL     1       3.122   1.220  18.629  0.00  0.00    +0.000 C 
ATOM     38  C   UNL     1       4.065   2.177  17.914  0.00  0.00    +0.000 C 
ENDBRANCH  31  32
ENDBRANCH  11  31
TORSDOF 9
ENDMDL
MODEL 9
REMARK VINA RESULT:      -7.8      5.532      7.876
REMARK  Name = 
REMARK  10 active torsions:
REMARK  status: ('A' for Active; 'I' for Inactive)
REMARK    1  A    between atoms: C_1  and  C_2
REMARK    2  A    between atoms: C_2  and  C_3
REMARK    3  A    between atoms: C_3  and  C_4
REMARK    4  A    between atoms: C_4  and  O_5
REMARK    5  A    between atoms: O_5  and  C_6
REMARK    6  A    between atoms: C_9  and  C_10
REMARK    7  A    between atoms: N_11  and  N_12
REMARK    8  A    between atoms: C_13  and  C_15
REMARK    9  A    between atoms: C_25  and  C_26
REMARK   10  A    between atoms: C_26  and  N_27
REMARK                            x       y       z     vdW  Elec       q    Type
REMARK                         _______ _______ _______ _____ _____    ______ ____
ROOT
ATOM      1  C   UNL     1       5.031   6.002  17.378  0.00  0.00    +0.000 A 
ATOM      2  N   UNL     1       6.187   6.700  17.128  0.00  0.00    +0.000 NA
ATOM      3  N   UNL     1       6.730   6.246  16.006  0.00  0.00    +0.000 NA
ATOM      4  N   UNL     1       5.958   5.242  15.500  0.00  0.00    +0.000 N 
ATOM      5  C   UNL     1       6.248   4.596  14.246  0.00  0.00    +0.000 A 
ATOM      6  N   UNL     1       5.475   3.605  13.796  0.00  0.00    +0.000 NA
ATOM      7  O   UNL     1       6.033   3.228  12.585  0.00  0.00    +0.000 OA
ATOM      8  N   UNL     1       7.152   3.995  12.290  0.00  0.00    +0.000 NA
ATOM      9  C   UNL     1       7.277   4.845  13.315  0.00  0.00    +0.000 A 
ATOM     10  N   UNL     1       8.261   5.753  13.387  0.00  0.00    +0.000 N 
ATOM     11  C   UNL     1       4.913   4.987  16.409  0.00  0.00    +0.000 A 
ATOM     12  H   UNL     1       9.013   5.709  12.704  0.00  0.00    +0.000 HD
ATOM     13  H   UNL     1       8.492   6.237  14.249  0.00  0.00    +0.000 HD
ENDROOT
BRANCH   1  15
ATOM     14  N   UNL     1       3.040   7.283  18.164  0.00  0.00    +0.000 N 
ATOM     15  C   UNL     1       4.109   6.411  18.468  0.00  0.00    +0.000 C 
ATOM     16  O   UNL     1       4.265   5.973  19.604  0.00  0.00    +0.000 OA
ATOM     17  H   UNL     1       2.838   7.559  17.211  0.00  0.00    +0.000 HD
BRANCH  14  19
ATOM     18  C   UNL     1       1.714   8.981  19.089  0.00  0.00    +0.000 C 
ATOM     19  N   UNL     1       2.288   7.821  19.228  0.00  0.00    +0.000 NA
BRANCH  18  23
ATOM     20  C   UNL     1      -0.688  10.886  22.193  0.00  0.00    +0.000 A 
ATOM     21  C   UNL     1      -0.100  11.646  21.179  0.00  0.00    +0.000 A 
ATOM     22  C   UNL     1       0.699  11.036  20.184  0.00  0.00    +0.000 A 
ATOM     23  C   UNL     1       0.944   9.655  20.199  0.00  0.00    +0.000 A 
ATOM     24  C   UNL     1       0.422   8.906  21.261  0.00  0.00    +0.000 A 
ATOM     25  C   UNL     1      -0.381   9.520  22.248  0.00  0.00    +0.000 A 
BRANCH  20  26
ATOM     26  O   UNL     1      -1.546  11.360  23.158  0.00  0.00    +0.000 OA
BRANCH  26  27
ATOM     27  C   UNL     1      -2.710  12.056  22.680  0.00  0.00    +0.000 C 
BRANCH  27  28
ATOM     28  C   UNL     1      -2.626  13.557  23.009  0.00  0.00    +0.000 C 
BRANCH  28  30
ATOM     29  C   UNL     1      -1.492  15.105  24.690  0.00  0.00    +0.000 C 
ATOM     30  C   UNL     1      -1.349  13.882  23.795  0.00  0.00    +0.000 C 
ENDBRANCH  28  30
ENDBRANCH  27  28
ENDBRANCH  26  27
ENDBRANCH  20  26
ENDBRANCH  18  23
ENDBRANCH  14  19
ENDBRANCH   1  15
BRANCH  11  31
ATOM     31  C   UNL     1       4.023   3.802  16.145  0.00  0.00    +0.000 C 
BRANCH  31  32
ATOM     32  N   UNL     1       3.224   3.250  17.228  0.00  0.00    +0.000 NA
ATOM     33  C   UNL     1       4.009   2.678  18.298  0.00  0.00    +0.000 C 
ATOM     34  C   UNL     1       3.355   1.714  19.274  0.00  0.00    +0.000 C 
ATOM     35  C   UNL     1       2.257   2.295  20.147  0.00  0.00    +0.000 C 
ATOM     36  C   UNL     1       1.004   2.695  19.382  0.00  0.00    +0.000 C 
ATOM     37  C   UNL     1       1.175   4.017  18.670  0.00  0.00    +0.000 C 
ATOM     38  C   UNL     1       1.963   3.964  17.369  0.00  0.00    +0.000 C 
ENDBRANCH  31  32
ENDBRANCH  11  31
TORSDOF 9
ENDMDL
