MODEL 1
REMARK VINA RESULT:      -8.9      0.000      0.000
REMARK  Name = 
REMARK  6 active torsions:
REMARK  status: ('A' for Active; 'I' for Inactive)
REMARK    1  A    between atoms: C_2  and  C_3
REMARK    2  A    between atoms: C_4  and  O_5
REMARK    3  A    between atoms: C_7  and  O_8
REMARK    4  A    between atoms: C_10  and  N_11
REMARK    5  A    between atoms: N_11  and  C_12
REMARK    6  A    between atoms: N_16  and  C_17
REMARK                            x       y       z     vdW  Elec       q    Type
REMARK                         _______ _______ _______ _____ _____    ______ ____
ROOT
ATOM      1  C   UNL     1       4.049   4.134  19.655  0.00  0.00    +0.000 A 
ATOM      2  C   UNL     1       3.752   2.748  19.644  0.00  0.00    +0.000 A 
ATOM      3  C   UNL     1       2.571   2.236  20.189  0.00  0.00    +0.000 A 
ATOM      4  C   UNL     1       1.649   3.110  20.730  0.00  0.00    +0.000 A 
ATOM      5  C   UNL     1       1.886   4.474  20.705  0.00  0.00    +0.000 A 
ATOM      6  C   UNL     1       3.063   5.018  20.145  0.00  0.00    +0.000 A 
ENDROOT
BRANCH   1   8
ATOM      7  O   UNL     1       6.153   5.129  19.847  0.00  0.00    +0.000 OA
ATOM      8  C   UNL     1       5.376   4.548  19.074  0.00  0.00    +0.000 C 
ATOM      9  N   UNL     1       5.695   4.368  17.735  0.00  0.00    +0.000 N 
ATOM     10  C   UNL     1       7.003   4.905  17.213  0.00  0.00    +0.000 C 
ATOM     11  C   UNL     1       6.789   4.780  15.765  0.00  0.00    +0.000 A 
ATOM     12  C   UNL     1       7.409   4.852  14.519  0.00  0.00    +0.000 A 
ATOM     13  N   UNL     1       6.550   4.547  13.525  0.00  0.00    +0.000 NA
ATOM     14  N   UNL     1       5.396   4.239  14.155  0.00  0.00    +0.000 N 
ATOM     15  C   UNL     1       5.541   4.327  15.493  0.00  0.00    +0.000 A 
ATOM     16  C   UNL     1       4.781   3.905  16.655  0.00  0.00    +0.000 C 
ATOM     17  H   UNL     1       4.590   3.954  13.604  0.00  0.00    +0.000 HD
ENDBRANCH   1   8
BRANCH   2  18
ATOM     18  O   UNL     1       4.583   1.804  19.091  0.00  0.00    +0.000 OA
ATOM     19  H   UNL     1       5.335   1.665  19.711  0.00  0.00    +0.000 HD
ENDBRANCH   2  18
BRANCH   4  20
ATOM     20  O   UNL     1       0.476   2.690  21.281  0.00  0.00    +0.000 OA
ATOM     21  H   UNL     1       0.656   1.937  21.872  0.00  0.00    +0.000 HD
ENDBRANCH   4  20
BRANCH   6  22
ATOM     22  N   UNL     1       3.190   6.427  20.124  0.00  0.00    +0.000 N 
ATOM     23  H   UNL     1       3.560   6.817  20.993  0.00  0.00    +0.000 HD
BRANCH  22  24
ATOM     24  C   UNL     1       2.899   7.237  19.061  0.00  0.00    +0.000 A 
ATOM     25  C   UNL     1       3.411   7.245  17.777  0.00  0.00    +0.000 A 
ATOM     26  C   UNL     1       2.655   8.189  17.076  0.00  0.00    +0.000 A 
ATOM     27  N   UNL     1       1.673   8.697  17.815  0.00  0.00    +0.000 NA
ATOM     28  N   UNL     1       1.893   8.209  19.070  0.00  0.00    +0.000 N 
BRANCH  28  29
ATOM     29  C   UNL     1       1.191   8.777  20.168  0.00  0.00    +0.000 A 
ATOM     30  C   UNL     1       0.241   9.776  19.917  0.00  0.00    +0.000 A 
ATOM     31  C   UNL     1      -0.388  10.427  20.978  0.00  0.00    +0.000 A 
ATOM     32  C   UNL     1      -0.060  10.095  22.292  0.00  0.00    +0.000 A 
ATOM     33  C   UNL     1       0.877   9.096  22.546  0.00  0.00    +0.000 A 
ATOM     34  C   UNL     1       1.501   8.431  21.490  0.00  0.00    +0.000 A 
ENDBRANCH  28  29
ENDBRANCH  22  24
ENDBRANCH   6  22
TORSDOF 6
ENDMDL
MODEL 2
REMARK VINA RESULT:      -7.9      4.910      7.832
REMARK  Name = 
REMARK  6 active torsions:
REMARK  status: ('A' for Active; 'I' for Inactive)
REMARK    1  A    between atoms: C_2  and  C_3
REMARK    2  A    between atoms: C_4  and  O_5
REMARK    3  A    between atoms: C_7  and  O_8
REMARK    4  A    between atoms: C_10  and  N_11
REMARK    5  A    between atoms: N_11  and  C_12
REMARK    6  A    between atoms: N_16  and  C_17
REMARK                            x       y       z     vdW  Elec       q    Type
REMARK                         _______ _______ _______ _____ _____    ______ ____
ROOT
ATOM      1  C   UNL     1       0.119  11.298  19.896  0.00  0.00    +0.000 A 
ATOM      2  C   UNL     1       0.889  12.389  20.370  0.00  0.00    +0.000 A 
ATOM      3  C   UNL     1       0.696  13.694  19.907  0.00  0.00    +0.000 A 
ATOM      4  C   UNL     1      -0.297  13.935  18.980  0.00  0.00    +0.000 A 
ATOM      5  C   UNL     1      -1.104  12.899  18.539  0.00  0.00    +0.000 A 
ATOM      6  C   UNL     1      -0.940  11.575  19.003  0.00  0.00    +0.000 A 
ENDROOT
BRANCH   1   8
ATOM      7  O   UNL     1       0.168   9.739  21.634  0.00  0.00    +0.000 OA
ATOM      8  C   UNL     1       0.459   9.937  20.445  0.00  0.00    +0.000 C 
ATOM      9  N   UNL     1       1.132   8.978  19.700  0.00  0.00    +0.000 N 
ATOM     10  C   UNL     1       1.526   7.681  20.359  0.00  0.00    +0.000 C 
ATOM     11  C   UNL     1       2.443   7.133  19.350  0.00  0.00    +0.000 A 
ATOM     12  C   UNL     1       3.158   5.999  18.967  0.00  0.00    +0.000 A 
ATOM     13  N   UNL     1       3.812   6.201  17.805  0.00  0.00    +0.000 NA
ATOM     14  N   UNL     1       3.470   7.454  17.435  0.00  0.00    +0.000 N 
ATOM     15  C   UNL     1       2.616   8.001  18.324  0.00  0.00    +0.000 A 
ATOM     16  C   UNL     1       1.744   9.161  18.355  0.00  0.00    +0.000 C 
ATOM     17  H   UNL     1       3.834   7.831  16.563  0.00  0.00    +0.000 HD
ENDBRANCH   1   8
BRANCH   2  18
ATOM     18  O   UNL     1       1.871  12.260  21.324  0.00  0.00    +0.000 OA
ATOM     19  H   UNL     1       2.661  12.755  21.010  0.00  0.00    +0.000 HD
ENDBRANCH   2  18
BRANCH   4  20
ATOM     20  O   UNL     1      -0.548  15.177  18.479  0.00  0.00    +0.000 OA
ATOM     21  H   UNL     1      -0.868  15.089  17.564  0.00  0.00    +0.000 HD
ENDBRANCH   4  20
BRANCH   6  22
ATOM     22  N   UNL     1      -1.845  10.596  18.530  0.00  0.00    +0.000 N 
ATOM     23  H   UNL     1      -1.890   9.763  19.118  0.00  0.00    +0.000 HD
BRANCH  22  24
ATOM     24  C   UNL     1      -2.637  10.714  17.421  0.00  0.00    +0.000 A 
ATOM     25  C   UNL     1      -2.319  10.604  16.080  0.00  0.00    +0.000 A 
ATOM     26  C   UNL     1      -3.537  10.675  15.397  0.00  0.00    +0.000 A 
ATOM     27  N   UNL     1      -4.576  10.741  16.225  0.00  0.00    +0.000 NA
ATOM     28  N   UNL     1      -4.024  10.890  17.464  0.00  0.00    +0.000 N 
BRANCH  28  29
ATOM     29  C   UNL     1      -4.856  11.273  18.552  0.00  0.00    +0.000 A 
ATOM     30  C   UNL     1      -6.067  10.595  18.747  0.00  0.00    +0.000 A 
ATOM     31  C   UNL     1      -6.953  11.015  19.738  0.00  0.00    +0.000 A 
ATOM     32  C   UNL     1      -6.641  12.121  20.529  0.00  0.00    +0.000 A 
ATOM     33  C   UNL     1      -5.434  12.792  20.345  0.00  0.00    +0.000 A 
ATOM     34  C   UNL     1      -4.537  12.370  19.363  0.00  0.00    +0.000 A 
ENDBRANCH  28  29
ENDBRANCH  22  24
ENDBRANCH   6  22
TORSDOF 6
ENDMDL
MODEL 3
REMARK VINA RESULT:      -7.7      4.643      7.871
REMARK  Name = 
REMARK  6 active torsions:
REMARK  status: ('A' for Active; 'I' for Inactive)
REMARK    1  A    between atoms: C_2  and  C_3
REMARK    2  A    between atoms: C_4  and  O_5
REMARK    3  A    between atoms: C_7  and  O_8
REMARK    4  A    between atoms: C_10  and  N_11
REMARK    5  A    between atoms: N_11  and  C_12
REMARK    6  A    between atoms: N_16  and  C_17
REMARK                            x       y       z     vdW  Elec       q    Type
REMARK                         _______ _______ _______ _____ _____    ______ ____
ROOT
ATOM      1  C   UNL     1       0.025  11.526  19.282  0.00  0.00    +0.000 A 
ATOM      2  C   UNL     1      -1.323  11.953  19.354  0.00  0.00    +0.000 A 
ATOM      3  C   UNL     1      -2.334  11.363  18.590  0.00  0.00    +0.000 A 
ATOM      4  C   UNL     1      -2.015  10.311  17.756  0.00  0.00    +0.000 A 
ATOM      5  C   UNL     1      -0.716   9.833  17.704  0.00  0.00    +0.000 A 
ATOM      6  C   UNL     1       0.320  10.400  18.480  0.00  0.00    +0.000 A 
ENDROOT
BRANCH   1   8
ATOM      7  O   UNL     1       0.816  12.270  21.349  0.00  0.00    +0.000 OA
ATOM      8  C   UNL     1       1.022  12.276  20.126  0.00  0.00    +0.000 C 
ATOM      9  N   UNL     1       2.070  13.001  19.577  0.00  0.00    +0.000 N 
ATOM     10  C   UNL     1       2.960  13.809  20.488  0.00  0.00    +0.000 C 
ATOM     11  C   UNL     1       3.689  14.621  19.504  0.00  0.00    +0.000 A 
ATOM     12  C   UNL     1       4.759  15.497  19.330  0.00  0.00    +0.000 A 
ATOM     13  N   UNL     1       4.897  15.852  18.036  0.00  0.00    +0.000 NA
ATOM     14  N   UNL     1       3.934  15.160  17.389  0.00  0.00    +0.000 N 
ATOM     15  C   UNL     1       3.239  14.386  18.247  0.00  0.00    +0.000 A 
ATOM     16  C   UNL     1       2.298  13.287  18.134  0.00  0.00    +0.000 C 
ATOM     17  H   UNL     1       3.849  15.252  16.379  0.00  0.00    +0.000 HD
ENDBRANCH   1   8
BRANCH   2  18
ATOM     18  O   UNL     1      -1.750  12.963  20.185  0.00  0.00    +0.000 OA
ATOM     19  H   UNL     1      -2.439  13.476  19.704  0.00  0.00    +0.000 HD
ENDBRANCH   2  18
BRANCH   4  20
ATOM     20  O   UNL     1      -2.941   9.683  16.978  0.00  0.00    +0.000 OA
ATOM     21  H   UNL     1      -3.226  10.292  16.274  0.00  0.00    +0.000 HD
ENDBRANCH   4  20
BRANCH   6  22
ATOM     22  N   UNL     1       1.603   9.811  18.393  0.00  0.00    +0.000 N 
ATOM     23  H   UNL     1       2.341  10.474  18.150  0.00  0.00    +0.000 HD
BRANCH  22  24
ATOM     24  C   UNL     1       1.895   8.497  18.638  0.00  0.00    +0.000 A 
ATOM     25  C   UNL     1       2.391   7.520  17.794  0.00  0.00    +0.000 A 
ATOM     26  C   UNL     1       2.625   6.406  18.607  0.00  0.00    +0.000 A 
ATOM     27  N   UNL     1       2.383   6.658  19.890  0.00  0.00    +0.000 NA
ATOM     28  N   UNL     1       1.816   7.899  19.900  0.00  0.00    +0.000 N 
BRANCH  28  29
ATOM     29  C   UNL     1       1.177   8.360  21.084  0.00  0.00    +0.000 A 
ATOM     30  C   UNL     1      -0.222   8.309  21.158  0.00  0.00    +0.000 A 
ATOM     31  C   UNL     1      -0.885   8.850  22.259  0.00  0.00    +0.000 A 
ATOM     32  C   UNL     1      -0.156   9.457  23.282  0.00  0.00    +0.000 A 
ATOM     33  C   UNL     1       1.235   9.500  23.216  0.00  0.00    +0.000 A 
ATOM     34  C   UNL     1       1.906   8.950  22.124  0.00  0.00    +0.000 A 
ENDBRANCH  28  29
ENDBRANCH  22  24
ENDBRANCH   6  22
TORSDOF 6
ENDMDL
MODEL 4
REMARK VINA RESULT:      -7.6      7.769      9.563
REMARK  Name = 
REMARK  6 active torsions:
REMARK  status: ('A' for Active; 'I' for Inactive)
REMARK    1  A    between atoms: C_2  and  C_3
REMARK    2  A    between atoms: C_4  and  O_5
REMARK    3  A    between atoms: C_7  and  O_8
REMARK    4  A    between atoms: C_10  and  N_11
REMARK    5  A    between atoms: N_11  and  C_12
REMARK    6  A    between atoms: N_16  and  C_17
REMARK                            x       y       z     vdW  Elec       q    Type
REMARK                         _______ _______ _______ _____ _____    ______ ____
ROOT
ATOM      1  C   UNL     1      -1.112  12.055  20.764  0.00  0.00    +0.000 A 
ATOM      2  C   UNL     1      -1.056  11.796  22.156  0.00  0.00    +0.000 A 
ATOM      3  C   UNL     1      -2.161  11.976  22.992  0.00  0.00    +0.000 A 
ATOM      4  C   UNL     1      -3.356  12.394  22.442  0.00  0.00    +0.000 A 
ATOM      5  C   UNL     1      -3.458  12.602  21.077  0.00  0.00    +0.000 A 
ATOM      6  C   UNL     1      -2.361  12.410  20.207  0.00  0.00    +0.000 A 
ENDROOT
BRANCH   1   8
ATOM      7  O   UNL     1       0.592  10.700  19.919  0.00  0.00    +0.000 OA
ATOM      8  C   UNL     1       0.163  11.862  19.985  0.00  0.00    +0.000 C 
ATOM      9  N   UNL     1       0.870  12.921  19.435  0.00  0.00    +0.000 N 
ATOM     10  C   UNL     1       2.192  12.651  18.761  0.00  0.00    +0.000 C 
ATOM     11  C   UNL     1       2.709  14.019  18.620  0.00  0.00    +0.000 A 
ATOM     12  C   UNL     1       3.704  14.798  18.032  0.00  0.00    +0.000 A 
ATOM     13  N   UNL     1       3.532  16.106  18.310  0.00  0.00    +0.000 NA
ATOM     14  N   UNL     1       2.397  16.153  19.040  0.00  0.00    +0.000 N 
ATOM     15  C   UNL     1       1.871  14.920  19.190  0.00  0.00    +0.000 A 
ATOM     16  C   UNL     1       0.602  14.372  19.635  0.00  0.00    +0.000 C 
ATOM     17  H   UNL     1       2.046  17.053  19.358  0.00  0.00    +0.000 HD
ENDBRANCH   1   8
BRANCH   2  18
ATOM     18  O   UNL     1       0.074  11.336  22.791  0.00  0.00    +0.000 OA
ATOM     19  H   UNL     1      -0.160  11.166  23.732  0.00  0.00    +0.000 HD
ENDBRANCH   2  18
BRANCH   4  20
ATOM     20  O   UNL     1      -4.478  12.594  23.189  0.00  0.00    +0.000 OA
ATOM     21  H   UNL     1      -4.754  11.745  23.576  0.00  0.00    +0.000 HD
ENDBRANCH   4  20
BRANCH   6  22
ATOM     22  N   UNL     1      -2.578  12.602  18.823  0.00  0.00    +0.000 N 
ATOM     23  H   UNL     1      -2.533  13.580  18.534  0.00  0.00    +0.000 HD
BRANCH  22  24
ATOM     24  C   UNL     1      -2.796  11.610  17.906  0.00  0.00    +0.000 A 
ATOM     25  C   UNL     1      -1.896  10.847  17.184  0.00  0.00    +0.000 A 
ATOM     26  C   UNL     1      -2.667   9.897  16.508  0.00  0.00    +0.000 A 
ATOM     27  N   UNL     1      -3.956   9.974  16.825  0.00  0.00    +0.000 NA
ATOM     28  N   UNL     1      -4.059  11.102  17.587  0.00  0.00    +0.000 N 
BRANCH  28  29
ATOM     29  C   UNL     1      -5.348  11.638  17.862  0.00  0.00    +0.000 A 
ATOM     30  C   UNL     1      -5.840  12.664  17.043  0.00  0.00    +0.000 A 
ATOM     31  C   UNL     1      -7.052  13.282  17.348  0.00  0.00    +0.000 A 
ATOM     32  C   UNL     1      -7.769  12.890  18.479  0.00  0.00    +0.000 A 
ATOM     33  C   UNL     1      -7.288  11.864  19.289  0.00  0.00    +0.000 A 
ATOM     34  C   UNL     1      -6.082  11.232  18.983  0.00  0.00    +0.000 A 
ENDBRANCH  28  29
ENDBRANCH  22  24
ENDBRANCH   6  22
TORSDOF 6
ENDMDL
MODEL 5
REMARK VINA RESULT:      -7.5      6.296      9.763
REMARK  Name = 
REMARK  6 active torsions:
REMARK  status: ('A' for Active; 'I' for Inactive)
REMARK    1  A    between atoms: C_2  and  C_3
REMARK    2  A    between atoms: C_4  and  O_5
REMARK    3  A    between atoms: C_7  and  O_8
REMARK    4  A    between atoms: C_10  and  N_11
REMARK    5  A    between atoms: N_11  and  C_12
REMARK    6  A    between atoms: N_16  and  C_17
REMARK                            x       y       z     vdW  Elec       q    Type
REMARK                         _______ _______ _______ _____ _____    ______ ____
ROOT
ATOM      1  C   UNL     1      -1.137  13.101  21.056  0.00  0.00    +0.000 A 
ATOM      2  C   UNL     1      -1.434  13.112  22.441  0.00  0.00    +0.000 A 
ATOM      3  C   UNL     1      -2.736  12.950  22.924  0.00  0.00    +0.000 A 
ATOM      4  C   UNL     1      -3.763  12.744  22.026  0.00  0.00    +0.000 A 
ATOM      5  C   UNL     1      -3.497  12.672  20.669  0.00  0.00    +0.000 A 
ATOM      6  C   UNL     1      -2.188  12.815  20.156  0.00  0.00    +0.000 A 
ENDROOT
BRANCH   1   8
ATOM      7  O   UNL     1       1.139  12.604  21.223  0.00  0.00    +0.000 OA
ATOM      8  C   UNL     1       0.301  13.331  20.668  0.00  0.00    +0.000 C 
ATOM      9  N   UNL     1       0.688  14.344  19.802  0.00  0.00    +0.000 N 
ATOM     10  C   UNL     1       2.157  14.572  19.549  0.00  0.00    +0.000 C 
ATOM     11  C   UNL     1       2.115  15.871  18.865  0.00  0.00    +0.000 A 
ATOM     12  C   UNL     1       2.869  16.795  18.143  0.00  0.00    +0.000 A 
ATOM     13  N   UNL     1       2.115  17.839  17.743  0.00  0.00    +0.000 NA
ATOM     14  N   UNL     1       0.871  17.547  18.179  0.00  0.00    +0.000 N 
ATOM     15  C   UNL     1       0.850  16.353  18.807  0.00  0.00    +0.000 A 
ATOM     16  C   UNL     1      -0.174  15.426  19.253  0.00  0.00    +0.000 C 
ATOM     17  H   UNL     1       0.110  18.191  17.978  0.00  0.00    +0.000 HD
ENDBRANCH   1   8
BRANCH   2  18
ATOM     18  O   UNL     1      -0.477  13.267  23.415  0.00  0.00    +0.000 OA
ATOM     19  H   UNL     1       0.404  13.253  22.976  0.00  0.00    +0.000 HD
ENDBRANCH   2  18
BRANCH   4  20
ATOM     20  O   UNL     1      -5.058  12.578  22.416  0.00  0.00    +0.000 OA
ATOM     21  H   UNL     1      -5.103  11.844  23.055  0.00  0.00    +0.000 HD
ENDBRANCH   4  20
BRANCH   6  22
ATOM     22  N   UNL     1      -2.011  12.678  18.759  0.00  0.00    +0.000 N 
ATOM     23  H   UNL     1      -1.516  13.462  18.331  0.00  0.00    +0.000 HD
BRANCH  22  24
ATOM     24  C   UNL     1      -2.409  11.606  18.007  0.00  0.00    +0.000 A 
ATOM     25  C   UNL     1      -3.521  11.443  17.202  0.00  0.00    +0.000 A 
ATOM     26  C   UNL     1      -3.348  10.209  16.569  0.00  0.00    +0.000 A 
ATOM     27  N   UNL     1      -2.180   9.647  16.867  0.00  0.00    +0.000 NA
ATOM     28  N   UNL     1      -1.653  10.440  17.845  0.00  0.00    +0.000 N 
BRANCH  28  29
ATOM     29  C   UNL     1      -0.536   9.972  18.591  0.00  0.00    +0.000 A 
ATOM     30  C   UNL     1       0.637   9.630  17.905  0.00  0.00    +0.000 A 
ATOM     31  C   UNL     1       1.712   9.070  18.593  0.00  0.00    +0.000 A 
ATOM     32  C   UNL     1       1.615   8.834  19.965  0.00  0.00    +0.000 A 
ATOM     33  C   UNL     1       0.454   9.182  20.652  0.00  0.00    +0.000 A 
ATOM     34  C   UNL     1      -0.621   9.755  19.972  0.00  0.00    +0.000 A 
ENDBRANCH  28  29
ENDBRANCH  22  24
ENDBRANCH   6  22
TORSDOF 6
ENDMDL
MODEL 6
REMARK VINA RESULT:      -7.4      6.534     10.291
REMARK  Name = 
REMARK  6 active torsions:
REMARK  status: ('A' for Active; 'I' for Inactive)
REMARK    1  A    between atoms: C_2  and  C_3
REMARK    2  A    between atoms: C_4  and  O_5
REMARK    3  A    between atoms: C_7  and  O_8
REMARK    4  A    between atoms: C_10  and  N_11
REMARK    5  A    between atoms: N_11  and  C_12
REMARK    6  A    between atoms: N_16  and  C_17
REMARK                            x       y       z     vdW  Elec       q    Type
REMARK                         _______ _______ _______ _____ _____    ______ ____
ROOT
ATOM      1  C   UNL     1      -2.367  13.703  21.616  0.00  0.00    +0.000 A 
ATOM      2  C   UNL     1      -1.960  14.091  22.916  0.00  0.00    +0.000 A 
ATOM      3  C   UNL     1      -2.855  14.620  23.850  0.00  0.00    +0.000 A 
ATOM      4  C   UNL     1      -4.186  14.743  23.507  0.00  0.00    +0.000 A 
ATOM      5  C   UNL     1      -4.626  14.321  22.264  0.00  0.00    +0.000 A 
ATOM      6  C   UNL     1      -3.745  13.767  21.308  0.00  0.00    +0.000 A 
ENDROOT
BRANCH   1   8
ATOM      7  O   UNL     1      -1.067  13.874  19.684  0.00  0.00    +0.000 OA
ATOM      8  C   UNL     1      -1.294  13.189  20.693  0.00  0.00    +0.000 C 
ATOM      9  N   UNL     1      -0.644  11.981  20.902  0.00  0.00    +0.000 N 
ATOM     10  C   UNL     1       0.343  11.489  19.874  0.00  0.00    +0.000 C 
ATOM     11  C   UNL     1       0.535  10.104  20.322  0.00  0.00    +0.000 A 
ATOM     12  C   UNL     1       1.306   8.955  20.151  0.00  0.00    +0.000 A 
ATOM     13  N   UNL     1       0.929   7.980  21.002  0.00  0.00    +0.000 NA
ATOM     14  N   UNL     1      -0.056   8.534  21.741  0.00  0.00    +0.000 N 
ATOM     15  C   UNL     1      -0.266   9.816  21.377  0.00  0.00    +0.000 A 
ATOM     16  C   UNL     1      -0.976  10.955  21.929  0.00  0.00    +0.000 C 
ATOM     17  H   UNL     1      -0.495   7.986  22.477  0.00  0.00    +0.000 HD
ENDBRANCH   1   8
BRANCH   2  18
ATOM     18  O   UNL     1      -0.667  13.968  23.368  0.00  0.00    +0.000 OA
ATOM     19  H   UNL     1      -0.502  13.015  23.549  0.00  0.00    +0.000 HD
ENDBRANCH   2  18
BRANCH   4  20
ATOM     20  O   UNL     1      -5.120  15.250  24.360  0.00  0.00    +0.000 OA
ATOM     21  H   UNL     1      -4.822  15.106  25.276  0.00  0.00    +0.000 HD
ENDBRANCH   4  20
BRANCH   6  22
ATOM     22  N   UNL     1      -4.299  13.320  20.085  0.00  0.00    +0.000 N 
ATOM     23  H   UNL     1      -3.921  13.800  19.267  0.00  0.00    +0.000 HD
BRANCH  22  24
ATOM     24  C   UNL     1      -5.223  12.322  19.947  0.00  0.00    +0.000 A 
ATOM     25  C   UNL     1      -6.344  12.031  20.703  0.00  0.00    +0.000 A 
ATOM     26  C   UNL     1      -6.993  10.993  20.027  0.00  0.00    +0.000 A 
ATOM     27  N   UNL     1      -6.396  10.686  18.880  0.00  0.00    +0.000 NA
ATOM     28  N   UNL     1      -5.240  11.412  18.885  0.00  0.00    +0.000 N 
BRANCH  28  29
ATOM     29  C   UNL     1      -4.227  11.109  17.934  0.00  0.00    +0.000 A 
ATOM     30  C   UNL     1      -4.501  11.298  16.573  0.00  0.00    +0.000 A 
ATOM     31  C   UNL     1      -3.569  10.912  15.610  0.00  0.00    +0.000 A 
ATOM     32  C   UNL     1      -2.367  10.323  16.001  0.00  0.00    +0.000 A 
ATOM     33  C   UNL     1      -2.086  10.142  17.354  0.00  0.00    +0.000 A 
ATOM     34  C   UNL     1      -3.009  10.537  18.323  0.00  0.00    +0.000 A 
ENDBRANCH  28  29
ENDBRANCH  22  24
ENDBRANCH   6  22
TORSDOF 6
ENDMDL
MODEL 7
REMARK VINA RESULT:      -7.4      5.188      8.464
REMARK  Name = 
REMARK  6 active torsions:
REMARK  status: ('A' for Active; 'I' for Inactive)
REMARK    1  A    between atoms: C_2  and  C_3
REMARK    2  A    between atoms: C_4  and  O_5
REMARK    3  A    between atoms: C_7  and  O_8
REMARK    4  A    between atoms: C_10  and  N_11
REMARK    5  A    between atoms: N_11  and  C_12
REMARK    6  A    between atoms: N_16  and  C_17
REMARK                            x       y       z     vdW  Elec       q    Type
REMARK                         _______ _______ _______ _____ _____    ______ ____
ROOT
ATOM      1  C   UNL     1       0.183  12.284  20.372  0.00  0.00    +0.000 A 
ATOM      2  C   UNL     1       1.163  13.285  20.579  0.00  0.00    +0.000 A 
ATOM      3  C   UNL     1       1.053  14.562  20.023  0.00  0.00    +0.000 A 
ATOM      4  C   UNL     1      -0.061  14.870  19.269  0.00  0.00    +0.000 A 
ATOM      5  C   UNL     1      -1.064  13.931  19.093  0.00  0.00    +0.000 A 
ATOM      6  C   UNL     1      -0.985  12.639  19.660  0.00  0.00    +0.000 A 
ENDROOT
BRANCH   1   8
ATOM      7  O   UNL     1       0.328  10.870  22.225  0.00  0.00    +0.000 OA
ATOM      8  C   UNL     1       0.445  10.936  20.992  0.00  0.00    +0.000 C 
ATOM      9  N   UNL     1       0.872   9.843  20.251  0.00  0.00    +0.000 N 
ATOM     10  C   UNL     1       1.213   8.560  20.966  0.00  0.00    +0.000 C 
ATOM     11  C   UNL     1       1.886   7.821  19.889  0.00  0.00    +0.000 A 
ATOM     12  C   UNL     1       2.392   6.577  19.514  0.00  0.00    +0.000 A 
ATOM     13  N   UNL     1       2.869   6.601  18.253  0.00  0.00    +0.000 NA
ATOM     14  N   UNL     1       2.621   7.855  17.819  0.00  0.00    +0.000 N 
ATOM     15  C   UNL     1       1.991   8.577  18.769  0.00  0.00    +0.000 A 
ATOM     16  C   UNL     1       1.277   9.840  18.819  0.00  0.00    +0.000 C 
ATOM     17  H   UNL     1       2.881   8.113  16.870  0.00  0.00    +0.000 HD
ENDBRANCH   1   8
BRANCH   2  18
ATOM     18  O   UNL     1       2.286  13.091  21.349  0.00  0.00    +0.000 OA
ATOM     19  H   UNL     1       2.768  13.948  21.397  0.00  0.00    +0.000 HD
ENDBRANCH   2  18
BRANCH   4  20
ATOM     20  O   UNL     1      -0.243  16.091  18.692  0.00  0.00    +0.000 OA
ATOM     21  H   UNL     1      -0.654  15.968  17.817  0.00  0.00    +0.000 HD
ENDBRANCH   4  20
BRANCH   6  22
ATOM     22  N   UNL     1      -2.082  11.767  19.464  0.00  0.00    +0.000 N 
ATOM     23  H   UNL     1      -2.421  11.338  20.327  0.00  0.00    +0.000 HD
BRANCH  22  24
ATOM     24  C   UNL     1      -2.695  11.514  18.268  0.00  0.00    +0.000 A 
ATOM     25  C   UNL     1      -2.152  11.249  17.024  0.00  0.00    +0.000 A 
ATOM     26  C   UNL     1      -3.237  10.931  16.201  0.00  0.00    +0.000 A 
ATOM     27  N   UNL     1      -4.387  10.906  16.869  0.00  0.00    +0.000 NA
ATOM     28  N   UNL     1      -4.079  11.384  18.109  0.00  0.00    +0.000 N 
BRANCH  28  29
ATOM     29  C   UNL     1      -5.131  11.755  18.991  0.00  0.00    +0.000 A 
ATOM     30  C   UNL     1      -4.961  12.881  19.808  0.00  0.00    +0.000 A 
ATOM     31  C   UNL     1      -5.928  13.210  20.757  0.00  0.00    +0.000 A 
ATOM     32  C   UNL     1      -7.060  12.409  20.905  0.00  0.00    +0.000 A 
ATOM     33  C   UNL     1      -7.238  11.295  20.088  0.00  0.00    +0.000 A 
ATOM     34  C   UNL     1      -6.281  10.966  19.127  0.00  0.00    +0.000 A 
ENDBRANCH  28  29
ENDBRANCH  22  24
ENDBRANCH   6  22
TORSDOF 6
ENDMDL
MODEL 8
REMARK VINA RESULT:      -7.4      7.746      9.713
REMARK  Name = 
REMARK  6 active torsions:
REMARK  status: ('A' for Active; 'I' for Inactive)
REMARK    1  A    between atoms: C_2  and  C_3
REMARK    2  A    between atoms: C_4  and  O_5
REMARK    3  A    between atoms: C_7  and  O_8
REMARK    4  A    between atoms: C_10  and  N_11
REMARK    5  A    between atoms: N_11  and  C_12
REMARK    6  A    between atoms: N_16  and  C_17
REMARK                            x       y       z     vdW  Elec       q    Type
REMARK                         _______ _______ _______ _____ _____    ______ ____
ROOT
ATOM      1  C   UNL     1      -1.798  11.111  18.512  0.00  0.00    +0.000 A 
ATOM      2  C   UNL     1      -1.401  10.247  17.461  0.00  0.00    +0.000 A 
ATOM      3  C   UNL     1      -2.243   9.944  16.388  0.00  0.00    +0.000 A 
ATOM      4  C   UNL     1      -3.494  10.525  16.333  0.00  0.00    +0.000 A 
ATOM      5  C   UNL     1      -3.891  11.416  17.316  0.00  0.00    +0.000 A 
ATOM      6  C   UNL     1      -3.052  11.753  18.402  0.00  0.00    +0.000 A 
ENDROOT
BRANCH   1   8
ATOM      7  O   UNL     1      -0.867  10.507  20.567  0.00  0.00    +0.000 OA
ATOM      8  C   UNL     1      -0.811  11.319  19.631  0.00  0.00    +0.000 C 
ATOM      9  N   UNL     1       0.062  12.397  19.665  0.00  0.00    +0.000 N 
ATOM     10  C   UNL     1       0.945  12.589  20.872  0.00  0.00    +0.000 C 
ATOM     11  C   UNL     1       1.441  13.950  20.631  0.00  0.00    +0.000 A 
ATOM     12  C   UNL     1       2.362  14.910  21.049  0.00  0.00    +0.000 A 
ATOM     13  N   UNL     1       2.297  16.019  20.284  0.00  0.00    +0.000 NA
ATOM     14  N   UNL     1       1.360  15.736  19.354  0.00  0.00    +0.000 N 
ATOM     15  C   UNL     1       0.877  14.487  19.522  0.00  0.00    +0.000 A 
ATOM     16  C   UNL     1       0.077  13.563  18.739  0.00  0.00    +0.000 C 
ATOM     17  H   UNL     1       1.143  16.427  18.640  0.00  0.00    +0.000 HD
ENDBRANCH   1   8
BRANCH   2  18
ATOM     18  O   UNL     1      -0.162   9.654  17.402  0.00  0.00    +0.000 OA
ATOM     19  H   UNL     1       0.080   9.374  18.314  0.00  0.00    +0.000 HD
ENDBRANCH   2  18
BRANCH   4  20
ATOM     20  O   UNL     1      -4.373  10.280  15.322  0.00  0.00    +0.000 OA
ATOM     21  H   UNL     1      -4.476   9.317  15.220  0.00  0.00    +0.000 HD
ENDBRANCH   4  20
BRANCH   6  22
ATOM     22  N   UNL     1      -3.529  12.711  19.328  0.00  0.00    +0.000 N 
ATOM     23  H   UNL     1      -2.981  13.573  19.342  0.00  0.00    +0.000 HD
BRANCH  22  24
ATOM     24  C   UNL     1      -4.631  12.567  20.125  0.00  0.00    +0.000 A 
ATOM     25  C   UNL     1      -5.924  12.199  19.804  0.00  0.00    +0.000 A 
ATOM     26  C   UNL     1      -6.595  12.081  21.025  0.00  0.00    +0.000 A 
ATOM     27  N   UNL     1      -5.788  12.272  22.065  0.00  0.00    +0.000 NA
ATOM     28  N   UNL     1      -4.611  12.693  21.518  0.00  0.00    +0.000 N 
BRANCH  28  29
ATOM     29  C   UNL     1      -3.616  13.256  22.364  0.00  0.00    +0.000 A 
ATOM     30  C   UNL     1      -3.707  14.614  22.701  0.00  0.00    +0.000 A 
ATOM     31  C   UNL     1      -2.693  15.222  23.440  0.00  0.00    +0.000 A 
ATOM     32  C   UNL     1      -1.578  14.482  23.832  0.00  0.00    +0.000 A 
ATOM     33  C   UNL     1      -1.488  13.130  23.507  0.00  0.00    +0.000 A 
ATOM     34  C   UNL     1      -2.504  12.512  22.779  0.00  0.00    +0.000 A 
ENDBRANCH  28  29
ENDBRANCH  22  24
ENDBRANCH   6  22
TORSDOF 6
ENDMDL
MODEL 9
REMARK VINA RESULT:      -7.4      6.437      9.708
REMARK  Name = 
REMARK  6 active torsions:
REMARK  status: ('A' for Active; 'I' for Inactive)
REMARK    1  A    between atoms: C_2  and  C_3
REMARK    2  A    between atoms: C_4  and  O_5
REMARK    3  A    between atoms: C_7  and  O_8
REMARK    4  A    between atoms: C_10  and  N_11
REMARK    5  A    between atoms: N_11  and  C_12
REMARK    6  A    between atoms: N_16  and  C_17
REMARK                            x       y       z     vdW  Elec       q    Type
REMARK                         _______ _______ _______ _____ _____    ______ ____
ROOT
ATOM      1  C   UNL     1      -2.256  12.997  21.377  0.00  0.00    +0.000 A 
ATOM      2  C   UNL     1      -1.897  12.670  22.708  0.00  0.00    +0.000 A 
ATOM      3  C   UNL     1      -2.852  12.444  23.703  0.00  0.00    +0.000 A 
ATOM      4  C   UNL     1      -4.191  12.515  23.375  0.00  0.00    +0.000 A 
ATOM      5  C   UNL     1      -4.574  12.777  22.071  0.00  0.00    +0.000 A 
ATOM      6  C   UNL     1      -3.629  12.991  21.043  0.00  0.00    +0.000 A 
ENDROOT
BRANCH   1   8
ATOM      7  O   UNL     1      -1.060  14.406  19.950  0.00  0.00    +0.000 OA
ATOM      8  C   UNL     1      -1.128  13.257  20.413  0.00  0.00    +0.000 C 
ATOM      9  N   UNL     1      -0.256  12.261  19.997  0.00  0.00    +0.000 N 
ATOM     10  C   UNL     1       0.780  12.583  18.950  0.00  0.00    +0.000 C 
ATOM     11  C   UNL     1       1.242  11.233  18.602  0.00  0.00    +0.000 A 
ATOM     12  C   UNL     1       2.212  10.512  17.907  0.00  0.00    +0.000 A 
ATOM     13  N   UNL     1       2.048   9.184  18.070  0.00  0.00    +0.000 NA
ATOM     14  N   UNL     1       0.994   9.071  18.908  0.00  0.00    +0.000 N 
ATOM     15  C   UNL     1       0.536  10.287  19.270  0.00  0.00    +0.000 A 
ATOM     16  C   UNL     1      -0.363  10.804  20.285  0.00  0.00    +0.000 C 
ATOM     17  H   UNL     1       0.686   8.146  19.197  0.00  0.00    +0.000 HD
ENDBRANCH   1   8
BRANCH   2  18
ATOM     18  O   UNL     1      -0.594  12.533  23.124  0.00  0.00    +0.000 OA
ATOM     19  H   UNL     1      -0.565  11.806  23.787  0.00  0.00    +0.000 HD
ENDBRANCH   2  18
BRANCH   4  20
ATOM     20  O   UNL     1      -5.182  12.310  24.287  0.00  0.00    +0.000 OA
ATOM     21  H   UNL     1      -5.724  13.116  24.350  0.00  0.00    +0.000 HD
ENDBRANCH   4  20
BRANCH   6  22
ATOM     22  N   UNL     1      -4.120  13.204  19.733  0.00  0.00    +0.000 N 
ATOM     23  H   UNL     1      -3.476  13.726  19.136  0.00  0.00    +0.000 HD
BRANCH  22  24
ATOM     24  C   UNL     1      -5.313  12.748  19.245  0.00  0.00    +0.000 A 
ATOM     25  C   UNL     1      -6.606  12.999  19.667  0.00  0.00    +0.000 A 
ATOM     26  C   UNL     1      -7.435  12.387  18.722  0.00  0.00    +0.000 A 
ATOM     27  N   UNL     1      -6.747  11.852  17.718  0.00  0.00    +0.000 NA
ATOM     28  N   UNL     1      -5.440  11.961  18.095  0.00  0.00    +0.000 N 
BRANCH  28  29
ATOM     29  C   UNL     1      -4.448  11.235  17.380  0.00  0.00    +0.000 A 
ATOM     30  C   UNL     1      -3.578  10.400  18.094  0.00  0.00    +0.000 A 
ATOM     31  C   UNL     1      -2.529   9.757  17.437  0.00  0.00    +0.000 A 
ATOM     32  C   UNL     1      -2.335   9.957  16.070  0.00  0.00    +0.000 A 
ATOM     33  C   UNL     1      -3.205  10.778  15.356  0.00  0.00    +0.000 A 
ATOM     34  C   UNL     1      -4.264  11.415  16.003  0.00  0.00    +0.000 A 
ENDBRANCH  28  29
ENDBRANCH  22  24
ENDBRANCH   6  22
TORSDOF 6
ENDMDL
