MODEL 1
REMARK VINA RESULT:      -7.1      0.000      0.000
REMARK  Name = 
REMARK  8 active torsions:
REMARK  status: ('A' for Active; 'I' for Inactive)
REMARK    1  A    between atoms: C_1  and  N_2
REMARK    2  A    between atoms: N_2  and  C_3
REMARK    3  A    between atoms: N_2  and  C_4
REMARK    4  A    between atoms: C_4  and  C_5
REMARK    5  A    between atoms: C_5  and  C_6
REMARK    6  A    between atoms: C_6  and  C_17
REMARK    7  A    between atoms: N_7  and  N_8
REMARK    8  A    between atoms: N_8  and  C_9
REMARK                            x       y       z     vdW  Elec       q    Type
REMARK                         _______ _______ _______ _____ _____    ______ ____
ROOT
ATOM      1  C   UNL     1       3.687   5.166  17.987  0.00  0.00    +0.000 C 
ATOM      2  N   UNL     1       3.864   6.071  18.910  0.00  0.00    +0.000 NA
ENDROOT
BRANCH   1   3
ATOM      3  C   UNL     1       4.828   4.983  17.016  0.00  0.00    +0.000 A 
ATOM      4  C   UNL     1       5.931   5.845  17.101  0.00  0.00    +0.000 A 
ATOM      5  C   UNL     1       7.017   5.696  16.234  0.00  0.00    +0.000 A 
ATOM      6  C   UNL     1       7.012   4.681  15.280  0.00  0.00    +0.000 A 
ATOM      7  C   UNL     1       5.920   3.821  15.186  0.00  0.00    +0.000 A 
ATOM      8  C   UNL     1       4.828   3.973  16.046  0.00  0.00    +0.000 A 
ENDBRANCH   1   3
BRANCH   2   9
ATOM      9  N   UNL     1       2.836   6.365  19.732  0.00  0.00    +0.000 N 
ATOM     10  H   UNL     1       2.237   5.588  20.041  0.00  0.00    +0.000 HD
BRANCH   9  11
ATOM     11  C   UNL     1       2.168   7.595  19.599  0.00  0.00    +0.000 A 
ATOM     12  C   UNL     1       2.128   8.221  18.344  0.00  0.00    +0.000 A 
ATOM     13  C   UNL     1       1.399   9.397  18.150  0.00  0.00    +0.000 A 
ATOM     14  C   UNL     1       0.681   9.953  19.210  0.00  0.00    +0.000 A 
ATOM     15 CL   UNL     1      -0.221  11.394  18.901  0.00  0.00    +0.000 Cl
ATOM     16  C   UNL     1       0.698   9.330  20.462  0.00  0.00    +0.000 A 
ATOM     17 CL   UNL     1      -0.201   9.935  21.808  0.00  0.00    +0.000 Cl
ATOM     18  C   UNL     1       1.442   8.160  20.650  0.00  0.00    +0.000 A 
ENDBRANCH   9  11
ENDBRANCH   2   9
BRANCH   1  19
ATOM     19  C   UNL     1       2.459   4.267  17.752  0.00  0.00    +0.000 C 
BRANCH  19  20
ATOM     20  C   UNL     1       2.154   3.060  18.650  0.00  0.00    +0.000 C 
BRANCH  20  22
ATOM     21  C   UNL     1       1.266   2.899  20.924  0.00  0.00    +0.000 C 
ATOM     22  N   UNL     1       2.423   3.238  20.096  0.00  0.00    +0.000 NA
ATOM     23  C   UNL     1       3.580   2.420  20.484  0.00  0.00    +0.000 C 
ENDBRANCH  20  22
ENDBRANCH  19  20
ENDBRANCH   1  19
TORSDOF 6
ENDMDL
MODEL 2
REMARK VINA RESULT:      -7.1      0.673      1.355
REMARK  Name = 
REMARK  8 active torsions:
REMARK  status: ('A' for Active; 'I' for Inactive)
REMARK    1  A    between atoms: C_1  and  N_2
REMARK    2  A    between atoms: N_2  and  C_3
REMARK    3  A    between atoms: N_2  and  C_4
REMARK    4  A    between atoms: C_4  and  C_5
REMARK    5  A    between atoms: C_5  and  C_6
REMARK    6  A    between atoms: C_6  and  C_17
REMARK    7  A    between atoms: N_7  and  N_8
REMARK    8  A    between atoms: N_8  and  C_9
REMARK                            x       y       z     vdW  Elec       q    Type
REMARK                         _______ _______ _______ _____ _____    ______ ____
ROOT
ATOM      1  C   UNL     1       3.912   4.966  18.292  0.00  0.00    +0.000 C 
ATOM      2  N   UNL     1       3.872   6.040  19.031  0.00  0.00    +0.000 NA
ENDROOT
BRANCH   1   3
ATOM      3  C   UNL     1       5.015   4.912  17.264  0.00  0.00    +0.000 A 
ATOM      4  C   UNL     1       4.900   4.010  16.196  0.00  0.00    +0.000 A 
ATOM      5  C   UNL     1       5.890   3.945  15.213  0.00  0.00    +0.000 A 
ATOM      6  C   UNL     1       7.001   4.783  15.285  0.00  0.00    +0.000 A 
ATOM      7  C   UNL     1       7.126   5.680  16.343  0.00  0.00    +0.000 A 
ATOM      8  C   UNL     1       6.141   5.743  17.334  0.00  0.00    +0.000 A 
ENDBRANCH   1   3
BRANCH   2   9
ATOM      9  N   UNL     1       2.841   6.200  19.884  0.00  0.00    +0.000 N 
ATOM     10  H   UNL     1       2.268   5.374  20.098  0.00  0.00    +0.000 HD
BRANCH   9  11
ATOM     11  C   UNL     1       2.133   7.416  19.901  0.00  0.00    +0.000 A 
ATOM     12  C   UNL     1       2.111   8.212  18.745  0.00  0.00    +0.000 A 
ATOM     13  C   UNL     1       1.347   9.380  18.692  0.00  0.00    +0.000 A 
ATOM     14  C   UNL     1       0.578   9.759  19.792  0.00  0.00    +0.000 A 
ATOM     15 CL   UNL     1      -0.365  11.201  19.657  0.00  0.00    +0.000 Cl
ATOM     16  C   UNL     1       0.577   8.966  20.945  0.00  0.00    +0.000 A 
ATOM     17 CL   UNL     1      -0.384   9.348  22.330  0.00  0.00    +0.000 Cl
ATOM     18  C   UNL     1       1.356   7.804  20.994  0.00  0.00    +0.000 A 
ENDBRANCH   9  11
ENDBRANCH   2   9
BRANCH   1  19
ATOM     19  C   UNL     1       2.969   3.748  18.325  0.00  0.00    +0.000 C 
BRANCH  19  20
ATOM     20  C   UNL     1       3.111   2.641  19.378  0.00  0.00    +0.000 C 
BRANCH  20  22
ATOM     21  C   UNL     1       2.056   2.929  21.567  0.00  0.00    +0.000 C 
ATOM     22  N   UNL     1       1.918   2.382  20.217  0.00  0.00    +0.000 NA
ATOM     23  C   UNL     1       0.727   2.941  19.564  0.00  0.00    +0.000 C 
ENDBRANCH  20  22
ENDBRANCH  19  20
ENDBRANCH   1  19
TORSDOF 6
ENDMDL
MODEL 3
REMARK VINA RESULT:      -7.1      1.032      1.427
REMARK  Name = 
REMARK  8 active torsions:
REMARK  status: ('A' for Active; 'I' for Inactive)
REMARK    1  A    between atoms: C_1  and  N_2
REMARK    2  A    between atoms: N_2  and  C_3
REMARK    3  A    between atoms: N_2  and  C_4
REMARK    4  A    between atoms: C_4  and  C_5
REMARK    5  A    between atoms: C_5  and  C_6
REMARK    6  A    between atoms: C_6  and  C_17
REMARK    7  A    between atoms: N_7  and  N_8
REMARK    8  A    between atoms: N_8  and  C_9
REMARK                            x       y       z     vdW  Elec       q    Type
REMARK                         _______ _______ _______ _____ _____    ______ ____
ROOT
ATOM      1  C   UNL     1       4.297   5.128  18.840  0.00  0.00    +0.000 C 
ATOM      2  N   UNL     1       3.653   6.257  18.953  0.00  0.00    +0.000 NA
ENDROOT
BRANCH   1   3
ATOM      3  C   UNL     1       5.237   5.019  17.665  0.00  0.00    +0.000 A 
ATOM      4  C   UNL     1       4.769   5.371  16.391  0.00  0.00    +0.000 A 
ATOM      5  C   UNL     1       5.614   5.303  15.281  0.00  0.00    +0.000 A 
ATOM      6  C   UNL     1       6.935   4.889  15.434  0.00  0.00    +0.000 A 
ATOM      7  C   UNL     1       7.409   4.535  16.695  0.00  0.00    +0.000 A 
ATOM      8  C   UNL     1       6.564   4.594  17.808  0.00  0.00    +0.000 A 
ENDBRANCH   1   3
BRANCH   2   9
ATOM      9  N   UNL     1       2.712   6.372  19.910  0.00  0.00    +0.000 N 
ATOM     10  H   UNL     1       2.194   5.523  20.173  0.00  0.00    +0.000 HD
BRANCH   9  11
ATOM     11  C   UNL     1       1.968   7.561  20.017  0.00  0.00    +0.000 A 
ATOM     12  C   UNL     1       1.880   8.416  18.908  0.00  0.00    +0.000 A 
ATOM     13  C   UNL     1       1.079   9.560  18.945  0.00  0.00    +0.000 A 
ATOM     14  C   UNL     1       0.337   9.854  20.089  0.00  0.00    +0.000 A 
ATOM     15 CL   UNL     1      -0.654  11.269  20.064  0.00  0.00    +0.000 Cl
ATOM     16  C   UNL     1       0.402   9.000  21.196  0.00  0.00    +0.000 A 
ATOM     17 CL   UNL     1      -0.522   9.275  22.631  0.00  0.00    +0.000 Cl
ATOM     18  C   UNL     1       1.218   7.864  21.156  0.00  0.00    +0.000 A 
ENDBRANCH   9  11
ENDBRANCH   2   9
BRANCH   1  19
ATOM     19  C   UNL     1       4.214   3.886  19.747  0.00  0.00    +0.000 C 
BRANCH  19  20
ATOM     20  C   UNL     1       3.154   2.798  19.537  0.00  0.00    +0.000 C 
BRANCH  20  22
ATOM     21  C   UNL     1       0.829   2.508  18.829  0.00  0.00    +0.000 C 
ATOM     22  N   UNL     1       1.744   3.214  19.726  0.00  0.00    +0.000 NA
ATOM     23  C   UNL     1       1.351   2.994  21.124  0.00  0.00    +0.000 C 
ENDBRANCH  20  22
ENDBRANCH  19  20
ENDBRANCH   1  19
TORSDOF 6
ENDMDL
MODEL 4
REMARK VINA RESULT:      -7.0      3.543      5.463
REMARK  Name = 
REMARK  8 active torsions:
REMARK  status: ('A' for Active; 'I' for Inactive)
REMARK    1  A    between atoms: C_1  and  N_2
REMARK    2  A    between atoms: N_2  and  C_3
REMARK    3  A    between atoms: N_2  and  C_4
REMARK    4  A    between atoms: C_4  and  C_5
REMARK    5  A    between atoms: C_5  and  C_6
REMARK    6  A    between atoms: C_6  and  C_17
REMARK    7  A    between atoms: N_7  and  N_8
REMARK    8  A    between atoms: N_8  and  C_9
REMARK                            x       y       z     vdW  Elec       q    Type
REMARK                         _______ _______ _______ _____ _____    ______ ____
ROOT
ATOM      1  C   UNL     1       5.944   4.790  15.775  0.00  0.00    +0.000 C 
ATOM      2  N   UNL     1       6.022   3.737  16.542  0.00  0.00    +0.000 NA
ENDROOT
BRANCH   1   3
ATOM      3  C   UNL     1       6.439   4.613  14.360  0.00  0.00    +0.000 A 
ATOM      4  C   UNL     1       5.829   3.646  13.548  0.00  0.00    +0.000 A 
ATOM      5  C   UNL     1       6.244   3.465  12.226  0.00  0.00    +0.000 A 
ATOM      6  C   UNL     1       7.267   4.253  11.703  0.00  0.00    +0.000 A 
ATOM      7  C   UNL     1       7.882   5.214  12.503  0.00  0.00    +0.000 A 
ATOM      8  C   UNL     1       7.474   5.392  13.828  0.00  0.00    +0.000 A 
ENDBRANCH   1   3
BRANCH   2   9
ATOM      9  N   UNL     1       5.708   3.864  17.846  0.00  0.00    +0.000 N 
ATOM     10  H   UNL     1       6.413   3.574  18.536  0.00  0.00    +0.000 HD
BRANCH   9  11
ATOM     11  C   UNL     1       4.378   3.677  18.264  0.00  0.00    +0.000 A 
ATOM     12  C   UNL     1       3.683   2.531  17.847  0.00  0.00    +0.000 A 
ATOM     13  C   UNL     1       2.393   2.263  18.312  0.00  0.00    +0.000 A 
ATOM     14  C   UNL     1       1.787   3.132  19.219  0.00  0.00    +0.000 A 
ATOM     15 CL   UNL     1       0.200   2.734  19.777  0.00  0.00    +0.000 Cl
ATOM     16  C   UNL     1       2.474   4.270  19.657  0.00  0.00    +0.000 A 
ATOM     17 CL   UNL     1       1.804   5.368  20.811  0.00  0.00    +0.000 Cl
ATOM     18  C   UNL     1       3.760   4.537  19.175  0.00  0.00    +0.000 A 
ENDBRANCH   9  11
ENDBRANCH   2   9
BRANCH   1  19
ATOM     19  C   UNL     1       5.423   6.195  16.129  0.00  0.00    +0.000 C 
BRANCH  19  20
ATOM     20  C   UNL     1       5.941   6.969  17.349  0.00  0.00    +0.000 C 
BRANCH  20  22
ATOM     21  C   UNL     1       7.875   8.449  17.582  0.00  0.00    +0.000 C 
ATOM     22  N   UNL     1       7.413   7.065  17.484  0.00  0.00    +0.000 NA
ATOM     23  C   UNL     1       7.848   6.302  18.661  0.00  0.00    +0.000 C 
ENDBRANCH  20  22
ENDBRANCH  19  20
ENDBRANCH   1  19
TORSDOF 6
ENDMDL
MODEL 5
REMARK VINA RESULT:      -7.0      1.080      1.582
REMARK  Name = 
REMARK  8 active torsions:
REMARK  status: ('A' for Active; 'I' for Inactive)
REMARK    1  A    between atoms: C_1  and  N_2
REMARK    2  A    between atoms: N_2  and  C_3
REMARK    3  A    between atoms: N_2  and  C_4
REMARK    4  A    between atoms: C_4  and  C_5
REMARK    5  A    between atoms: C_5  and  C_6
REMARK    6  A    between atoms: C_6  and  C_17
REMARK    7  A    between atoms: N_7  and  N_8
REMARK    8  A    between atoms: N_8  and  C_9
REMARK                            x       y       z     vdW  Elec       q    Type
REMARK                         _______ _______ _______ _____ _____    ______ ____
ROOT
ATOM      1  C   UNL     1       3.996   5.397  18.629  0.00  0.00    +0.000 C 
ATOM      2  N   UNL     1       3.272   6.473  18.773  0.00  0.00    +0.000 NA
ENDROOT
BRANCH   1   3
ATOM      3  C   UNL     1       4.668   5.228  17.289  0.00  0.00    +0.000 A 
ATOM      4  C   UNL     1       5.095   3.949  16.904  0.00  0.00    +0.000 A 
ATOM      5  C   UNL     1       5.703   3.748  15.662  0.00  0.00    +0.000 A 
ATOM      6  C   UNL     1       5.884   4.821  14.793  0.00  0.00    +0.000 A 
ATOM      7  C   UNL     1       5.465   6.095  15.166  0.00  0.00    +0.000 A 
ATOM      8  C   UNL     1       4.864   6.302  16.412  0.00  0.00    +0.000 A 
ENDBRANCH   1   3
BRANCH   2   9
ATOM      9  N   UNL     1       2.552   6.620  19.903  0.00  0.00    +0.000 N 
ATOM     10  H   UNL     1       2.119   5.779  20.304  0.00  0.00    +0.000 HD
BRANCH   9  11
ATOM     11  C   UNL     1       1.823   7.805  20.114  0.00  0.00    +0.000 A 
ATOM     12  C   UNL     1       1.619   8.685  19.040  0.00  0.00    +0.000 A 
ATOM     13  C   UNL     1       0.826   9.825  19.187  0.00  0.00    +0.000 A 
ATOM     14  C   UNL     1       0.208  10.091  20.409  0.00  0.00    +0.000 A 
ATOM     15 CL   UNL     1      -0.780  11.504  20.521  0.00  0.00    +0.000 Cl
ATOM     16  C   UNL     1       0.390   9.213  21.484  0.00  0.00    +0.000 A 
ATOM     17 CL   UNL     1      -0.377   9.454  23.014  0.00  0.00    +0.000 Cl
ATOM     18  C   UNL     1       1.198   8.081  21.332  0.00  0.00    +0.000 A 
ENDBRANCH   9  11
ENDBRANCH   2   9
BRANCH   1  19
ATOM     19  C   UNL     1       4.245   4.269  19.648  0.00  0.00    +0.000 C 
BRANCH  19  20
ATOM     20  C   UNL     1       3.279   3.087  19.802  0.00  0.00    +0.000 C 
BRANCH  20  22
ATOM     21  C   UNL     1       1.032   2.837  18.866  0.00  0.00    +0.000 C 
ATOM     22  N   UNL     1       1.843   3.429  19.929  0.00  0.00    +0.000 NA
ATOM     23  C   UNL     1       1.350   2.996  21.243  0.00  0.00    +0.000 C 
ENDBRANCH  20  22
ENDBRANCH  19  20
ENDBRANCH   1  19
TORSDOF 6
ENDMDL
MODEL 6
REMARK VINA RESULT:      -6.9      1.250      1.536
REMARK  Name = 
REMARK  8 active torsions:
REMARK  status: ('A' for Active; 'I' for Inactive)
REMARK    1  A    between atoms: C_1  and  N_2
REMARK    2  A    between atoms: N_2  and  C_3
REMARK    3  A    between atoms: N_2  and  C_4
REMARK    4  A    between atoms: C_4  and  C_5
REMARK    5  A    between atoms: C_5  and  C_6
REMARK    6  A    between atoms: C_6  and  C_17
REMARK    7  A    between atoms: N_7  and  N_8
REMARK    8  A    between atoms: N_8  and  C_9
REMARK                            x       y       z     vdW  Elec       q    Type
REMARK                         _______ _______ _______ _____ _____    ______ ____
ROOT
ATOM      1  C   UNL     1       3.388   5.448  18.491  0.00  0.00    +0.000 C 
ATOM      2  N   UNL     1       3.416   6.230  19.535  0.00  0.00    +0.000 NA
ENDROOT
BRANCH   1   3
ATOM      3  C   UNL     1       4.680   5.331  17.720  0.00  0.00    +0.000 A 
ATOM      4  C   UNL     1       5.759   4.657  18.309  0.00  0.00    +0.000 A 
ATOM      5  C   UNL     1       6.965   4.509  17.620  0.00  0.00    +0.000 A 
ATOM      6  C   UNL     1       7.101   5.028  16.334  0.00  0.00    +0.000 A 
ATOM      7  C   UNL     1       6.036   5.701  15.741  0.00  0.00    +0.000 A 
ATOM      8  C   UNL     1       4.830   5.858  16.431  0.00  0.00    +0.000 A 
ENDBRANCH   1   3
BRANCH   2   9
ATOM      9  N   UNL     1       2.265   6.469  20.194  0.00  0.00    +0.000 N 
ATOM     10  H   UNL     1       1.553   5.728  20.192  0.00  0.00    +0.000 HD
BRANCH   9  11
ATOM     11  C   UNL     1       1.743   7.774  20.233  0.00  0.00    +0.000 A 
ATOM     12  C   UNL     1       1.748   8.549  19.062  0.00  0.00    +0.000 A 
ATOM     13  C   UNL     1       1.158   9.816  19.037  0.00  0.00    +0.000 A 
ATOM     14  C   UNL     1       0.536  10.317  20.180  0.00  0.00    +0.000 A 
ATOM     15 CL   UNL     1      -0.198  11.878  20.078  0.00  0.00    +0.000 Cl
ATOM     16  C   UNL     1       0.508   9.548  21.349  0.00  0.00    +0.000 A 
ATOM     17 CL   UNL     1      -0.281  10.084  22.790  0.00  0.00    +0.000 Cl
ATOM     18  C   UNL     1       1.114   8.286  21.370  0.00  0.00    +0.000 A 
ENDBRANCH   9  11
ENDBRANCH   2   9
BRANCH   1  19
ATOM     19  C   UNL     1       2.203   4.636  17.936  0.00  0.00    +0.000 C 
BRANCH  19  20
ATOM     20  C   UNL     1       2.402   3.293  17.222  0.00  0.00    +0.000 C 
BRANCH  20  22
ATOM     21  C   UNL     1       3.552   1.608  18.573  0.00  0.00    +0.000 C 
ATOM     22  N   UNL     1       2.266   2.080  18.062  0.00  0.00    +0.000 NA
ATOM     23  C   UNL     1       1.349   2.356  19.176  0.00  0.00    +0.000 C 
ENDBRANCH  20  22
ENDBRANCH  19  20
ENDBRANCH   1  19
TORSDOF 6
ENDMDL
MODEL 7
REMARK VINA RESULT:      -6.8      1.407      2.056
REMARK  Name = 
REMARK  8 active torsions:
REMARK  status: ('A' for Active; 'I' for Inactive)
REMARK    1  A    between atoms: C_1  and  N_2
REMARK    2  A    between atoms: N_2  and  C_3
REMARK    3  A    between atoms: N_2  and  C_4
REMARK    4  A    between atoms: C_4  and  C_5
REMARK    5  A    between atoms: C_5  and  C_6
REMARK    6  A    between atoms: C_6  and  C_17
REMARK    7  A    between atoms: N_7  and  N_8
REMARK    8  A    between atoms: N_8  and  C_9
REMARK                            x       y       z     vdW  Elec       q    Type
REMARK                         _______ _______ _______ _____ _____    ______ ____
ROOT
ATOM      1  C   UNL     1       2.744   5.966  19.084  0.00  0.00    +0.000 C 
ATOM      2  N   UNL     1       2.713   7.151  19.629  0.00  0.00    +0.000 NA
ENDROOT
BRANCH   1   3
ATOM      3  C   UNL     1       3.665   5.809  17.899  0.00  0.00    +0.000 A 
ATOM      4  C   UNL     1       3.886   4.524  17.382  0.00  0.00    +0.000 A 
ATOM      5  C   UNL     1       4.716   4.339  16.273  0.00  0.00    +0.000 A 
ATOM      6  C   UNL     1       5.326   5.436  15.668  0.00  0.00    +0.000 A 
ATOM      7  C   UNL     1       5.114   6.716  16.176  0.00  0.00    +0.000 A 
ATOM      8  C   UNL     1       4.291   6.904  17.290  0.00  0.00    +0.000 A 
ENDBRANCH   1   3
BRANCH   2   9
ATOM      9  N   UNL     1       1.823   7.386  20.614  0.00  0.00    +0.000 N 
ATOM     10  H   UNL     1       1.280   6.587  20.965  0.00  0.00    +0.000 HD
BRANCH   9  11
ATOM     11  C   UNL     1       1.139   8.614  20.656  0.00  0.00    +0.000 A 
ATOM     12  C   UNL     1       1.044   9.386  19.488  0.00  0.00    +0.000 A 
ATOM     13  C   UNL     1       0.298  10.567  19.466  0.00  0.00    +0.000 A 
ATOM     14  C   UNL     1      -0.382  10.982  20.611  0.00  0.00    +0.000 A 
ATOM     15 CL   UNL     1      -1.308  12.438  20.513  0.00  0.00    +0.000 Cl
ATOM     16  C   UNL     1      -0.311  10.213  21.778  0.00  0.00    +0.000 A 
ATOM     17 CL   UNL     1      -1.160  10.641  23.221  0.00  0.00    +0.000 Cl
ATOM     18  C   UNL     1       0.451   9.039  21.795  0.00  0.00    +0.000 A 
ENDBRANCH   9  11
ENDBRANCH   2   9
BRANCH   1  19
ATOM     19  C   UNL     1       1.954   4.707  19.488  0.00  0.00    +0.000 C 
BRANCH  19  20
ATOM     20  C   UNL     1       2.369   3.836  20.681  0.00  0.00    +0.000 C 
BRANCH  20  22
ATOM     21  C   UNL     1       2.041   1.936  19.174  0.00  0.00    +0.000 C 
ATOM     22  N   UNL     1       2.720   2.430  20.371  0.00  0.00    +0.000 NA
ATOM     23  C   UNL     1       4.175   2.311  20.213  0.00  0.00    +0.000 C 
ENDBRANCH  20  22
ENDBRANCH  19  20
ENDBRANCH   1  19
TORSDOF 6
ENDMDL
MODEL 8
REMARK VINA RESULT:      -6.8      1.608      3.813
REMARK  Name = 
REMARK  8 active torsions:
REMARK  status: ('A' for Active; 'I' for Inactive)
REMARK    1  A    between atoms: C_1  and  N_2
REMARK    2  A    between atoms: N_2  and  C_3
REMARK    3  A    between atoms: N_2  and  C_4
REMARK    4  A    between atoms: C_4  and  C_5
REMARK    5  A    between atoms: C_5  and  C_6
REMARK    6  A    between atoms: C_6  and  C_17
REMARK    7  A    between atoms: N_7  and  N_8
REMARK    8  A    between atoms: N_8  and  C_9
REMARK                            x       y       z     vdW  Elec       q    Type
REMARK                         _______ _______ _______ _____ _____    ______ ____
ROOT
ATOM      1  C   UNL     1       3.567   5.937  17.831  0.00  0.00    +0.000 C 
ATOM      2  N   UNL     1       2.532   6.668  18.141  0.00  0.00    +0.000 NA
ENDROOT
BRANCH   1   3
ATOM      3  C   UNL     1       3.462   4.469  18.166  0.00  0.00    +0.000 A 
ATOM      4  C   UNL     1       2.542   3.680  17.461  0.00  0.00    +0.000 A 
ATOM      5  C   UNL     1       2.429   2.313  17.726  0.00  0.00    +0.000 A 
ATOM      6  C   UNL     1       3.238   1.722  18.694  0.00  0.00    +0.000 A 
ATOM      7  C   UNL     1       4.153   2.498  19.402  0.00  0.00    +0.000 A 
ATOM      8  C   UNL     1       4.264   3.868  19.144  0.00  0.00    +0.000 A 
ENDBRANCH   1   3
BRANCH   2   9
ATOM      9  N   UNL     1       2.611   8.003  17.977  0.00  0.00    +0.000 N 
ATOM     10  H   UNL     1       3.538   8.404  17.781  0.00  0.00    +0.000 HD
BRANCH   9  11
ATOM     11  C   UNL     1       1.758   8.847  18.710  0.00  0.00    +0.000 A 
ATOM     12  C   UNL     1       1.105   9.901  18.052  0.00  0.00    +0.000 A 
ATOM     13  C   UNL     1       0.182  10.706  18.724  0.00  0.00    +0.000 A 
ATOM     14  C   UNL     1      -0.116  10.453  20.063  0.00  0.00    +0.000 A 
ATOM     15 CL   UNL     1      -1.285  11.468  20.832  0.00  0.00    +0.000 Cl
ATOM     16  C   UNL     1       0.514   9.395  20.727  0.00  0.00    +0.000 A 
ATOM     17 CL   UNL     1       0.163   8.995  22.372  0.00  0.00    +0.000 Cl
ATOM     18  C   UNL     1       1.448   8.603  20.050  0.00  0.00    +0.000 A 
ENDBRANCH   9  11
ENDBRANCH   2   9
BRANCH   1  19
ATOM     19  C   UNL     1       4.889   6.380  17.176  0.00  0.00    +0.000 C 
BRANCH  19  20
ATOM     20  C   UNL     1       5.336   5.846  15.809  0.00  0.00    +0.000 C 
BRANCH  20  22
ATOM     21  C   UNL     1       6.424   4.107  14.475  0.00  0.00    +0.000 C 
ATOM     22  N   UNL     1       5.997   4.520  15.812  0.00  0.00    +0.000 NA
ATOM     23  C   UNL     1       7.148   4.547  16.724  0.00  0.00    +0.000 C 
ENDBRANCH  20  22
ENDBRANCH  19  20
ENDBRANCH   1  19
TORSDOF 6
ENDMDL
MODEL 9
REMARK VINA RESULT:      -6.8      0.925      1.707
REMARK  Name = 
REMARK  8 active torsions:
REMARK  status: ('A' for Active; 'I' for Inactive)
REMARK    1  A    between atoms: C_1  and  N_2
REMARK    2  A    between atoms: N_2  and  C_3
REMARK    3  A    between atoms: N_2  and  C_4
REMARK    4  A    between atoms: C_4  and  C_5
REMARK    5  A    between atoms: C_5  and  C_6
REMARK    6  A    between atoms: C_6  and  C_17
REMARK    7  A    between atoms: N_7  and  N_8
REMARK    8  A    between atoms: N_8  and  C_9
REMARK                            x       y       z     vdW  Elec       q    Type
REMARK                         _______ _______ _______ _____ _____    ______ ____
ROOT
ATOM      1  C   UNL     1       3.845   4.852  18.324  0.00  0.00    +0.000 C 
ATOM      2  N   UNL     1       3.904   5.829  19.187  0.00  0.00    +0.000 NA
ENDROOT
BRANCH   1   3
ATOM      3  C   UNL     1       4.927   4.835  17.272  0.00  0.00    +0.000 A 
ATOM      4  C   UNL     1       6.022   5.699  17.416  0.00  0.00    +0.000 A 
ATOM      5  C   UNL     1       7.055   5.698  16.475  0.00  0.00    +0.000 A 
ATOM      6  C   UNL     1       7.005   4.831  15.386  0.00  0.00    +0.000 A 
ATOM      7  C   UNL     1       5.920   3.971  15.232  0.00  0.00    +0.000 A 
ATOM      8  C   UNL     1       4.881   3.974  16.168  0.00  0.00    +0.000 A 
ENDBRANCH   1   3
BRANCH   2   9
ATOM      9  N   UNL     1       2.901   5.967  20.076  0.00  0.00    +0.000 N 
ATOM     10  H   UNL     1       2.404   5.116  20.368  0.00  0.00    +0.000 HD
BRANCH   9  11
ATOM     11  C   UNL     1       2.102   7.125  20.050  0.00  0.00    +0.000 A 
ATOM     12  C   UNL     1       1.293   7.424  21.157  0.00  0.00    +0.000 A 
ATOM     13  C   UNL     1       0.554   8.608  21.208  0.00  0.00    +0.000 A 
ATOM     14  C   UNL     1       0.632   9.522  20.157  0.00  0.00    +0.000 A 
ATOM     15 CL   UNL     1      -0.286  10.981  20.290  0.00  0.00    +0.000 Cl
ATOM     16  C   UNL     1       1.448   9.245  19.055  0.00  0.00    +0.000 A 
ATOM     17 CL   UNL     1       1.627  10.348  17.737  0.00  0.00    +0.000 Cl
ATOM     18  C   UNL     1       2.173   8.049  19.006  0.00  0.00    +0.000 A 
ENDBRANCH   9  11
ENDBRANCH   2   9
BRANCH   1  19
ATOM     19  C   UNL     1       2.805   3.719  18.232  0.00  0.00    +0.000 C 
BRANCH  19  20
ATOM     20  C   UNL     1       2.895   2.463  19.108  0.00  0.00    +0.000 C 
BRANCH  20  22
ATOM     21  C   UNL     1       2.431   2.705  21.499  0.00  0.00    +0.000 C 
ATOM     22  N   UNL     1       1.888   2.348  20.189  0.00  0.00    +0.000 NA
ATOM     23  C   UNL     1       0.730   3.195  19.873  0.00  0.00    +0.000 C 
ENDBRANCH  20  22
ENDBRANCH  19  20
ENDBRANCH   1  19
TORSDOF 6
ENDMDL
