MODEL 1
REMARK VINA RESULT:      -8.4      0.000      0.000
REMARK  Name = 
REMARK  1 active torsions:
REMARK  status: ('A' for Active; 'I' for Inactive)
REMARK    1  A    between atoms: C_13  and  C_14
REMARK                            x       y       z     vdW  Elec       q    Type
REMARK                         _______ _______ _______ _____ _____    ______ ____
ROOT
ATOM      1  C   UNL     1       1.225   2.290  19.232  0.00  0.00    +0.000 A 
ATOM      2  C   UNL     1       0.934   3.149  18.174  0.00  0.00    +0.000 A 
ATOM      3  C   UNL     1       1.944   3.905  17.596  0.00  0.00    +0.000 A 
ATOM      4  C   UNL     1       3.225   3.894  18.172  0.00  0.00    +0.000 A 
ATOM      5  C   UNL     1       4.419   4.570  17.854  0.00  0.00    +0.000 A 
ATOM      6  C   UNL     1       5.273   4.402  18.930  0.00  0.00    +0.000 A 
ATOM      7  N   UNL     1       4.756   3.438  19.748  0.00  0.00    +0.000 N 
ATOM      8  C   UNL     1       3.470   3.120  19.309  0.00  0.00    +0.000 A 
ATOM      9  C   UNL     1       2.502   2.242  19.815  0.00  0.00    +0.000 A 
ATOM     10  C   UNL     1       6.463   5.281  19.025  0.00  0.00    +0.000 A 
ATOM     11  N   UNL     1       7.505   5.222  19.849  0.00  0.00    +0.000 NA
ATOM     12  N   UNL     1       8.290   6.249  19.415  0.00  0.00    +0.000 N 
ATOM     13  C   UNL     1       7.732   6.984  18.399  0.00  0.00    +0.000 A 
ATOM     14  C   UNL     1       6.532   6.388  18.131  0.00  0.00    +0.000 A 
ATOM     15  C   UNL     1       5.454   6.715  17.145  0.00  0.00    +0.000 C 
ATOM     16  C   UNL     1       4.750   5.434  16.680  0.00  0.00    +0.000 C 
ATOM     17  H   UNL     1       5.176   3.118  20.606  0.00  0.00    +0.000 HD
ATOM     18  H   UNL     1       9.181   6.402  19.874  0.00  0.00    +0.000 HD
ENDROOT
BRANCH  13  19
ATOM     19  C   UNL     1       8.257   8.197  17.659  0.00  0.00    +0.000 C 
ATOM     20  C   UNL     1       7.529   9.515  17.720  0.00  0.00    +0.000 C 
ATOM     21  C   UNL     1       8.816   9.348  18.458  0.00  0.00    +0.000 C 
ENDBRANCH  13  19
TORSDOF 1
ENDMDL
MODEL 2
REMARK VINA RESULT:      -7.4      4.538      5.135
REMARK  Name = 
REMARK  1 active torsions:
REMARK  status: ('A' for Active; 'I' for Inactive)
REMARK    1  A    between atoms: C_13  and  C_14
REMARK                            x       y       z     vdW  Elec       q    Type
REMARK                         _______ _______ _______ _____ _____    ______ ____
ROOT
ATOM      1  C   UNL     1       3.094   2.285  19.040  0.00  0.00    +0.000 A 
ATOM      2  C   UNL     1       3.215   2.815  17.757  0.00  0.00    +0.000 A 
ATOM      3  C   UNL     1       3.196   4.189  17.569  0.00  0.00    +0.000 A 
ATOM      4  C   UNL     1       2.922   5.027  18.662  0.00  0.00    +0.000 A 
ATOM      5  C   UNL     1       2.792   6.425  18.783  0.00  0.00    +0.000 A 
ATOM      6  C   UNL     1       2.231   6.669  20.024  0.00  0.00    +0.000 A 
ATOM      7  N   UNL     1       2.275   5.516  20.755  0.00  0.00    +0.000 N 
ATOM      8  C   UNL     1       2.681   4.473  19.922  0.00  0.00    +0.000 A 
ATOM      9  C   UNL     1       2.840   3.100  20.155  0.00  0.00    +0.000 A 
ATOM     10  C   UNL     1       1.667   8.015  20.287  0.00  0.00    +0.000 A 
ATOM     11  N   UNL     1       1.228   8.550  21.422  0.00  0.00    +0.000 NA
ATOM     12  N   UNL     1       0.894   9.819  21.047  0.00  0.00    +0.000 N 
ATOM     13  C   UNL     1       1.046  10.059  19.705  0.00  0.00    +0.000 A 
ATOM     14  C   UNL     1       1.534   8.897  19.176  0.00  0.00    +0.000 A 
ATOM     15  C   UNL     1       1.898   8.513  17.775  0.00  0.00    +0.000 C 
ATOM     16  C   UNL     1       3.053   7.504  17.782  0.00  0.00    +0.000 C 
ATOM     17  H   UNL     1       1.932   5.412  21.696  0.00  0.00    +0.000 HD
ATOM     18  H   UNL     1       0.550  10.456  21.756  0.00  0.00    +0.000 HD
ENDROOT
BRANCH  13  19
ATOM     19  C   UNL     1       0.774  11.307  18.891  0.00  0.00    +0.000 C 
ATOM     20  C   UNL     1       0.754  12.666  19.541  0.00  0.00    +0.000 C 
ATOM     21  C   UNL     1       1.901  12.285  18.664  0.00  0.00    +0.000 C 
ENDBRANCH  13  19
TORSDOF 1
ENDMDL
MODEL 3
REMARK VINA RESULT:      -7.4      4.966      5.707
REMARK  Name = 
REMARK  1 active torsions:
REMARK  status: ('A' for Active; 'I' for Inactive)
REMARK    1  A    between atoms: C_13  and  C_14
REMARK                            x       y       z     vdW  Elec       q    Type
REMARK                         _______ _______ _______ _____ _____    ______ ____
ROOT
ATOM      1  C   UNL     1       3.643   2.754  18.728  0.00  0.00    +0.000 A 
ATOM      2  C   UNL     1       3.633   3.370  17.478  0.00  0.00    +0.000 A 
ATOM      3  C   UNL     1       3.430   4.739  17.381  0.00  0.00    +0.000 A 
ATOM      4  C   UNL     1       3.104   5.469  18.537  0.00  0.00    +0.000 A 
ATOM      5  C   UNL     1       2.803   6.828  18.753  0.00  0.00    +0.000 A 
ATOM      6  C   UNL     1       2.278   6.923  20.029  0.00  0.00    +0.000 A 
ATOM      7  N   UNL     1       2.504   5.744  20.681  0.00  0.00    +0.000 N 
ATOM      8  C   UNL     1       2.998   4.814  19.767  0.00  0.00    +0.000 A 
ATOM      9  C   UNL     1       3.342   3.462  19.904  0.00  0.00    +0.000 A 
ATOM     10  C   UNL     1       1.560   8.166  20.402  0.00  0.00    +0.000 A 
ATOM     11  N   UNL     1       1.112   8.572  21.587  0.00  0.00    +0.000 NA
ATOM     12  N   UNL     1       0.602   9.806  21.309  0.00  0.00    +0.000 N 
ATOM     13  C   UNL     1       0.656  10.142  19.979  0.00  0.00    +0.000 A 
ATOM     14  C   UNL     1       1.262   9.087  19.357  0.00  0.00    +0.000 A 
ATOM     15  C   UNL     1       1.603   8.837  17.921  0.00  0.00    +0.000 C 
ATOM     16  C   UNL     1       2.876   7.988  17.815  0.00  0.00    +0.000 C 
ATOM     17  H   UNL     1       2.223   5.541  21.627  0.00  0.00    +0.000 HD
ATOM     18  H   UNL     1       0.215  10.350  22.070  0.00  0.00    +0.000 HD
ENDROOT
BRANCH  13  19
ATOM     19  C   UNL     1       0.188  11.391  19.260  0.00  0.00    +0.000 C 
ATOM     20  C   UNL     1      -1.044  11.369  18.394  0.00  0.00    +0.000 C 
ATOM     21  C   UNL     1      -1.086  12.057  19.718  0.00  0.00    +0.000 C 
ENDBRANCH  13  19
TORSDOF 1
ENDMDL
MODEL 4
REMARK VINA RESULT:      -7.3      4.486      5.406
REMARK  Name = 
REMARK  1 active torsions:
REMARK  status: ('A' for Active; 'I' for Inactive)
REMARK    1  A    between atoms: C_13  and  C_14
REMARK                            x       y       z     vdW  Elec       q    Type
REMARK                         _______ _______ _______ _____ _____    ______ ____
ROOT
ATOM      1  C   UNL     1      -0.060  10.302  22.089  0.00  0.00    +0.000 A 
ATOM      2  C   UNL     1       0.223  11.018  20.928  0.00  0.00    +0.000 A 
ATOM      3  C   UNL     1       0.800  10.378  19.840  0.00  0.00    +0.000 A 
ATOM      4  C   UNL     1       1.214   9.042  19.971  0.00  0.00    +0.000 A 
ATOM      5  C   UNL     1       1.856   8.151  19.087  0.00  0.00    +0.000 A 
ATOM      6  C   UNL     1       2.279   7.073  19.843  0.00  0.00    +0.000 A 
ATOM      7  N   UNL     1       1.686   7.144  21.072  0.00  0.00    +0.000 N 
ATOM      8  C   UNL     1       1.034   8.372  21.184  0.00  0.00    +0.000 A 
ATOM      9  C   UNL     1       0.324   8.959  22.241  0.00  0.00    +0.000 A 
ATOM     10  C   UNL     1       3.275   6.148  19.250  0.00  0.00    +0.000 A 
ATOM     11  N   UNL     1       3.716   4.972  19.688  0.00  0.00    +0.000 NA
ATOM     12  N   UNL     1       4.565   4.581  18.695  0.00  0.00    +0.000 N 
ATOM     13  C   UNL     1       4.717   5.510  17.696  0.00  0.00    +0.000 A 
ATOM     14  C   UNL     1       3.900   6.551  18.035  0.00  0.00    +0.000 A 
ATOM     15  C   UNL     1       3.625   7.863  17.367  0.00  0.00    +0.000 C 
ATOM     16  C   UNL     1       2.182   8.306  17.637  0.00  0.00    +0.000 C 
ATOM     17  H   UNL     1       1.821   6.483  21.820  0.00  0.00    +0.000 HD
ATOM     18  H   UNL     1       5.022   3.680  18.778  0.00  0.00    +0.000 HD
ENDROOT
BRANCH  13  19
ATOM     19  C   UNL     1       5.566   5.477  16.442  0.00  0.00    +0.000 C 
ATOM     20  C   UNL     1       6.561   4.370  16.210  0.00  0.00    +0.000 C 
ATOM     21  C   UNL     1       5.298   4.407  15.412  0.00  0.00    +0.000 C 
ENDBRANCH  13  19
TORSDOF 1
ENDMDL
MODEL 5
REMARK VINA RESULT:      -7.1      3.278      4.575
REMARK  Name = 
REMARK  1 active torsions:
REMARK  status: ('A' for Active; 'I' for Inactive)
REMARK    1  A    between atoms: C_13  and  C_14
REMARK                            x       y       z     vdW  Elec       q    Type
REMARK                         _______ _______ _______ _____ _____    ______ ____
ROOT
ATOM      1  C   UNL     1       1.269   6.134  20.871  0.00  0.00    +0.000 A 
ATOM      2  C   UNL     1       1.201   4.756  20.681  0.00  0.00    +0.000 A 
ATOM      3  C   UNL     1       2.096   4.128  19.826  0.00  0.00    +0.000 A 
ATOM      4  C   UNL     1       2.976   4.909  19.059  0.00  0.00    +0.000 A 
ATOM      5  C   UNL     1       3.948   4.581  18.093  0.00  0.00    +0.000 A 
ATOM      6  C   UNL     1       4.299   5.761  17.462  0.00  0.00    +0.000 A 
ATOM      7  N   UNL     1       3.795   6.806  18.183  0.00  0.00    +0.000 N 
ATOM      8  C   UNL     1       2.949   6.302  19.171  0.00  0.00    +0.000 A 
ATOM      9  C   UNL     1       2.154   6.940  20.134  0.00  0.00    +0.000 A 
ATOM     10  C   UNL     1       5.042   5.678  16.181  0.00  0.00    +0.000 A 
ATOM     11  N   UNL     1       5.628   6.636  15.470  0.00  0.00    +0.000 NA
ATOM     12  N   UNL     1       6.191   5.944  14.439  0.00  0.00    +0.000 N 
ATOM     13  C   UNL     1       5.910   4.601  14.453  0.00  0.00    +0.000 A 
ATOM     14  C   UNL     1       5.148   4.397  15.569  0.00  0.00    +0.000 A 
ATOM     15  C   UNL     1       4.520   3.161  16.136  0.00  0.00    +0.000 C 
ATOM     16  C   UNL     1       4.465   3.246  17.667  0.00  0.00    +0.000 C 
ATOM     17  H   UNL     1       3.902   7.780  17.947  0.00  0.00    +0.000 HD
ATOM     18  H   UNL     1       6.734   6.456  13.753  0.00  0.00    +0.000 HD
ENDROOT
BRANCH  13  19
ATOM     19  C   UNL     1       6.318   3.499  13.496  0.00  0.00    +0.000 C 
ATOM     20  C   UNL     1       5.535   3.240  12.236  0.00  0.00    +0.000 C 
ATOM     21  C   UNL     1       6.881   3.880  12.149  0.00  0.00    +0.000 C 
ENDBRANCH  13  19
TORSDOF 1
ENDMDL
MODEL 6
REMARK VINA RESULT:      -7.0      3.569      5.341
REMARK  Name = 
REMARK  1 active torsions:
REMARK  status: ('A' for Active; 'I' for Inactive)
REMARK    1  A    between atoms: C_13  and  C_14
REMARK                            x       y       z     vdW  Elec       q    Type
REMARK                         _______ _______ _______ _____ _____    ______ ____
ROOT
ATOM      1  C   UNL     1       6.039   3.714  14.850  0.00  0.00    +0.000 A 
ATOM      2  C   UNL     1       5.794   4.994  14.359  0.00  0.00    +0.000 A 
ATOM      3  C   UNL     1       5.273   5.971  15.195  0.00  0.00    +0.000 A 
ATOM      4  C   UNL     1       4.874   5.620  16.495  0.00  0.00    +0.000 A 
ATOM      5  C   UNL     1       4.284   6.354  17.543  0.00  0.00    +0.000 A 
ATOM      6  C   UNL     1       3.847   5.435  18.480  0.00  0.00    +0.000 A 
ATOM      7  N   UNL     1       4.388   4.217  18.178  0.00  0.00    +0.000 N 
ATOM      8  C   UNL     1       5.014   4.301  16.934  0.00  0.00    +0.000 A 
ATOM      9  C   UNL     1       5.671   3.339  16.154  0.00  0.00    +0.000 A 
ATOM     10  C   UNL     1       2.891   5.891  19.518  0.00  0.00    +0.000 A 
ATOM     11  N   UNL     1       2.451   5.267  20.606  0.00  0.00    +0.000 NA
ATOM     12  N   UNL     1       1.650   6.206  21.187  0.00  0.00    +0.000 N 
ATOM     13  C   UNL     1       1.526   7.359  20.455  0.00  0.00    +0.000 A 
ATOM     14  C   UNL     1       2.311   7.181  19.351  0.00  0.00    +0.000 A 
ATOM     15  C   UNL     1       2.593   8.061  18.173  0.00  0.00    +0.000 C 
ATOM     16  C   UNL     1       4.016   7.820  17.655  0.00  0.00    +0.000 C 
ATOM     17  H   UNL     1       4.233   3.368  18.698  0.00  0.00    +0.000 HD
ATOM     18  H   UNL     1       1.205   5.981  22.069  0.00  0.00    +0.000 HD
ENDROOT
BRANCH  13  19
ATOM     19  C   UNL     1       0.729   8.619  20.729  0.00  0.00    +0.000 C 
ATOM     20  C   UNL     1      -0.157   8.725  21.943  0.00  0.00    +0.000 C 
ATOM     21  C   UNL     1       1.126   9.488  21.897  0.00  0.00    +0.000 C 
ENDBRANCH  13  19
TORSDOF 1
ENDMDL
MODEL 7
REMARK VINA RESULT:      -6.9      2.576      3.190
REMARK  Name = 
REMARK  1 active torsions:
REMARK  status: ('A' for Active; 'I' for Inactive)
REMARK    1  A    between atoms: C_13  and  C_14
REMARK                            x       y       z     vdW  Elec       q    Type
REMARK                         _______ _______ _______ _____ _____    ______ ____
ROOT
ATOM      1  C   UNL     1       1.403   2.835  21.630  0.00  0.00    +0.000 A 
ATOM      2  C   UNL     1       0.634   3.014  20.482  0.00  0.00    +0.000 A 
ATOM      3  C   UNL     1       1.249   3.105  19.242  0.00  0.00    +0.000 A 
ATOM      4  C   UNL     1       2.651   3.150  19.172  0.00  0.00    +0.000 A 
ATOM      5  C   UNL     1       3.550   3.282  18.095  0.00  0.00    +0.000 A 
ATOM      6  C   UNL     1       4.790   3.560  18.639  0.00  0.00    +0.000 A 
ATOM      7  N   UNL     1       4.735   3.329  19.985  0.00  0.00    +0.000 N 
ATOM      8  C   UNL     1       3.409   3.093  20.346  0.00  0.00    +0.000 A 
ATOM      9  C   UNL     1       2.808   2.855  21.589  0.00  0.00    +0.000 A 
ATOM     10  C   UNL     1       5.850   4.083  17.743  0.00  0.00    +0.000 A 
ATOM     11  N   UNL     1       7.146   4.272  17.972  0.00  0.00    +0.000 NA
ATOM     12  N   UNL     1       7.603   4.709  16.764  0.00  0.00    +0.000 N 
ATOM     13  C   UNL     1       6.619   4.864  15.820  0.00  0.00    +0.000 A 
ATOM     14  C   UNL     1       5.460   4.479  16.432  0.00  0.00    +0.000 A 
ATOM     15  C   UNL     1       4.045   4.425  15.945  0.00  0.00    +0.000 C 
ATOM     16  C   UNL     1       3.291   3.274  16.623  0.00  0.00    +0.000 C 
ATOM     17  H   UNL     1       5.502   3.453  20.627  0.00  0.00    +0.000 HD
ATOM     18  H   UNL     1       8.593   4.903  16.664  0.00  0.00    +0.000 HD
ENDROOT
BRANCH  13  19
ATOM     19  C   UNL     1       6.698   5.338  14.384  0.00  0.00    +0.000 C 
ATOM     20  C   UNL     1       7.949   5.133  13.569  0.00  0.00    +0.000 C 
ATOM     21  C   UNL     1       6.738   4.308  13.281  0.00  0.00    +0.000 C 
ENDBRANCH  13  19
TORSDOF 1
ENDMDL
MODEL 8
REMARK VINA RESULT:      -6.9      5.513      6.249
REMARK  Name = 
REMARK  1 active torsions:
REMARK  status: ('A' for Active; 'I' for Inactive)
REMARK    1  A    between atoms: C_13  and  C_14
REMARK                            x       y       z     vdW  Elec       q    Type
REMARK                         _______ _______ _______ _____ _____    ______ ____
ROOT
ATOM      1  C   UNL     1      -0.795  11.120  22.813  0.00  0.00    +0.000 A 
ATOM      2  C   UNL     1      -0.585  11.889  21.669  0.00  0.00    +0.000 A 
ATOM      3  C   UNL     1      -0.074  11.301  20.522  0.00  0.00    +0.000 A 
ATOM      4  C   UNL     1       0.349   9.962  20.567  0.00  0.00    +0.000 A 
ATOM      5  C   UNL     1       0.938   9.115  19.606  0.00  0.00    +0.000 A 
ATOM      6  C   UNL     1       1.407   8.005  20.286  0.00  0.00    +0.000 A 
ATOM      7  N   UNL     1       0.890   8.019  21.550  0.00  0.00    +0.000 N 
ATOM      8  C   UNL     1       0.245   9.238  21.757  0.00  0.00    +0.000 A 
ATOM      9  C   UNL     1      -0.401   9.773  22.880  0.00  0.00    +0.000 A 
ATOM     10  C   UNL     1       2.367   7.112  19.593  0.00  0.00    +0.000 A 
ATOM     11  N   UNL     1       2.836   5.920  19.950  0.00  0.00    +0.000 NA
ATOM     12  N   UNL     1       3.624   5.578  18.890  0.00  0.00    +0.000 N 
ATOM     13  C   UNL     1       3.713   6.550  17.927  0.00  0.00    +0.000 A 
ATOM     14  C   UNL     1       2.917   7.572  18.362  0.00  0.00    +0.000 A 
ATOM     15  C   UNL     1       2.599   8.911  17.771  0.00  0.00    +0.000 C 
ATOM     16  C   UNL     1       1.175   9.336  18.148  0.00  0.00    +0.000 C 
ATOM     17  H   UNL     1       1.071   7.326  22.259  0.00  0.00    +0.000 HD
ATOM     18  H   UNL     1       4.086   4.676  18.905  0.00  0.00    +0.000 HD
ENDROOT
BRANCH  13  19
ATOM     19  C   UNL     1       4.485   6.578  16.624  0.00  0.00    +0.000 C 
ATOM     20  C   UNL     1       5.990   6.513  16.614  0.00  0.00    +0.000 C 
ATOM     21  C   UNL     1       5.198   5.325  16.177  0.00  0.00    +0.000 C 
ENDBRANCH  13  19
TORSDOF 1
ENDMDL
MODEL 9
REMARK VINA RESULT:      -6.8      2.581      3.473
REMARK  Name = 
REMARK  1 active torsions:
REMARK  status: ('A' for Active; 'I' for Inactive)
REMARK    1  A    between atoms: C_13  and  C_14
REMARK                            x       y       z     vdW  Elec       q    Type
REMARK                         _______ _______ _______ _____ _____    ______ ____
ROOT
ATOM      1  C   UNL     1       0.934   4.457  20.639  0.00  0.00    +0.000 A 
ATOM      2  C   UNL     1       0.805   3.365  19.783  0.00  0.00    +0.000 A 
ATOM      3  C   UNL     1       1.840   3.032  18.922  0.00  0.00    +0.000 A 
ATOM      4  C   UNL     1       2.956   3.881  18.829  0.00  0.00    +0.000 A 
ATOM      5  C   UNL     1       4.120   3.842  18.037  0.00  0.00    +0.000 A 
ATOM      6  C   UNL     1       4.725   5.080  18.154  0.00  0.00    +0.000 A 
ATOM      7  N   UNL     1       4.135   5.757  19.184  0.00  0.00    +0.000 N 
ATOM      8  C   UNL     1       3.016   5.040  19.607  0.00  0.00    +0.000 A 
ATOM      9  C   UNL     1       2.048   5.312  20.584  0.00  0.00    +0.000 A 
ATOM     10  C   UNL     1       5.774   5.445  17.171  0.00  0.00    +0.000 A 
ATOM     11  N   UNL     1       6.608   6.481  17.156  0.00  0.00    +0.000 NA
ATOM     12  N   UNL     1       7.367   6.240  16.049  0.00  0.00    +0.000 N 
ATOM     13  C   UNL     1       6.981   5.129  15.342  0.00  0.00    +0.000 A 
ATOM     14  C   UNL     1       5.934   4.595  16.039  0.00  0.00    +0.000 A 
ATOM     15  C   UNL     1       5.075   3.394  15.787  0.00  0.00    +0.000 C 
ATOM     16  C   UNL     1       4.619   2.777  17.115  0.00  0.00    +0.000 C 
ATOM     17  H   UNL     1       4.383   6.685  19.486  0.00  0.00    +0.000 HD
ATOM     18  H   UNL     1       8.114   6.887  15.827  0.00  0.00    +0.000 HD
ENDROOT
BRANCH  13  19
ATOM     19  C   UNL     1       7.537   4.531  14.066  0.00  0.00    +0.000 C 
ATOM     20  C   UNL     1       6.646   4.275  12.879  0.00  0.00    +0.000 C 
ATOM     21  C   UNL     1       7.626   5.402  12.837  0.00  0.00    +0.000 C 
ENDBRANCH  13  19
TORSDOF 1
ENDMDL
