MODEL 1
REMARK VINA RESULT:      -7.2      0.000      0.000
REMARK  Name = 
REMARK  8 active torsions:
REMARK  status: ('A' for Active; 'I' for Inactive)
REMARK    1  A    between atoms: C_1  and  O_2
REMARK    2  A    between atoms: O_2  and  C_3
REMARK    3  A    between atoms: C_6  and  O_7
REMARK    4  A    between atoms: O_7  and  C_8
REMARK    5  A    between atoms: C_9  and  C_10
REMARK    6  A    between atoms: N_14  and  C_15
REMARK    7  A    between atoms: C_16  and  C_18
REMARK    8  A    between atoms: C_18  and  C_19
REMARK                            x       y       z     vdW  Elec       q    Type
REMARK                         _______ _______ _______ _____ _____    ______ ____
ROOT
ATOM      1  C   UNL     1       0.011  11.092  19.851  0.00  0.00    +0.000 A 
ATOM      2  C   UNL     1       0.598  11.886  18.886  0.00  0.00    +0.000 A 
ATOM      3  S   UNL     1       1.784  10.983  18.028  0.00  0.00    +0.000 S 
ATOM      4  C   UNL     1       1.476   9.610  19.017  0.00  0.00    +0.000 A 
ATOM      5  N   UNL     1       2.207   8.429  18.810  0.00  0.00    +0.000 N 
ATOM      6  C   UNL     1       2.932   8.150  17.573  0.00  0.00    +0.000 C 
ATOM      7  C   UNL     1       2.242   7.520  19.885  0.00  0.00    +0.000 C 
ATOM      8  O   UNL     1       1.746   7.711  21.001  0.00  0.00    +0.000 OA
ATOM      9  N   UNL     1       0.544   9.808  19.920  0.00  0.00    +0.000 NA
ENDROOT
BRANCH   1  14
ATOM     10  C   UNL     1      -3.214  12.594  21.032  0.00  0.00    +0.000 A 
ATOM     11  C   UNL     1      -3.138  12.440  22.410  0.00  0.00    +0.000 A 
ATOM     12  C   UNL     1      -2.033  11.814  22.993  0.00  0.00    +0.000 A 
ATOM     13  C   UNL     1      -0.977  11.325  22.206  0.00  0.00    +0.000 A 
ATOM     14  C   UNL     1      -1.031  11.497  20.806  0.00  0.00    +0.000 A 
ATOM     15  C   UNL     1      -2.165  12.128  20.244  0.00  0.00    +0.000 A 
BRANCH  10  17
ATOM     16  C   UNL     1      -5.521  13.032  21.356  0.00  0.00    +0.000 C 
ATOM     17  O   UNL     1      -4.343  13.218  20.579  0.00  0.00    +0.000 OA
ENDBRANCH  10  17
BRANCH  13  18
ATOM     18  O   UNL     1       0.134  10.736  22.758  0.00  0.00    +0.000 OA
ATOM     19  C   UNL     1      -0.076   9.515  23.468  0.00  0.00    +0.000 C 
ENDBRANCH  13  18
ENDBRANCH   1  14
BRANCH   7  20
ATOM     20  C   UNL     1       2.991   6.198  19.673  0.00  0.00    +0.000 C 
BRANCH  20  21
ATOM     21  C   UNL     1       2.111   4.974  19.550  0.00  0.00    +0.000 A 
ATOM     22  C   UNL     1       1.832   4.440  18.281  0.00  0.00    +0.000 A 
ATOM     23  C   UNL     1       1.053   3.288  18.148  0.00  0.00    +0.000 A 
ATOM     24  C   UNL     1       0.556   2.646  19.278  0.00  0.00    +0.000 A 
ATOM     25  C   UNL     1       0.845   3.150  20.543  0.00  0.00    +0.000 A 
ATOM     26  C   UNL     1       1.625   4.300  20.680  0.00  0.00    +0.000 A 
ENDBRANCH  20  21
ENDBRANCH   7  20
TORSDOF 5
ENDMDL
MODEL 2
REMARK VINA RESULT:      -7.2      3.296      8.659
REMARK  Name = 
REMARK  8 active torsions:
REMARK  status: ('A' for Active; 'I' for Inactive)
REMARK    1  A    between atoms: C_1  and  O_2
REMARK    2  A    between atoms: O_2  and  C_3
REMARK    3  A    between atoms: C_6  and  O_7
REMARK    4  A    between atoms: O_7  and  C_8
REMARK    5  A    between atoms: C_9  and  C_10
REMARK    6  A    between atoms: N_14  and  C_15
REMARK    7  A    between atoms: C_16  and  C_18
REMARK    8  A    between atoms: C_18  and  C_19
REMARK                            x       y       z     vdW  Elec       q    Type
REMARK                         _______ _______ _______ _____ _____    ______ ____
ROOT
ATOM      1  C   UNL     1       3.193   6.301  18.893  0.00  0.00    +0.000 A 
ATOM      2  C   UNL     1       2.962   5.794  20.157  0.00  0.00    +0.000 A 
ATOM      3  S   UNL     1       1.825   6.784  20.984  0.00  0.00    +0.000 S 
ATOM      4  C   UNL     1       1.744   7.847  19.633  0.00  0.00    +0.000 A 
ATOM      5  N   UNL     1       0.916   8.979  19.692  0.00  0.00    +0.000 N 
ATOM      6  C   UNL     1      -0.175   9.117  20.655  0.00  0.00    +0.000 C 
ATOM      7  C   UNL     1       1.212  10.016  18.786  0.00  0.00    +0.000 C 
ATOM      8  O   UNL     1       2.171  10.033  18.006  0.00  0.00    +0.000 OA
ATOM      9  N   UNL     1       2.505   7.482  18.629  0.00  0.00    +0.000 NA
ENDROOT
BRANCH   1  14
ATOM     10  C   UNL     1       6.244   6.122  16.723  0.00  0.00    +0.000 A 
ATOM     11  C   UNL     1       6.013   4.985  15.960  0.00  0.00    +0.000 A 
ATOM     12  C   UNL     1       4.856   4.226  16.153  0.00  0.00    +0.000 A 
ATOM     13  C   UNL     1       3.903   4.590  17.120  0.00  0.00    +0.000 A 
ATOM     14  C   UNL     1       4.114   5.756  17.884  0.00  0.00    +0.000 A 
ATOM     15  C   UNL     1       5.298   6.501  17.671  0.00  0.00    +0.000 A 
BRANCH  10  17
ATOM     16  C   UNL     1       7.824   7.759  17.391  0.00  0.00    +0.000 C 
ATOM     17  O   UNL     1       7.411   6.780  16.445  0.00  0.00    +0.000 OA
ENDBRANCH  10  17
BRANCH  13  18
ATOM     18  O   UNL     1       2.742   3.878  17.305  0.00  0.00    +0.000 OA
ATOM     19  C   UNL     1       2.885   2.528  17.748  0.00  0.00    +0.000 C 
ENDBRANCH  13  18
ENDBRANCH   1  14
BRANCH   7  20
ATOM     20  C   UNL     1       0.295  11.246  18.791  0.00  0.00    +0.000 C 
BRANCH  20  21
ATOM     21  C   UNL     1      -1.115  10.998  18.301  0.00  0.00    +0.000 A 
ATOM     22  C   UNL     1      -2.173  11.775  18.799  0.00  0.00    +0.000 A 
ATOM     23  C   UNL     1      -3.476  11.589  18.333  0.00  0.00    +0.000 A 
ATOM     24  C   UNL     1      -3.738  10.636  17.353  0.00  0.00    +0.000 A 
ATOM     25  C   UNL     1      -2.694   9.875  16.832  0.00  0.00    +0.000 A 
ATOM     26  C   UNL     1      -1.391  10.060  17.295  0.00  0.00    +0.000 A 
ENDBRANCH  20  21
ENDBRANCH   7  20
TORSDOF 5
ENDMDL
MODEL 3
REMARK VINA RESULT:      -6.8      3.774      5.677
REMARK  Name = 
REMARK  8 active torsions:
REMARK  status: ('A' for Active; 'I' for Inactive)
REMARK    1  A    between atoms: C_1  and  O_2
REMARK    2  A    between atoms: O_2  and  C_3
REMARK    3  A    between atoms: C_6  and  O_7
REMARK    4  A    between atoms: O_7  and  C_8
REMARK    5  A    between atoms: C_9  and  C_10
REMARK    6  A    between atoms: N_14  and  C_15
REMARK    7  A    between atoms: C_16  and  C_18
REMARK    8  A    between atoms: C_18  and  C_19
REMARK                            x       y       z     vdW  Elec       q    Type
REMARK                         _______ _______ _______ _____ _____    ______ ____
ROOT
ATOM      1  C   UNL     1       1.857   6.684  20.392  0.00  0.00    +0.000 A 
ATOM      2  C   UNL     1       1.213   5.543  20.826  0.00  0.00    +0.000 A 
ATOM      3  S   UNL     1       2.163   4.158  20.453  0.00  0.00    +0.000 S 
ATOM      4  C   UNL     1       3.348   5.155  19.702  0.00  0.00    +0.000 A 
ATOM      5  N   UNL     1       4.484   4.564  19.126  0.00  0.00    +0.000 N 
ATOM      6  C   UNL     1       4.930   3.212  19.454  0.00  0.00    +0.000 C 
ATOM      7  C   UNL     1       5.171   5.337  18.169  0.00  0.00    +0.000 C 
ATOM      8  O   UNL     1       4.815   6.445  17.754  0.00  0.00    +0.000 OA
ATOM      9  N   UNL     1       3.059   6.434  19.736  0.00  0.00    +0.000 NA
ENDROOT
BRANCH   1  14
ATOM     10  C   UNL     1       0.427   9.732  22.040  0.00  0.00    +0.000 A 
ATOM     11  C   UNL     1       0.312  10.627  20.984  0.00  0.00    +0.000 A 
ATOM     12  C   UNL     1       0.725  10.264  19.700  0.00  0.00    +0.000 A 
ATOM     13  C   UNL     1       1.266   8.993  19.444  0.00  0.00    +0.000 A 
ATOM     14  C   UNL     1       1.366   8.066  20.503  0.00  0.00    +0.000 A 
ATOM     15  C   UNL     1       0.946   8.464  21.794  0.00  0.00    +0.000 A 
BRANCH  10  17
ATOM     16  C   UNL     1      -1.167  11.028  23.225  0.00  0.00    +0.000 C 
ATOM     17  O   UNL     1      -0.007  10.202  23.249  0.00  0.00    +0.000 OA
ENDBRANCH  10  17
BRANCH  13  18
ATOM     18  O   UNL     1       1.648   8.602  18.184  0.00  0.00    +0.000 OA
ATOM     19  C   UNL     1       2.574   9.450  17.505  0.00  0.00    +0.000 C 
ENDBRANCH  13  18
ENDBRANCH   1  14
BRANCH   7  20
ATOM     20  C   UNL     1       6.445   4.740  17.557  0.00  0.00    +0.000 C 
BRANCH  20  21
ATOM     21  C   UNL     1       6.419   4.575  16.053  0.00  0.00    +0.000 A 
ATOM     22  C   UNL     1       7.422   5.169  15.270  0.00  0.00    +0.000 A 
ATOM     23  C   UNL     1       7.438   4.998  13.883  0.00  0.00    +0.000 A 
ATOM     24  C   UNL     1       6.465   4.220  13.264  0.00  0.00    +0.000 A 
ATOM     25  C   UNL     1       5.479   3.605  14.031  0.00  0.00    +0.000 A 
ATOM     26  C   UNL     1       5.461   3.773  15.417  0.00  0.00    +0.000 A 
ENDBRANCH  20  21
ENDBRANCH   7  20
TORSDOF 5
ENDMDL
MODEL 4
REMARK VINA RESULT:      -6.8      4.600      9.694
REMARK  Name = 
REMARK  8 active torsions:
REMARK  status: ('A' for Active; 'I' for Inactive)
REMARK    1  A    between atoms: C_1  and  O_2
REMARK    2  A    between atoms: O_2  and  C_3
REMARK    3  A    between atoms: C_6  and  O_7
REMARK    4  A    between atoms: O_7  and  C_8
REMARK    5  A    between atoms: C_9  and  C_10
REMARK    6  A    between atoms: N_14  and  C_15
REMARK    7  A    between atoms: C_16  and  C_18
REMARK    8  A    between atoms: C_18  and  C_19
REMARK                            x       y       z     vdW  Elec       q    Type
REMARK                         _______ _______ _______ _____ _____    ______ ____
ROOT
ATOM      1  C   UNL     1       4.343   3.707  17.366  0.00  0.00    +0.000 A 
ATOM      2  C   UNL     1       4.042   2.426  17.784  0.00  0.00    +0.000 A 
ATOM      3  S   UNL     1       2.826   2.477  18.998  0.00  0.00    +0.000 S 
ATOM      4  C   UNL     1       2.805   4.197  18.926  0.00  0.00    +0.000 A 
ATOM      5  N   UNL     1       1.944   4.914  19.771  0.00  0.00    +0.000 N 
ATOM      6  C   UNL     1       0.788   4.308  20.429  0.00  0.00    +0.000 C 
ATOM      7  C   UNL     1       2.271   6.267  19.992  0.00  0.00    +0.000 C 
ATOM      8  O   UNL     1       3.278   6.839  19.563  0.00  0.00    +0.000 OA
ATOM      9  N   UNL     1       3.641   4.698  18.048  0.00  0.00    +0.000 NA
ENDROOT
BRANCH   1  14
ATOM     10  C   UNL     1       5.919   3.986  13.977  0.00  0.00    +0.000 A 
ATOM     11  C   UNL     1       7.119   4.631  14.247  0.00  0.00    +0.000 A 
ATOM     12  C   UNL     1       7.436   5.017  15.551  0.00  0.00    +0.000 A 
ATOM     13  C   UNL     1       6.556   4.767  16.617  0.00  0.00    +0.000 A 
ATOM     14  C   UNL     1       5.344   4.091  16.359  0.00  0.00    +0.000 A 
ATOM     15  C   UNL     1       5.046   3.718  15.028  0.00  0.00    +0.000 A 
BRANCH  10  17
ATOM     16  C   UNL     1       6.888   3.434  11.884  0.00  0.00    +0.000 C 
ATOM     17  O   UNL     1       5.718   3.660  12.663  0.00  0.00    +0.000 OA
ENDBRANCH  10  17
BRANCH  13  18
ATOM     18  O   UNL     1       6.861   5.108  17.913  0.00  0.00    +0.000 OA
ATOM     19  C   UNL     1       7.568   6.334  18.101  0.00  0.00    +0.000 C 
ENDBRANCH  13  18
ENDBRANCH   1  14
BRANCH   7  20
ATOM     20  C   UNL     1       1.322   7.091  20.871  0.00  0.00    +0.000 C 
BRANCH  20  21
ATOM     21  C   UNL     1       1.200   8.551  20.490  0.00  0.00    +0.000 A 
ATOM     22  C   UNL     1       1.316   8.933  19.144  0.00  0.00    +0.000 A 
ATOM     23  C   UNL     1       1.169  10.269  18.766  0.00  0.00    +0.000 A 
ATOM     24  C   UNL     1       0.890  11.239  19.724  0.00  0.00    +0.000 A 
ATOM     25  C   UNL     1       0.748  10.871  21.060  0.00  0.00    +0.000 A 
ATOM     26  C   UNL     1       0.892   9.536  21.439  0.00  0.00    +0.000 A 
ENDBRANCH  20  21
ENDBRANCH   7  20
TORSDOF 5
ENDMDL
MODEL 5
REMARK VINA RESULT:      -6.7      3.434      9.133
REMARK  Name = 
REMARK  8 active torsions:
REMARK  status: ('A' for Active; 'I' for Inactive)
REMARK    1  A    between atoms: C_1  and  O_2
REMARK    2  A    between atoms: O_2  and  C_3
REMARK    3  A    between atoms: C_6  and  O_7
REMARK    4  A    between atoms: O_7  and  C_8
REMARK    5  A    between atoms: C_9  and  C_10
REMARK    6  A    between atoms: N_14  and  C_15
REMARK    7  A    between atoms: C_16  and  C_18
REMARK    8  A    between atoms: C_18  and  C_19
REMARK                            x       y       z     vdW  Elec       q    Type
REMARK                         _______ _______ _______ _____ _____    ______ ____
ROOT
ATOM      1  C   UNL     1       3.094   6.366  18.805  0.00  0.00    +0.000 A 
ATOM      2  C   UNL     1       2.716   5.852  20.029  0.00  0.00    +0.000 A 
ATOM      3  S   UNL     1       1.618   6.927  20.801  0.00  0.00    +0.000 S 
ATOM      4  C   UNL     1       1.745   8.027  19.483  0.00  0.00    +0.000 A 
ATOM      5  N   UNL     1       1.027   9.232  19.516  0.00  0.00    +0.000 N 
ATOM      6  C   UNL     1      -0.117   9.453  20.397  0.00  0.00    +0.000 C 
ATOM      7  C   UNL     1       1.492  10.258  18.669  0.00  0.00    +0.000 C 
ATOM      8  O   UNL     1       2.506  10.202  17.965  0.00  0.00    +0.000 OA
ATOM      9  N   UNL     1       2.545   7.615  18.528  0.00  0.00    +0.000 NA
ENDROOT
BRANCH   1  14
ATOM     10  C   UNL     1       6.230   6.007  16.783  0.00  0.00    +0.000 A 
ATOM     11  C   UNL     1       5.983   4.864  16.033  0.00  0.00    +0.000 A 
ATOM     12  C   UNL     1       4.786   4.160  16.187  0.00  0.00    +0.000 A 
ATOM     13  C   UNL     1       3.807   4.586  17.101  0.00  0.00    +0.000 A 
ATOM     14  C   UNL     1       4.035   5.759  17.850  0.00  0.00    +0.000 A 
ATOM     15  C   UNL     1       5.259   6.446  17.678  0.00  0.00    +0.000 A 
BRANCH  10  17
ATOM     16  C   UNL     1       7.781   7.689  17.403  0.00  0.00    +0.000 C 
ATOM     17  O   UNL     1       7.436   6.606  16.546  0.00  0.00    +0.000 OA
ENDBRANCH  10  17
BRANCH  13  18
ATOM     18  O   UNL     1       2.609   3.930  17.246  0.00  0.00    +0.000 OA
ATOM     19  C   UNL     1       2.663   2.617  17.804  0.00  0.00    +0.000 C 
ENDBRANCH  13  18
ENDBRANCH   1  14
BRANCH   7  20
ATOM     20  C   UNL     1       0.699  11.571  18.646  0.00  0.00    +0.000 C 
BRANCH  20  21
ATOM     21  C   UNL     1       1.445  12.781  19.166  0.00  0.00    +0.000 A 
ATOM     22  C   UNL     1       2.011  13.694  18.260  0.00  0.00    +0.000 A 
ATOM     23  C   UNL     1       2.670  14.837  18.718  0.00  0.00    +0.000 A 
ATOM     24  C   UNL     1       2.761  15.091  20.083  0.00  0.00    +0.000 A 
ATOM     25  C   UNL     1       2.184  14.207  20.991  0.00  0.00    +0.000 A 
ATOM     26  C   UNL     1       1.522  13.066  20.536  0.00  0.00    +0.000 A 
ENDBRANCH  20  21
ENDBRANCH   7  20
TORSDOF 5
ENDMDL
MODEL 6
REMARK VINA RESULT:      -6.7      3.188      8.632
REMARK  Name = 
REMARK  8 active torsions:
REMARK  status: ('A' for Active; 'I' for Inactive)
REMARK    1  A    between atoms: C_1  and  O_2
REMARK    2  A    between atoms: O_2  and  C_3
REMARK    3  A    between atoms: C_6  and  O_7
REMARK    4  A    between atoms: O_7  and  C_8
REMARK    5  A    between atoms: C_9  and  C_10
REMARK    6  A    between atoms: N_14  and  C_15
REMARK    7  A    between atoms: C_16  and  C_18
REMARK    8  A    between atoms: C_18  and  C_19
REMARK                            x       y       z     vdW  Elec       q    Type
REMARK                         _______ _______ _______ _____ _____    ______ ____
ROOT
ATOM      1  C   UNL     1       2.859   6.184  19.095  0.00  0.00    +0.000 A 
ATOM      2  C   UNL     1       2.799   5.976  20.459  0.00  0.00    +0.000 A 
ATOM      3  S   UNL     1       1.857   7.211  21.198  0.00  0.00    +0.000 S 
ATOM      4  C   UNL     1       1.624   7.968  19.670  0.00  0.00    +0.000 A 
ATOM      5  N   UNL     1       0.874   9.153  19.592  0.00  0.00    +0.000 N 
ATOM      6  C   UNL     1      -0.045   9.583  20.642  0.00  0.00    +0.000 C 
ATOM      7  C   UNL     1       1.081   9.947  18.446  0.00  0.00    +0.000 C 
ATOM      8  O   UNL     1       1.907   9.719  17.556  0.00  0.00    +0.000 OA
ATOM      9  N   UNL     1       2.200   7.337  18.675  0.00  0.00    +0.000 NA
ENDROOT
BRANCH   1  14
ATOM     10  C   UNL     1       5.123   5.432  16.204  0.00  0.00    +0.000 A 
ATOM     11  C   UNL     1       5.021   4.052  16.085  0.00  0.00    +0.000 A 
ATOM     12  C   UNL     1       4.222   3.322  16.969  0.00  0.00    +0.000 A 
ATOM     13  C   UNL     1       3.507   3.960  17.996  0.00  0.00    +0.000 A 
ATOM     14  C   UNL     1       3.583   5.364  18.113  0.00  0.00    +0.000 A 
ATOM     15  C   UNL     1       4.405   6.075  17.209  0.00  0.00    +0.000 A 
BRANCH  10  17
ATOM     16  C   UNL     1       6.796   5.176  14.544  0.00  0.00    +0.000 C 
ATOM     17  O   UNL     1       5.936   6.035  15.284  0.00  0.00    +0.000 OA
ENDBRANCH  10  17
BRANCH  13  18
ATOM     18  O   UNL     1       2.690   3.267  18.857  0.00  0.00    +0.000 OA
ATOM     19  C   UNL     1       1.448   2.806  18.327  0.00  0.00    +0.000 C 
ENDBRANCH  13  18
ENDBRANCH   1  14
BRANCH   7  20
ATOM     20  C   UNL     1       0.241  11.223  18.308  0.00  0.00    +0.000 C 
BRANCH  20  21
ATOM     21  C   UNL     1      -1.236  10.997  18.067  0.00  0.00    +0.000 A 
ATOM     22  C   UNL     1      -2.177  11.859  18.653  0.00  0.00    +0.000 A 
ATOM     23  C   UNL     1      -3.543  11.691  18.413  0.00  0.00    +0.000 A 
ATOM     24  C   UNL     1      -3.985  10.673  17.573  0.00  0.00    +0.000 A 
ATOM     25  C   UNL     1      -3.061   9.827  16.966  0.00  0.00    +0.000 A 
ATOM     26  C   UNL     1      -1.695   9.993  17.203  0.00  0.00    +0.000 A 
ENDBRANCH  20  21
ENDBRANCH   7  20
TORSDOF 5
ENDMDL
MODEL 7
REMARK VINA RESULT:      -6.7      3.209      9.056
REMARK  Name = 
REMARK  8 active torsions:
REMARK  status: ('A' for Active; 'I' for Inactive)
REMARK    1  A    between atoms: C_1  and  O_2
REMARK    2  A    between atoms: O_2  and  C_3
REMARK    3  A    between atoms: C_6  and  O_7
REMARK    4  A    between atoms: O_7  and  C_8
REMARK    5  A    between atoms: C_9  and  C_10
REMARK    6  A    between atoms: N_14  and  C_15
REMARK    7  A    between atoms: C_16  and  C_18
REMARK    8  A    between atoms: C_18  and  C_19
REMARK                            x       y       z     vdW  Elec       q    Type
REMARK                         _______ _______ _______ _____ _____    ______ ____
ROOT
ATOM      1  C   UNL     1       2.629   6.616  18.997  0.00  0.00    +0.000 A 
ATOM      2  C   UNL     1       2.225   6.223  20.258  0.00  0.00    +0.000 A 
ATOM      3  S   UNL     1       1.278   7.463  20.980  0.00  0.00    +0.000 S 
ATOM      4  C   UNL     1       1.498   8.460  19.595  0.00  0.00    +0.000 A 
ATOM      5  N   UNL     1       0.925   9.742  19.566  0.00  0.00    +0.000 N 
ATOM      6  C   UNL     1      -0.164  10.145  20.452  0.00  0.00    +0.000 C 
ATOM      7  C   UNL     1       1.484  10.654  18.650  0.00  0.00    +0.000 C 
ATOM      8  O   UNL     1       2.467  10.438  17.933  0.00  0.00    +0.000 OA
ATOM      9  N   UNL     1       2.221   7.902  18.653  0.00  0.00    +0.000 NA
ENDROOT
BRANCH   1  14
ATOM     10  C   UNL     1       5.584   5.852  16.822  0.00  0.00    +0.000 A 
ATOM     11  C   UNL     1       5.237   4.636  16.247  0.00  0.00    +0.000 A 
ATOM     12  C   UNL     1       4.030   4.016  16.577  0.00  0.00    +0.000 A 
ATOM     13  C   UNL     1       3.141   4.602  17.494  0.00  0.00    +0.000 A 
ATOM     14  C   UNL     1       3.470   5.849  18.066  0.00  0.00    +0.000 A 
ATOM     15  C   UNL     1       4.703   6.449  17.719  0.00  0.00    +0.000 A 
BRANCH  10  17
ATOM     16  C   UNL     1       7.484   7.159  17.375  0.00  0.00    +0.000 C 
ATOM     17  O   UNL     1       6.791   6.358  16.423  0.00  0.00    +0.000 OA
ENDBRANCH  10  17
BRANCH  13  18
ATOM     18  O   UNL     1       1.933   4.027  17.809  0.00  0.00    +0.000 OA
ATOM     19  C   UNL     1       1.970   2.681  18.281  0.00  0.00    +0.000 C 
ENDBRANCH  13  18
ENDBRANCH   1  14
BRANCH   7  20
ATOM     20  C   UNL     1       0.848  12.047  18.559  0.00  0.00    +0.000 C 
BRANCH  20  21
ATOM     21  C   UNL     1       1.728  13.186  19.027  0.00  0.00    +0.000 A 
ATOM     22  C   UNL     1       1.929  13.392  20.401  0.00  0.00    +0.000 A 
ATOM     23  C   UNL     1       2.768  14.414  20.854  0.00  0.00    +0.000 A 
ATOM     24  C   UNL     1       3.428  15.232  19.941  0.00  0.00    +0.000 A 
ATOM     25  C   UNL     1       3.256  15.023  18.575  0.00  0.00    +0.000 A 
ATOM     26  C   UNL     1       2.421  14.001  18.120  0.00  0.00    +0.000 A 
ENDBRANCH  20  21
ENDBRANCH   7  20
TORSDOF 5
ENDMDL
MODEL 8
REMARK VINA RESULT:      -6.6      2.956      4.915
REMARK  Name = 
REMARK  8 active torsions:
REMARK  status: ('A' for Active; 'I' for Inactive)
REMARK    1  A    between atoms: C_1  and  O_2
REMARK    2  A    between atoms: O_2  and  C_3
REMARK    3  A    between atoms: C_6  and  O_7
REMARK    4  A    between atoms: O_7  and  C_8
REMARK    5  A    between atoms: C_9  and  C_10
REMARK    6  A    between atoms: N_14  and  C_15
REMARK    7  A    between atoms: C_16  and  C_18
REMARK    8  A    between atoms: C_18  and  C_19
REMARK                            x       y       z     vdW  Elec       q    Type
REMARK                         _______ _______ _______ _____ _____    ______ ____
ROOT
ATOM      1  C   UNL     1       0.671  10.708  20.210  0.00  0.00    +0.000 A 
ATOM      2  C   UNL     1      -0.075  10.220  21.264  0.00  0.00    +0.000 A 
ATOM      3  S   UNL     1       0.238   8.542  21.474  0.00  0.00    +0.000 S 
ATOM      4  C   UNL     1       1.311   8.558  20.128  0.00  0.00    +0.000 A 
ATOM      5  N   UNL     1       1.947   7.369  19.736  0.00  0.00    +0.000 N 
ATOM      6  C   UNL     1       2.071   6.207  20.613  0.00  0.00    +0.000 C 
ATOM      7  C   UNL     1       2.438   7.332  18.416  0.00  0.00    +0.000 C 
ATOM      8  O   UNL     1       2.293   8.222  17.572  0.00  0.00    +0.000 OA
ATOM      9  N   UNL     1       1.435   9.737  19.567  0.00  0.00    +0.000 NA
ENDROOT
BRANCH   1  14
ATOM     10  C   UNL     1       2.015  14.124  19.453  0.00  0.00    +0.000 A 
ATOM     11  C   UNL     1       0.923  14.763  18.879  0.00  0.00    +0.000 A 
ATOM     12  C   UNL     1      -0.282  14.082  18.699  0.00  0.00    +0.000 A 
ATOM     13  C   UNL     1      -0.423  12.740  19.091  0.00  0.00    +0.000 A 
ATOM     14  C   UNL     1       0.671  12.087  19.698  0.00  0.00    +0.000 A 
ATOM     15  C   UNL     1       1.881  12.800  19.860  0.00  0.00    +0.000 A 
BRANCH  10  17
ATOM     16  C   UNL     1       3.434  15.755  18.480  0.00  0.00    +0.000 C 
ATOM     17  O   UNL     1       3.140  14.893  19.573  0.00  0.00    +0.000 OA
ENDBRANCH  10  17
BRANCH  13  18
ATOM     18  O   UNL     1      -1.608  12.059  18.955  0.00  0.00    +0.000 OA
ATOM     19  C   UNL     1      -1.984  11.690  17.628  0.00  0.00    +0.000 C 
ENDBRANCH  13  18
ENDBRANCH   1  14
BRANCH   7  20
ATOM     20  C   UNL     1       3.182   6.065  17.973  0.00  0.00    +0.000 C 
BRANCH  20  21
ATOM     21  C   UNL     1       4.689   6.131  18.092  0.00  0.00    +0.000 A 
ATOM     22  C   UNL     1       5.340   5.412  19.108  0.00  0.00    +0.000 A 
ATOM     23  C   UNL     1       6.733   5.427  19.213  0.00  0.00    +0.000 A 
ATOM     24  C   UNL     1       7.494   6.147  18.298  0.00  0.00    +0.000 A 
ATOM     25  C   UNL     1       6.863   6.845  17.270  0.00  0.00    +0.000 A 
ATOM     26  C   UNL     1       5.472   6.829  17.162  0.00  0.00    +0.000 A 
ENDBRANCH  20  21
ENDBRANCH   7  20
TORSDOF 5
ENDMDL
MODEL 9
REMARK VINA RESULT:      -6.6      3.115      8.954
REMARK  Name = 
REMARK  8 active torsions:
REMARK  status: ('A' for Active; 'I' for Inactive)
REMARK    1  A    between atoms: C_1  and  O_2
REMARK    2  A    between atoms: O_2  and  C_3
REMARK    3  A    between atoms: C_6  and  O_7
REMARK    4  A    between atoms: O_7  and  C_8
REMARK    5  A    between atoms: C_9  and  C_10
REMARK    6  A    between atoms: N_14  and  C_15
REMARK    7  A    between atoms: C_16  and  C_18
REMARK    8  A    between atoms: C_18  and  C_19
REMARK                            x       y       z     vdW  Elec       q    Type
REMARK                         _______ _______ _______ _____ _____    ______ ____
ROOT
ATOM      1  C   UNL     1       2.372   6.941  19.166  0.00  0.00    +0.000 A 
ATOM      2  C   UNL     1       1.966   6.622  20.447  0.00  0.00    +0.000 A 
ATOM      3  S   UNL     1       1.122   7.950  21.140  0.00  0.00    +0.000 S 
ATOM      4  C   UNL     1       1.385   8.880  19.717  0.00  0.00    +0.000 A 
ATOM      5  N   UNL     1       0.902  10.197  19.652  0.00  0.00    +0.000 N 
ATOM      6  C   UNL     1      -0.138  10.707  20.541  0.00  0.00    +0.000 C 
ATOM      7  C   UNL     1       1.506  11.035  18.694  0.00  0.00    +0.000 C 
ATOM      8  O   UNL     1       2.457  10.726  17.968  0.00  0.00    +0.000 OA
ATOM      9  N   UNL     1       2.048   8.240  18.784  0.00  0.00    +0.000 NA
ENDROOT
BRANCH   1  14
ATOM     10  C   UNL     1       5.155   5.954  16.858  0.00  0.00    +0.000 A 
ATOM     11  C   UNL     1       4.762   4.695  16.422  0.00  0.00    +0.000 A 
ATOM     12  C   UNL     1       3.579   4.120  16.894  0.00  0.00    +0.000 A 
ATOM     13  C   UNL     1       2.763   4.795  17.818  0.00  0.00    +0.000 A 
ATOM     14  C   UNL     1       3.139   6.084  18.249  0.00  0.00    +0.000 A 
ATOM     15  C   UNL     1       4.345   6.638  17.759  0.00  0.00    +0.000 A 
BRANCH  10  17
ATOM     16  C   UNL     1       7.342   6.776  17.260  0.00  0.00    +0.000 C 
ATOM     17  O   UNL     1       6.331   6.409  16.328  0.00  0.00    +0.000 OA
ENDBRANCH  10  17
BRANCH  13  18
ATOM     18  O   UNL     1       1.579   4.264  18.271  0.00  0.00    +0.000 OA
ATOM     19  C   UNL     1       1.641   2.954  18.835  0.00  0.00    +0.000 C 
ENDBRANCH  13  18
ENDBRANCH   1  14
BRANCH   7  20
ATOM     20  C   UNL     1       0.967  12.466  18.564  0.00  0.00    +0.000 C 
BRANCH  20  21
ATOM     21  C   UNL     1       1.930  13.555  18.985  0.00  0.00    +0.000 A 
ATOM     22  C   UNL     1       2.556  14.348  18.009  0.00  0.00    +0.000 A 
ATOM     23  C   UNL     1       3.418  15.384  18.377  0.00  0.00    +0.000 A 
ATOM     24  C   UNL     1       3.655  15.650  19.722  0.00  0.00    +0.000 A 
ATOM     25  C   UNL     1       3.022  14.888  20.701  0.00  0.00    +0.000 A 
ATOM     26  C   UNL     1       2.158  13.854  20.336  0.00  0.00    +0.000 A 
ENDBRANCH  20  21
ENDBRANCH   7  20
TORSDOF 5
ENDMDL
