MODEL 1
REMARK VINA RESULT:      -8.0      0.000      0.000
REMARK  Name = 
REMARK  5 active torsions:
REMARK  status: ('A' for Active; 'I' for Inactive)
REMARK    1  A    between atoms: C_2  and  C_3
REMARK    2  A    between atoms: C_2  and  C_11
REMARK    3  A    between atoms: C_6  and  O_7
REMARK    4  A    between atoms: C_9  and  O_10
REMARK    5  A    between atoms: C_17  and  O_18
REMARK                            x       y       z     vdW  Elec       q    Type
REMARK                         _______ _______ _______ _____ _____    ______ ____
ROOT
ATOM      1  O   UNL     1       4.834   3.946  15.532  0.00  0.00    +0.000 OA
ATOM      2  C   UNL     1       4.839   4.111  16.749  0.00  0.00    +0.000 C 
ENDROOT
BRANCH   2   3
ATOM      3  C   UNL     1       3.910   3.408  17.635  0.00  0.00    +0.000 A 
ATOM      4  C   UNL     1       3.627   2.052  17.620  0.00  0.00    +0.000 A 
ATOM      5  N   UNL     1       2.603   1.815  18.494  0.00  0.00    +0.000 N 
ATOM      6  C   UNL     1       2.265   2.971  19.153  0.00  0.00    +0.000 A 
ATOM      7  C   UNL     1       1.275   3.200  20.117  0.00  0.00    +0.000 A 
ATOM      8  C   UNL     1       1.161   4.493  20.637  0.00  0.00    +0.000 A 
ATOM      9  C   UNL     1       2.011   5.504  20.200  0.00  0.00    +0.000 A 
ATOM     10  C   UNL     1       2.978   5.272  19.222  0.00  0.00    +0.000 A 
ATOM     11  C   UNL     1       3.108   3.980  18.676  0.00  0.00    +0.000 A 
ATOM     12  H   UNL     1       2.148   0.924  18.630  0.00  0.00    +0.000 HD
BRANCH   9  13
ATOM     13  O   UNL     1       1.918   6.768  20.709  0.00  0.00    +0.000 OA
ATOM     14  H   UNL     1       2.355   7.381  20.097  0.00  0.00    +0.000 HD
ENDBRANCH   9  13
ENDBRANCH   2   3
BRANCH   2  15
ATOM     15  C   UNL     1       5.811   5.087  17.330  0.00  0.00    +0.000 A 
ATOM     16  C   UNL     1       6.521   4.695  18.476  0.00  0.00    +0.000 A 
ATOM     17  C   UNL     1       7.485   5.540  19.034  0.00  0.00    +0.000 A 
ATOM     18  C   UNL     1       7.736   6.772  18.444  0.00  0.00    +0.000 A 
ATOM     19  C   UNL     1       7.014   7.196  17.334  0.00  0.00    +0.000 A 
ATOM     20  C   UNL     1       6.033   6.366  16.797  0.00  0.00    +0.000 A 
BRANCH  18  21
ATOM     21  O   UNL     1       8.684   7.621  18.932  0.00  0.00    +0.000 OA
ATOM     22  H   UNL     1       8.765   8.378  18.331  0.00  0.00    +0.000 HD
ENDBRANCH  18  21
BRANCH  20  23
ATOM     23  O   UNL     1       5.273   6.841  15.764  0.00  0.00    +0.000 OA
ATOM     24  H   UNL     1       5.783   6.817  14.940  0.00  0.00    +0.000 HD
ENDBRANCH  20  23
ENDBRANCH   2  15
TORSDOF 5
ENDMDL
MODEL 2
REMARK VINA RESULT:      -8.0      2.281      5.714
REMARK  Name = 
REMARK  5 active torsions:
REMARK  status: ('A' for Active; 'I' for Inactive)
REMARK    1  A    between atoms: C_2  and  C_3
REMARK    2  A    between atoms: C_2  and  C_11
REMARK    3  A    between atoms: C_6  and  O_7
REMARK    4  A    between atoms: C_9  and  O_10
REMARK    5  A    between atoms: C_17  and  O_18
REMARK                            x       y       z     vdW  Elec       q    Type
REMARK                         _______ _______ _______ _____ _____    ______ ____
ROOT
ATOM      1  O   UNL     1       4.546   2.696  16.321  0.00  0.00    +0.000 OA
ATOM      2  C   UNL     1       4.386   3.639  17.092  0.00  0.00    +0.000 C 
ENDROOT
BRANCH   2   3
ATOM      3  C   UNL     1       5.081   4.915  16.918  0.00  0.00    +0.000 A 
ATOM      4  C   UNL     1       4.892   5.820  15.886  0.00  0.00    +0.000 A 
ATOM      5  N   UNL     1       5.831   6.807  15.999  0.00  0.00    +0.000 N 
ATOM      6  C   UNL     1       6.579   6.621  17.135  0.00  0.00    +0.000 A 
ATOM      7  C   UNL     1       7.648   7.371  17.640  0.00  0.00    +0.000 A 
ATOM      8  C   UNL     1       8.222   6.956  18.845  0.00  0.00    +0.000 A 
ATOM      9  C   UNL     1       7.734   5.832  19.505  0.00  0.00    +0.000 A 
ATOM     10  C   UNL     1       6.683   5.078  18.983  0.00  0.00    +0.000 A 
ATOM     11  C   UNL     1       6.093   5.471  17.765  0.00  0.00    +0.000 A 
ATOM     12  H   UNL     1       5.970   7.558  15.338  0.00  0.00    +0.000 HD
BRANCH   9  13
ATOM     13  O   UNL     1       8.277   5.423  20.690  0.00  0.00    +0.000 OA
ATOM     14  H   UNL     1       7.676   4.783  21.101  0.00  0.00    +0.000 HD
ENDBRANCH   9  13
ENDBRANCH   2   3
BRANCH   2  15
ATOM     15  C   UNL     1       3.470   3.456  18.259  0.00  0.00    +0.000 A 
ATOM     16  C   UNL     1       2.247   4.147  18.243  0.00  0.00    +0.000 A 
ATOM     17  C   UNL     1       1.323   3.973  19.277  0.00  0.00    +0.000 A 
ATOM     18  C   UNL     1       1.625   3.109  20.323  0.00  0.00    +0.000 A 
ATOM     19  C   UNL     1       2.846   2.450  20.379  0.00  0.00    +0.000 A 
ATOM     20  C   UNL     1       3.779   2.646  19.363  0.00  0.00    +0.000 A 
BRANCH  18  21
ATOM     21  O   UNL     1       0.748   2.885  21.342  0.00  0.00    +0.000 OA
ATOM     22  H   UNL     1      -0.155   3.008  21.010  0.00  0.00    +0.000 HD
ENDBRANCH  18  21
BRANCH  20  23
ATOM     23  O   UNL     1       5.008   2.060  19.485  0.00  0.00    +0.000 OA
ATOM     24  H   UNL     1       4.952   1.294  20.078  0.00  0.00    +0.000 HD
ENDBRANCH  20  23
ENDBRANCH   2  15
TORSDOF 5
ENDMDL
MODEL 3
REMARK VINA RESULT:      -7.8      2.184      3.130
REMARK  Name = 
REMARK  5 active torsions:
REMARK  status: ('A' for Active; 'I' for Inactive)
REMARK    1  A    between atoms: C_2  and  C_3
REMARK    2  A    between atoms: C_2  and  C_11
REMARK    3  A    between atoms: C_6  and  O_7
REMARK    4  A    between atoms: C_9  and  O_10
REMARK    5  A    between atoms: C_17  and  O_18
REMARK                            x       y       z     vdW  Elec       q    Type
REMARK                         _______ _______ _______ _____ _____    ______ ____
ROOT
ATOM      1  O   UNL     1       3.379   7.934  17.284  0.00  0.00    +0.000 OA
ATOM      2  C   UNL     1       3.636   6.922  17.932  0.00  0.00    +0.000 C 
ENDROOT
BRANCH   2   3
ATOM      3  C   UNL     1       2.737   6.408  18.965  0.00  0.00    +0.000 A 
ATOM      4  C   UNL     1       2.211   7.124  20.029  0.00  0.00    +0.000 A 
ATOM      5  N   UNL     1       1.546   6.256  20.848  0.00  0.00    +0.000 N 
ATOM      6  C   UNL     1       1.544   4.996  20.302  0.00  0.00    +0.000 A 
ATOM      7  C   UNL     1       0.998   3.804  20.794  0.00  0.00    +0.000 A 
ATOM      8  C   UNL     1       1.133   2.655  20.008  0.00  0.00    +0.000 A 
ATOM      9  C   UNL     1       1.790   2.714  18.784  0.00  0.00    +0.000 A 
ATOM     10  C   UNL     1       2.351   3.901  18.313  0.00  0.00    +0.000 A 
ATOM     11  C   UNL     1       2.236   5.071  19.089  0.00  0.00    +0.000 A 
ATOM     12  H   UNL     1       1.126   6.496  21.735  0.00  0.00    +0.000 HD
BRANCH   9  13
ATOM     13  O   UNL     1       1.918   1.602  18.001  0.00  0.00    +0.000 OA
ATOM     14  H   UNL     1       1.185   1.583  17.367  0.00  0.00    +0.000 HD
ENDBRANCH   9  13
ENDBRANCH   2   3
BRANCH   2  15
ATOM     15  C   UNL     1       4.927   6.217  17.667  0.00  0.00    +0.000 A 
ATOM     16  C   UNL     1       5.571   5.605  18.754  0.00  0.00    +0.000 A 
ATOM     17  C   UNL     1       6.752   4.882  18.561  0.00  0.00    +0.000 A 
ATOM     18  C   UNL     1       7.284   4.774  17.282  0.00  0.00    +0.000 A 
ATOM     19  C   UNL     1       6.686   5.408  16.200  0.00  0.00    +0.000 A 
ATOM     20  C   UNL     1       5.525   6.153  16.399  0.00  0.00    +0.000 A 
BRANCH  18  21
ATOM     21  O   UNL     1       8.418   4.059  17.036  0.00  0.00    +0.000 OA
ATOM     22  H   UNL     1       8.536   3.980  16.077  0.00  0.00    +0.000 HD
ENDBRANCH  18  21
BRANCH  20  23
ATOM     23  O   UNL     1       5.006   6.842  15.339  0.00  0.00    +0.000 OA
ATOM     24  H   UNL     1       4.607   7.671  15.646  0.00  0.00    +0.000 HD
ENDBRANCH  20  23
ENDBRANCH   2  15
TORSDOF 5
ENDMDL
MODEL 4
REMARK VINA RESULT:      -7.6      2.372      3.420
REMARK  Name = 
REMARK  5 active torsions:
REMARK  status: ('A' for Active; 'I' for Inactive)
REMARK    1  A    between atoms: C_2  and  C_3
REMARK    2  A    between atoms: C_2  and  C_11
REMARK    3  A    between atoms: C_6  and  O_7
REMARK    4  A    between atoms: C_9  and  O_10
REMARK    5  A    between atoms: C_17  and  O_18
REMARK                            x       y       z     vdW  Elec       q    Type
REMARK                         _______ _______ _______ _____ _____    ______ ____
ROOT
ATOM      1  O   UNL     1       2.972   2.677  17.627  0.00  0.00    +0.000 OA
ATOM      2  C   UNL     1       3.545   3.721  17.926  0.00  0.00    +0.000 C 
ENDROOT
BRANCH   2   3
ATOM      3  C   UNL     1       3.098   4.567  19.033  0.00  0.00    +0.000 A 
ATOM      4  C   UNL     1       2.931   4.174  20.352  0.00  0.00    +0.000 A 
ATOM      5  N   UNL     1       2.358   5.207  21.041  0.00  0.00    +0.000 N 
ATOM      6  C   UNL     1       2.226   6.305  20.226  0.00  0.00    +0.000 A 
ATOM      7  C   UNL     1       1.686   7.567  20.500  0.00  0.00    +0.000 A 
ATOM      8  C   UNL     1       1.695   8.514  19.471  0.00  0.00    +0.000 A 
ATOM      9  C   UNL     1       2.225   8.194  18.225  0.00  0.00    +0.000 A 
ATOM     10  C   UNL     1       2.740   6.926  17.955  0.00  0.00    +0.000 A 
ATOM     11  C   UNL     1       2.735   5.951  18.972  0.00  0.00    +0.000 A 
ATOM     12  H   UNL     1       2.060   5.170  22.005  0.00  0.00    +0.000 HD
BRANCH   9  13
ATOM     13  O   UNL     1       2.251   9.114  17.216  0.00  0.00    +0.000 OA
ATOM     14  H   UNL     1       2.732   8.735  16.464  0.00  0.00    +0.000 HD
ENDBRANCH   9  13
ENDBRANCH   2   3
BRANCH   2  15
ATOM     15  C   UNL     1       4.721   4.145  17.107  0.00  0.00    +0.000 A 
ATOM     16  C   UNL     1       4.522   4.338  15.731  0.00  0.00    +0.000 A 
ATOM     17  C   UNL     1       5.569   4.790  14.921  0.00  0.00    +0.000 A 
ATOM     18  C   UNL     1       6.809   5.047  15.491  0.00  0.00    +0.000 A 
ATOM     19  C   UNL     1       7.039   4.822  16.843  0.00  0.00    +0.000 A 
ATOM     20  C   UNL     1       6.003   4.344  17.643  0.00  0.00    +0.000 A 
BRANCH  18  21
ATOM     21  O   UNL     1       7.855   5.514  14.751  0.00  0.00    +0.000 OA
ATOM     22  H   UNL     1       8.286   6.233  15.238  0.00  0.00    +0.000 HD
ENDBRANCH  18  21
BRANCH  20  23
ATOM     23  O   UNL     1       6.276   4.043  18.948  0.00  0.00    +0.000 OA
ATOM     24  H   UNL     1       5.470   3.740  19.394  0.00  0.00    +0.000 HD
ENDBRANCH  20  23
ENDBRANCH   2  15
TORSDOF 5
ENDMDL
MODEL 5
REMARK VINA RESULT:      -7.4      2.399      3.666
REMARK  Name = 
REMARK  5 active torsions:
REMARK  status: ('A' for Active; 'I' for Inactive)
REMARK    1  A    between atoms: C_2  and  C_3
REMARK    2  A    between atoms: C_2  and  C_11
REMARK    3  A    between atoms: C_6  and  O_7
REMARK    4  A    between atoms: C_9  and  O_10
REMARK    5  A    between atoms: C_17  and  O_18
REMARK                            x       y       z     vdW  Elec       q    Type
REMARK                         _______ _______ _______ _____ _____    ______ ____
ROOT
ATOM      1  O   UNL     1       6.488   5.380  19.726  0.00  0.00    +0.000 OA
ATOM      2  C   UNL     1       5.578   5.359  18.902  0.00  0.00    +0.000 C 
ENDROOT
BRANCH   2   3
ATOM      3  C   UNL     1       4.174   5.506  19.286  0.00  0.00    +0.000 A 
ATOM      4  C   UNL     1       3.537   6.685  19.639  0.00  0.00    +0.000 A 
ATOM      5  N   UNL     1       2.278   6.382  20.076  0.00  0.00    +0.000 N 
ATOM      6  C   UNL     1       2.038   5.037  19.935  0.00  0.00    +0.000 A 
ATOM      7  C   UNL     1       0.901   4.288  20.261  0.00  0.00    +0.000 A 
ATOM      8  C   UNL     1       0.926   2.916  19.991  0.00  0.00    +0.000 A 
ATOM      9  C   UNL     1       2.052   2.334  19.417  0.00  0.00    +0.000 A 
ATOM     10  C   UNL     1       3.189   3.085  19.117  0.00  0.00    +0.000 A 
ATOM     11  C   UNL     1       3.191   4.468  19.388  0.00  0.00    +0.000 A 
ATOM     12  H   UNL     1       1.619   7.044  20.461  0.00  0.00    +0.000 HD
BRANCH   9  13
ATOM     13  O   UNL     1       2.086   0.998  19.136  0.00  0.00    +0.000 OA
ATOM     14  H   UNL     1       1.288   0.766  18.638  0.00  0.00    +0.000 HD
ENDBRANCH   9  13
ENDBRANCH   2   3
BRANCH   2  15
ATOM     15  C   UNL     1       5.926   5.149  17.464  0.00  0.00    +0.000 A 
ATOM     16  C   UNL     1       4.983   5.543  16.500  0.00  0.00    +0.000 A 
ATOM     17  C   UNL     1       5.272   5.425  15.137  0.00  0.00    +0.000 A 
ATOM     18  C   UNL     1       6.503   4.915  14.743  0.00  0.00    +0.000 A 
ATOM     19  C   UNL     1       7.432   4.480  15.680  0.00  0.00    +0.000 A 
ATOM     20  C   UNL     1       7.131   4.571  17.037  0.00  0.00    +0.000 A 
BRANCH  18  21
ATOM     21  O   UNL     1       6.844   4.804  13.428  0.00  0.00    +0.000 OA
ATOM     22  H   UNL     1       6.503   5.576  12.950  0.00  0.00    +0.000 HD
ENDBRANCH  18  21
BRANCH  20  23
ATOM     23  O   UNL     1       8.021   4.053  17.937  0.00  0.00    +0.000 OA
ATOM     24  H   UNL     1       8.447   4.770  18.431  0.00  0.00    +0.000 HD
ENDBRANCH  20  23
ENDBRANCH   2  15
TORSDOF 5
ENDMDL
MODEL 6
REMARK VINA RESULT:      -7.3      2.213      5.462
REMARK  Name = 
REMARK  5 active torsions:
REMARK  status: ('A' for Active; 'I' for Inactive)
REMARK    1  A    between atoms: C_2  and  C_3
REMARK    2  A    between atoms: C_2  and  C_11
REMARK    3  A    between atoms: C_6  and  O_7
REMARK    4  A    between atoms: C_9  and  O_10
REMARK    5  A    between atoms: C_17  and  O_18
REMARK                            x       y       z     vdW  Elec       q    Type
REMARK                         _______ _______ _______ _____ _____    ______ ____
ROOT
ATOM      1  O   UNL     1       4.232   2.974  16.290  0.00  0.00    +0.000 OA
ATOM      2  C   UNL     1       4.271   3.840  17.161  0.00  0.00    +0.000 C 
ENDROOT
BRANCH   2   3
ATOM      3  C   UNL     1       5.029   5.081  16.994  0.00  0.00    +0.000 A 
ATOM      4  C   UNL     1       4.877   6.005  15.973  0.00  0.00    +0.000 A 
ATOM      5  N   UNL     1       5.867   6.941  16.087  0.00  0.00    +0.000 N 
ATOM      6  C   UNL     1       6.615   6.705  17.214  0.00  0.00    +0.000 A 
ATOM      7  C   UNL     1       7.726   7.394  17.716  0.00  0.00    +0.000 A 
ATOM      8  C   UNL     1       8.289   6.936  18.911  0.00  0.00    +0.000 A 
ATOM      9  C   UNL     1       7.750   5.832  19.564  0.00  0.00    +0.000 A 
ATOM     10  C   UNL     1       6.657   5.138  19.044  0.00  0.00    +0.000 A 
ATOM     11  C   UNL     1       6.077   5.575  17.837  0.00  0.00    +0.000 A 
ATOM     12  H   UNL     1       6.038   7.692  15.433  0.00  0.00    +0.000 HD
BRANCH   9  13
ATOM     13  O   UNL     1       8.282   5.382  20.739  0.00  0.00    +0.000 OA
ATOM     14  H   UNL     1       8.664   6.136  21.215  0.00  0.00    +0.000 HD
ENDBRANCH   9  13
ENDBRANCH   2   3
BRANCH   2  15
ATOM     15  C   UNL     1       3.539   3.595  18.441  0.00  0.00    +0.000 A 
ATOM     16  C   UNL     1       4.097   2.678  19.346  0.00  0.00    +0.000 A 
ATOM     17  C   UNL     1       3.491   2.448  20.585  0.00  0.00    +0.000 A 
ATOM     18  C   UNL     1       2.328   3.135  20.913  0.00  0.00    +0.000 A 
ATOM     19  C   UNL     1       1.736   4.013  20.013  0.00  0.00    +0.000 A 
ATOM     20  C   UNL     1       2.326   4.220  18.768  0.00  0.00    +0.000 A 
BRANCH  18  21
ATOM     21  O   UNL     1       1.712   2.967  22.117  0.00  0.00    +0.000 OA
ATOM     22  H   UNL     1       1.678   3.822  22.573  0.00  0.00    +0.000 HD
ENDBRANCH  18  21
BRANCH  20  23
ATOM     23  O   UNL     1       1.678   5.017  17.866  0.00  0.00    +0.000 OA
ATOM     24  H   UNL     1       2.233   5.148  17.081  0.00  0.00    +0.000 HD
ENDBRANCH  20  23
ENDBRANCH   2  15
TORSDOF 5
ENDMDL
MODEL 7
REMARK VINA RESULT:      -7.3      2.268      3.564
REMARK  Name = 
REMARK  5 active torsions:
REMARK  status: ('A' for Active; 'I' for Inactive)
REMARK    1  A    between atoms: C_2  and  C_3
REMARK    2  A    between atoms: C_2  and  C_11
REMARK    3  A    between atoms: C_6  and  O_7
REMARK    4  A    between atoms: C_9  and  O_10
REMARK    5  A    between atoms: C_17  and  O_18
REMARK                            x       y       z     vdW  Elec       q    Type
REMARK                         _______ _______ _______ _____ _____    ______ ____
ROOT
ATOM      1  O   UNL     1       3.298   8.245  17.753  0.00  0.00    +0.000 OA
ATOM      2  C   UNL     1       3.488   7.077  18.080  0.00  0.00    +0.000 C 
ENDROOT
BRANCH   2   3
ATOM      3  C   UNL     1       2.646   6.396  19.066  0.00  0.00    +0.000 A 
ATOM      4  C   UNL     1       2.136   6.947  20.231  0.00  0.00    +0.000 A 
ATOM      5  N   UNL     1       1.533   5.953  20.950  0.00  0.00    +0.000 N 
ATOM      6  C   UNL     1       1.556   4.776  20.243  0.00  0.00    +0.000 A 
ATOM      7  C   UNL     1       1.071   3.509  20.592  0.00  0.00    +0.000 A 
ATOM      8  C   UNL     1       1.217   2.478  19.658  0.00  0.00    +0.000 A 
ATOM      9  C   UNL     1       1.825   2.723  18.431  0.00  0.00    +0.000 A 
ATOM     10  C   UNL     1       2.326   3.983  18.103  0.00  0.00    +0.000 A 
ATOM     11  C   UNL     1       2.199   5.036  19.029  0.00  0.00    +0.000 A 
ATOM     12  H   UNL     1       1.139   6.059  21.874  0.00  0.00    +0.000 HD
BRANCH   9  13
ATOM     13  O   UNL     1       1.963   1.728  17.505  0.00  0.00    +0.000 OA
ATOM     14  H   UNL     1       2.348   2.106  16.700  0.00  0.00    +0.000 HD
ENDBRANCH   9  13
ENDBRANCH   2   3
BRANCH   2  15
ATOM     15  C   UNL     1       4.636   6.344  17.466  0.00  0.00    +0.000 A 
ATOM     16  C   UNL     1       4.690   6.272  16.065  0.00  0.00    +0.000 A 
ATOM     17  C   UNL     1       5.768   5.649  15.429  0.00  0.00    +0.000 A 
ATOM     18  C   UNL     1       6.788   5.101  16.196  0.00  0.00    +0.000 A 
ATOM     19  C   UNL     1       6.732   5.123  17.585  0.00  0.00    +0.000 A 
ATOM     20  C   UNL     1       5.643   5.718  18.217  0.00  0.00    +0.000 A 
BRANCH  18  21
ATOM     21  O   UNL     1       7.874   4.506  15.626  0.00  0.00    +0.000 OA
ATOM     22  H   UNL     1       7.806   4.591  14.662  0.00  0.00    +0.000 HD
ENDBRANCH  18  21
BRANCH  20  23
ATOM     23  O   UNL     1       5.564   5.648  19.580  0.00  0.00    +0.000 OA
ATOM     24  H   UNL     1       4.762   6.096  19.890  0.00  0.00    +0.000 HD
ENDBRANCH  20  23
ENDBRANCH   2  15
TORSDOF 5
ENDMDL
MODEL 8
REMARK VINA RESULT:      -7.3      0.888      1.533
REMARK  Name = 
REMARK  5 active torsions:
REMARK  status: ('A' for Active; 'I' for Inactive)
REMARK    1  A    between atoms: C_2  and  C_3
REMARK    2  A    between atoms: C_2  and  C_11
REMARK    3  A    between atoms: C_6  and  O_7
REMARK    4  A    between atoms: C_9  and  O_10
REMARK    5  A    between atoms: C_17  and  O_18
REMARK                            x       y       z     vdW  Elec       q    Type
REMARK                         _______ _______ _______ _____ _____    ______ ____
ROOT
ATOM      1  O   UNL     1       4.668   4.153  15.408  0.00  0.00    +0.000 OA
ATOM      2  C   UNL     1       4.709   4.228  16.633  0.00  0.00    +0.000 C 
ENDROOT
BRANCH   2   3
ATOM      3  C   UNL     1       3.731   3.555  17.489  0.00  0.00    +0.000 A 
ATOM      4  C   UNL     1       3.344   2.226  17.408  0.00  0.00    +0.000 A 
ATOM      5  N   UNL     1       2.307   2.025  18.275  0.00  0.00    +0.000 N 
ATOM      6  C   UNL     1       2.059   3.169  18.993  0.00  0.00    +0.000 A 
ATOM      7  C   UNL     1       1.092   3.425  19.972  0.00  0.00    +0.000 A 
ATOM      8  C   UNL     1       1.078   4.695  20.557  0.00  0.00    +0.000 A 
ATOM      9  C   UNL     1       2.002   5.659  20.165  0.00  0.00    +0.000 A 
ATOM     10  C   UNL     1       2.947   5.402  19.171  0.00  0.00    +0.000 A 
ATOM     11  C   UNL     1       2.976   4.133  18.561  0.00  0.00    +0.000 A 
ATOM     12  H   UNL     1       1.785   1.165  18.370  0.00  0.00    +0.000 HD
BRANCH   9  13
ATOM     13  O   UNL     1       2.007   6.899  20.736  0.00  0.00    +0.000 OA
ATOM     14  H   UNL     1       1.714   6.817  21.657  0.00  0.00    +0.000 HD
ENDBRANCH   9  13
ENDBRANCH   2   3
BRANCH   2  15
ATOM     15  C   UNL     1       5.781   5.060  17.259  0.00  0.00    +0.000 A 
ATOM     16  C   UNL     1       6.187   6.219  16.580  0.00  0.00    +0.000 A 
ATOM     17  C   UNL     1       7.145   7.070  17.140  0.00  0.00    +0.000 A 
ATOM     18  C   UNL     1       7.693   6.756  18.378  0.00  0.00    +0.000 A 
ATOM     19  C   UNL     1       7.336   5.592  19.047  0.00  0.00    +0.000 A 
ATOM     20  C   UNL     1       6.403   4.731  18.473  0.00  0.00    +0.000 A 
BRANCH  18  21
ATOM     21  O   UNL     1       8.611   7.565  18.981  0.00  0.00    +0.000 OA
ATOM     22  H   UNL     1       8.960   7.111  19.764  0.00  0.00    +0.000 HD
ENDBRANCH  18  21
BRANCH  20  23
ATOM     23  O   UNL     1       6.136   3.548  19.104  0.00  0.00    +0.000 OA
ATOM     24  H   UNL     1       6.107   2.826  18.456  0.00  0.00    +0.000 HD
ENDBRANCH  20  23
ENDBRANCH   2  15
TORSDOF 5
ENDMDL
MODEL 9
REMARK VINA RESULT:      -7.2      2.465      5.777
REMARK  Name = 
REMARK  5 active torsions:
REMARK  status: ('A' for Active; 'I' for Inactive)
REMARK    1  A    between atoms: C_2  and  C_3
REMARK    2  A    between atoms: C_2  and  C_11
REMARK    3  A    between atoms: C_6  and  O_7
REMARK    4  A    between atoms: C_9  and  O_10
REMARK    5  A    between atoms: C_17  and  O_18
REMARK                            x       y       z     vdW  Elec       q    Type
REMARK                         _______ _______ _______ _____ _____    ______ ____
ROOT
ATOM      1  O   UNL     1       2.893   8.148  17.816  0.00  0.00    +0.000 OA
ATOM      2  C   UNL     1       3.295   6.988  17.851  0.00  0.00    +0.000 C 
ENDROOT
BRANCH   2   3
ATOM      3  C   UNL     1       4.510   6.562  17.156  0.00  0.00    +0.000 A 
ATOM      4  C   UNL     1       4.706   6.537  15.784  0.00  0.00    +0.000 A 
ATOM      5  N   UNL     1       5.907   5.936  15.530  0.00  0.00    +0.000 N 
ATOM      6  C   UNL     1       6.550   5.645  16.709  0.00  0.00    +0.000 A 
ATOM      7  C   UNL     1       7.786   5.024  16.929  0.00  0.00    +0.000 A 
ATOM      8  C   UNL     1       8.208   4.869  18.253  0.00  0.00    +0.000 A 
ATOM      9  C   UNL     1       7.414   5.322  19.301  0.00  0.00    +0.000 A 
ATOM     10  C   UNL     1       6.173   5.919  19.073  0.00  0.00    +0.000 A 
ATOM     11  C   UNL     1       5.722   6.079  17.748  0.00  0.00    +0.000 A 
ATOM     12  H   UNL     1       6.269   5.721  14.612  0.00  0.00    +0.000 HD
BRANCH   9  13
ATOM     13  O   UNL     1       7.820   5.187  20.598  0.00  0.00    +0.000 OA
ATOM     14  H   UNL     1       8.732   4.859  20.605  0.00  0.00    +0.000 HD
ENDBRANCH   9  13
ENDBRANCH   2   3
BRANCH   2  15
ATOM     15  C   UNL     1       2.493   5.980  18.609  0.00  0.00    +0.000 A 
ATOM     16  C   UNL     1       2.083   4.825  17.925  0.00  0.00    +0.000 A 
ATOM     17  C   UNL     1       1.379   3.818  18.593  0.00  0.00    +0.000 A 
ATOM     18  C   UNL     1       1.088   3.971  19.943  0.00  0.00    +0.000 A 
ATOM     19  C   UNL     1       1.448   5.126  20.628  0.00  0.00    +0.000 A 
ATOM     20  C   UNL     1       2.123   6.141  19.953  0.00  0.00    +0.000 A 
BRANCH  18  21
ATOM     21  O   UNL     1       0.428   3.009  20.648  0.00  0.00    +0.000 OA
ATOM     22  H   UNL     1       0.400   3.270  21.582  0.00  0.00    +0.000 HD
ENDBRANCH  18  21
BRANCH  20  23
ATOM     23  O   UNL     1       2.385   7.304  20.622  0.00  0.00    +0.000 OA
ATOM     24  H   UNL     1       3.340   7.473  20.632  0.00  0.00    +0.000 HD
ENDBRANCH  20  23
ENDBRANCH   2  15
TORSDOF 5
ENDMDL
