MODEL 1
REMARK VINA RESULT:      -7.0      0.000      0.000
REMARK  Name = 
REMARK  7 active torsions:
REMARK  status: ('A' for Active; 'I' for Inactive)
REMARK    1  A    between atoms: C_1  and  O_2
REMARK    2  A    between atoms: O_2  and  C_3
REMARK    3  A    between atoms: C_3  and  C_4
REMARK    4  A    between atoms: C_4  and  N_5
REMARK    5  A    between atoms: N_5  and  C_6
REMARK    6  A    between atoms: C_6  and  C_7
REMARK    7  A    between atoms: C_12  and  C_14
REMARK                            x       y       z     vdW  Elec       q    Type
REMARK                         _______ _______ _______ _____ _____    ______ ____
ROOT
ATOM      1  N   UNL     1       4.893   4.140  17.747  0.00  0.00    +0.000 N 
ATOM      2  C   UNL     1       4.024   3.046  18.038  0.00  0.00    +0.000 C 
ATOM      3  O   UNL     1       4.019   2.058  17.305  0.00  0.00    +0.000 OA
ENDROOT
BRANCH   2   4
ATOM      4  C   UNL     1       3.066   3.007  19.193  0.00  0.00    +0.000 A 
ATOM      5  C   UNL     1       3.426   2.594  20.483  0.00  0.00    +0.000 A 
ATOM      6  F   UNL     1       4.696   2.345  20.819  0.00  0.00    +0.000 F 
ATOM      7  C   UNL     1       2.507   2.498  21.529  0.00  0.00    +0.000 A 
ATOM      8  C   UNL     1       1.211   2.953  21.355  0.00  0.00    +0.000 A 
ATOM      9  C   UNL     1       0.852   3.499  20.130  0.00  0.00    +0.000 A 
ATOM     10  C   UNL     1       1.755   3.514  19.051  0.00  0.00    +0.000 A 
ATOM     11 CL   UNL     1       1.119   4.193  17.586  0.00  0.00    +0.000 Cl
ENDBRANCH   2   4
BRANCH   1  12
ATOM     12  C   UNL     1       5.637   4.037  16.472  0.00  0.00    +0.000 C 
BRANCH  12  13
ATOM     13  C   UNL     1       7.068   4.604  16.537  0.00  0.00    +0.000 C 
BRANCH  13  15
ATOM     14  C   UNL     1       7.013   4.883  14.204  0.00  0.00    +0.000 C 
ATOM     15  O   UNL     1       7.316   5.507  15.451  0.00  0.00    +0.000 OA
ENDBRANCH  13  15
ENDBRANCH  12  13
ENDBRANCH   1  12
BRANCH   1  16
ATOM     16  C   UNL     1       4.842   5.400  18.480  0.00  0.00    +0.000 C 
BRANCH  16  17
ATOM     17  C   UNL     1       3.859   6.462  18.138  0.00  0.00    +0.000 A 
ATOM     18  C   UNL     1       2.805   6.896  19.012  0.00  0.00    +0.000 A 
ATOM     19  C   UNL     1       2.305   8.059  18.481  0.00  0.00    +0.000 A 
ATOM     20  O   UNL     1       2.925   8.343  17.307  0.00  0.00    +0.000 OA
ATOM     21  C   UNL     1       3.859   7.372  17.106  0.00  0.00    +0.000 A 
ENDBRANCH  16  17
ENDBRANCH   1  16
TORSDOF 6
ENDMDL
MODEL 2
REMARK VINA RESULT:      -6.9      1.618      1.922
REMARK  Name = 
REMARK  7 active torsions:
REMARK  status: ('A' for Active; 'I' for Inactive)
REMARK    1  A    between atoms: C_1  and  O_2
REMARK    2  A    between atoms: O_2  and  C_3
REMARK    3  A    between atoms: C_3  and  C_4
REMARK    4  A    between atoms: C_4  and  N_5
REMARK    5  A    between atoms: N_5  and  C_6
REMARK    6  A    between atoms: C_6  and  C_7
REMARK    7  A    between atoms: C_12  and  C_14
REMARK                            x       y       z     vdW  Elec       q    Type
REMARK                         _______ _______ _______ _____ _____    ______ ____
ROOT
ATOM      1  N   UNL     1       4.745   4.428  17.715  0.00  0.00    +0.000 N 
ATOM      2  C   UNL     1       3.910   3.309  18.013  0.00  0.00    +0.000 C 
ATOM      3  O   UNL     1       3.922   2.325  17.275  0.00  0.00    +0.000 OA
ENDROOT
BRANCH   2   4
ATOM      4  C   UNL     1       2.969   3.239  19.180  0.00  0.00    +0.000 A 
ATOM      5  C   UNL     1       1.641   3.687  19.131  0.00  0.00    +0.000 A 
ATOM      6  F   UNL     1       1.066   4.074  17.988  0.00  0.00    +0.000 F 
ATOM      7  C   UNL     1       0.800   3.679  20.245  0.00  0.00    +0.000 A 
ATOM      8  C   UNL     1       1.218   3.084  21.423  0.00  0.00    +0.000 A 
ATOM      9  C   UNL     1       2.479   2.504  21.469  0.00  0.00    +0.000 A 
ATOM     10  C   UNL     1       3.357   2.591  20.373  0.00  0.00    +0.000 A 
ATOM     11 CL   UNL     1       4.905   1.849  20.628  0.00  0.00    +0.000 Cl
ENDBRANCH   2   4
BRANCH   1  12
ATOM     12  C   UNL     1       5.475   4.350  16.431  0.00  0.00    +0.000 C 
BRANCH  12  13
ATOM     13  C   UNL     1       7.001   4.509  16.569  0.00  0.00    +0.000 C 
BRANCH  13  15
ATOM     14  C   UNL     1       6.798   4.679  14.233  0.00  0.00    +0.000 C 
ATOM     15  O   UNL     1       7.575   5.050  15.372  0.00  0.00    +0.000 OA
ENDBRANCH  13  15
ENDBRANCH  12  13
ENDBRANCH   1  12
BRANCH   1  16
ATOM     16  C   UNL     1       4.669   5.683  18.455  0.00  0.00    +0.000 C 
BRANCH  16  17
ATOM     17  C   UNL     1       3.637   6.707  18.149  0.00  0.00    +0.000 A 
ATOM     18  C   UNL     1       2.583   7.084  19.050  0.00  0.00    +0.000 A 
ATOM     19  C   UNL     1       2.025   8.232  18.547  0.00  0.00    +0.000 A 
ATOM     20  O   UNL     1       2.608   8.560  17.367  0.00  0.00    +0.000 OA
ATOM     21  C   UNL     1       3.578   7.631  17.131  0.00  0.00    +0.000 A 
ENDBRANCH  16  17
ENDBRANCH   1  16
TORSDOF 6
ENDMDL
MODEL 3
REMARK VINA RESULT:      -6.9      2.248      4.926
REMARK  Name = 
REMARK  7 active torsions:
REMARK  status: ('A' for Active; 'I' for Inactive)
REMARK    1  A    between atoms: C_1  and  O_2
REMARK    2  A    between atoms: O_2  and  C_3
REMARK    3  A    between atoms: C_3  and  C_4
REMARK    4  A    between atoms: C_4  and  N_5
REMARK    5  A    between atoms: N_5  and  C_6
REMARK    6  A    between atoms: C_6  and  C_7
REMARK    7  A    between atoms: C_12  and  C_14
REMARK                            x       y       z     vdW  Elec       q    Type
REMARK                         _______ _______ _______ _____ _____    ______ ____
ROOT
ATOM      1  N   UNL     1       2.680   5.083  18.170  0.00  0.00    +0.000 N 
ATOM      2  C   UNL     1       3.910   4.730  17.538  0.00  0.00    +0.000 C 
ATOM      3  O   UNL     1       3.930   3.829  16.701  0.00  0.00    +0.000 OA
ENDROOT
BRANCH   2   4
ATOM      4  C   UNL     1       5.233   5.374  17.837  0.00  0.00    +0.000 A 
ATOM      5  C   UNL     1       6.034   5.022  18.932  0.00  0.00    +0.000 A 
ATOM      6  F   UNL     1       5.748   3.975  19.712  0.00  0.00    +0.000 F 
ATOM      7  C   UNL     1       7.228   5.678  19.235  0.00  0.00    +0.000 A 
ATOM      8  C   UNL     1       7.738   6.624  18.362  0.00  0.00    +0.000 A 
ATOM      9  C   UNL     1       7.041   6.901  17.193  0.00  0.00    +0.000 A 
ATOM     10  C   UNL     1       5.795   6.303  16.934  0.00  0.00    +0.000 A 
ATOM     11 CL   UNL     1       5.049   6.802  15.448  0.00  0.00    +0.000 Cl
ENDBRANCH   2   4
BRANCH   1  12
ATOM     12  C   UNL     1       1.527   4.214  17.844  0.00  0.00    +0.000 C 
BRANCH  12  13
ATOM     13  C   UNL     1       1.402   2.975  18.750  0.00  0.00    +0.000 C 
BRANCH  13  15
ATOM     14  C   UNL     1       1.343   2.898  21.099  0.00  0.00    +0.000 C 
ATOM     15  O   UNL     1       0.627   3.267  19.920  0.00  0.00    +0.000 OA
ENDBRANCH  13  15
ENDBRANCH  12  13
ENDBRANCH   1  12
BRANCH   1  16
ATOM     16  C   UNL     1       2.609   6.031  19.277  0.00  0.00    +0.000 C 
BRANCH  16  17
ATOM     17  C   UNL     1       2.317   7.471  19.053  0.00  0.00    +0.000 A 
ATOM     18  C   UNL     1       2.509   8.147  17.800  0.00  0.00    +0.000 A 
ATOM     19  C   UNL     1       1.871   9.358  17.903  0.00  0.00    +0.000 A 
ATOM     20  O   UNL     1       1.355   9.512  19.149  0.00  0.00    +0.000 OA
ATOM     21  C   UNL     1       1.632   8.370  19.838  0.00  0.00    +0.000 A 
ENDBRANCH  16  17
ENDBRANCH   1  16
TORSDOF 6
ENDMDL
MODEL 4
REMARK VINA RESULT:      -6.8      2.342      3.916
REMARK  Name = 
REMARK  7 active torsions:
REMARK  status: ('A' for Active; 'I' for Inactive)
REMARK    1  A    between atoms: C_1  and  O_2
REMARK    2  A    between atoms: O_2  and  C_3
REMARK    3  A    between atoms: C_3  and  C_4
REMARK    4  A    between atoms: C_4  and  N_5
REMARK    5  A    between atoms: N_5  and  C_6
REMARK    6  A    between atoms: C_6  and  C_7
REMARK    7  A    between atoms: C_12  and  C_14
REMARK                            x       y       z     vdW  Elec       q    Type
REMARK                         _______ _______ _______ _____ _____    ______ ____
ROOT
ATOM      1  N   UNL     1       5.865   4.535  17.222  0.00  0.00    +0.000 N 
ATOM      2  C   UNL     1       5.194   4.076  18.395  0.00  0.00    +0.000 C 
ATOM      3  O   UNL     1       5.803   4.018  19.463  0.00  0.00    +0.000 OA
ENDROOT
BRANCH   2   4
ATOM      4  C   UNL     1       3.764   3.622  18.432  0.00  0.00    +0.000 A 
ATOM      5  C   UNL     1       3.379   2.304  18.714  0.00  0.00    +0.000 A 
ATOM      6  F   UNL     1       4.256   1.381  19.122  0.00  0.00    +0.000 F 
ATOM      7  C   UNL     1       2.049   1.882  18.677  0.00  0.00    +0.000 A 
ATOM      8  C   UNL     1       1.035   2.806  18.494  0.00  0.00    +0.000 A 
ATOM      9  C   UNL     1       1.369   4.147  18.349  0.00  0.00    +0.000 A 
ATOM     10  C   UNL     1       2.714   4.556  18.299  0.00  0.00    +0.000 A 
ATOM     11 CL   UNL     1       2.941   6.261  18.069  0.00  0.00    +0.000 Cl
ENDBRANCH   2   4
BRANCH   1  12
ATOM     12  C   UNL     1       7.316   4.782  17.376  0.00  0.00    +0.000 C 
BRANCH  12  13
ATOM     13  C   UNL     1       7.654   6.152  17.995  0.00  0.00    +0.000 C 
BRANCH  13  15
ATOM     14  C   UNL     1       7.811   8.467  17.619  0.00  0.00    +0.000 C 
ATOM     15  O   UNL     1       7.412   7.214  17.063  0.00  0.00    +0.000 OA
ENDBRANCH  13  15
ENDBRANCH  12  13
ENDBRANCH   1  12
BRANCH   1  16
ATOM     16  C   UNL     1       5.255   4.485  15.898  0.00  0.00    +0.000 C 
BRANCH  16  17
ATOM     17  C   UNL     1       6.074   4.339  14.667  0.00  0.00    +0.000 A 
ATOM     18  C   UNL     1       5.716   3.503  13.554  0.00  0.00    +0.000 A 
ATOM     19  C   UNL     1       6.546   3.848  12.518  0.00  0.00    +0.000 A 
ATOM     20  O   UNL     1       7.437   4.788  12.922  0.00  0.00    +0.000 OA
ATOM     21  C   UNL     1       7.148   5.076  14.223  0.00  0.00    +0.000 A 
ENDBRANCH  16  17
ENDBRANCH   1  16
TORSDOF 6
ENDMDL
MODEL 5
REMARK VINA RESULT:      -6.8      1.885      2.355
REMARK  Name = 
REMARK  7 active torsions:
REMARK  status: ('A' for Active; 'I' for Inactive)
REMARK    1  A    between atoms: C_1  and  O_2
REMARK    2  A    between atoms: O_2  and  C_3
REMARK    3  A    between atoms: C_3  and  C_4
REMARK    4  A    between atoms: C_4  and  N_5
REMARK    5  A    between atoms: N_5  and  C_6
REMARK    6  A    between atoms: C_6  and  C_7
REMARK    7  A    between atoms: C_12  and  C_14
REMARK                            x       y       z     vdW  Elec       q    Type
REMARK                         _______ _______ _______ _____ _____    ______ ____
ROOT
ATOM      1  N   UNL     1       4.601   5.797  18.503  0.00  0.00    +0.000 N 
ATOM      2  C   UNL     1       4.395   4.561  19.185  0.00  0.00    +0.000 C 
ATOM      3  O   UNL     1       5.359   3.947  19.640  0.00  0.00    +0.000 OA
ENDROOT
BRANCH   2   4
ATOM      4  C   UNL     1       3.055   3.912  19.380  0.00  0.00    +0.000 A 
ATOM      5  C   UNL     1       2.300   4.038  20.554  0.00  0.00    +0.000 A 
ATOM      6  F   UNL     1       2.650   4.875  21.537  0.00  0.00    +0.000 F 
ATOM      7  C   UNL     1       1.088   3.372  20.747  0.00  0.00    +0.000 A 
ATOM      8  C   UNL     1       0.516   2.663  19.704  0.00  0.00    +0.000 A 
ATOM      9  C   UNL     1       1.168   2.630  18.479  0.00  0.00    +0.000 A 
ATOM     10  C   UNL     1       2.431   3.228  18.315  0.00  0.00    +0.000 A 
ATOM     11 CL   UNL     1       3.114   3.047  16.730  0.00  0.00    +0.000 Cl
ENDBRANCH   2   4
BRANCH   1  12
ATOM     12  C   UNL     1       6.016   6.174  18.285  0.00  0.00    +0.000 C 
BRANCH  12  13
ATOM     13  C   UNL     1       6.511   5.938  16.845  0.00  0.00    +0.000 C 
BRANCH  13  15
ATOM     14  C   UNL     1       7.711   7.849  17.502  0.00  0.00    +0.000 C 
ATOM     15  O   UNL     1       7.593   6.820  16.520  0.00  0.00    +0.000 OA
ENDBRANCH  13  15
ENDBRANCH  12  13
ENDBRANCH   1  12
BRANCH   1  16
ATOM     16  C   UNL     1       3.528   6.498  17.807  0.00  0.00    +0.000 C 
BRANCH  16  17
ATOM     17  C   UNL     1       2.745   7.576  18.465  0.00  0.00    +0.000 A 
ATOM     18  C   UNL     1       2.222   8.726  17.781  0.00  0.00    +0.000 A 
ATOM     19  C   UNL     1       1.334   9.326  18.639  0.00  0.00    +0.000 A 
ATOM     20  O   UNL     1       1.316   8.673  19.829  0.00  0.00    +0.000 OA
ATOM     21  C   UNL     1       2.175   7.620  19.717  0.00  0.00    +0.000 A 
ENDBRANCH  16  17
ENDBRANCH   1  16
TORSDOF 6
ENDMDL
MODEL 6
REMARK VINA RESULT:      -6.6      2.493      3.035
REMARK  Name = 
REMARK  7 active torsions:
REMARK  status: ('A' for Active; 'I' for Inactive)
REMARK    1  A    between atoms: C_1  and  O_2
REMARK    2  A    between atoms: O_2  and  C_3
REMARK    3  A    between atoms: C_3  and  C_4
REMARK    4  A    between atoms: C_4  and  N_5
REMARK    5  A    between atoms: N_5  and  C_6
REMARK    6  A    between atoms: C_6  and  C_7
REMARK    7  A    between atoms: C_12  and  C_14
REMARK                            x       y       z     vdW  Elec       q    Type
REMARK                         _______ _______ _______ _____ _____    ______ ____
ROOT
ATOM      1  N   UNL     1       4.922   3.914  17.500  0.00  0.00    +0.000 N 
ATOM      2  C   UNL     1       3.939   2.969  17.922  0.00  0.00    +0.000 C 
ATOM      3  O   UNL     1       3.796   1.917  17.300  0.00  0.00    +0.000 OA
ENDROOT
BRANCH   2   4
ATOM      4  C   UNL     1       3.018   3.168  19.091  0.00  0.00    +0.000 A 
ATOM      5  C   UNL     1       1.752   3.761  18.985  0.00  0.00    +0.000 A 
ATOM      6  F   UNL     1       1.206   4.059  17.802  0.00  0.00    +0.000 F 
ATOM      7  C   UNL     1       0.937   4.002  20.093  0.00  0.00    +0.000 A 
ATOM      8  C   UNL     1       1.303   3.522  21.338  0.00  0.00    +0.000 A 
ATOM      9  C   UNL     1       2.487   2.806  21.459  0.00  0.00    +0.000 A 
ATOM     10  C   UNL     1       3.349   2.642  20.359  0.00  0.00    +0.000 A 
ATOM     11 CL   UNL     1       4.802   1.759  20.706  0.00  0.00    +0.000 Cl
ENDBRANCH   2   4
BRANCH   1  12
ATOM     12  C   UNL     1       5.610   3.588  16.231  0.00  0.00    +0.000 C 
BRANCH  12  13
ATOM     13  C   UNL     1       5.211   4.496  15.052  0.00  0.00    +0.000 C 
BRANCH  13  15
ATOM     14  C   UNL     1       7.209   4.968  13.907  0.00  0.00    +0.000 C 
ATOM     15  O   UNL     1       6.000   4.210  13.889  0.00  0.00    +0.000 OA
ENDBRANCH  13  15
ENDBRANCH  12  13
ENDBRANCH   1  12
BRANCH   1  16
ATOM     16  C   UNL     1       5.042   5.241  18.093  0.00  0.00    +0.000 C 
BRANCH  16  17
ATOM     17  C   UNL     1       6.325   5.990  18.074  0.00  0.00    +0.000 A 
ATOM     18  C   UNL     1       6.569   7.152  17.265  0.00  0.00    +0.000 A 
ATOM     19  C   UNL     1       7.730   7.718  17.727  0.00  0.00    +0.000 A 
ATOM     20  O   UNL     1       8.262   6.959  18.718  0.00  0.00    +0.000 OA
ATOM     21  C   UNL     1       7.409   5.915  18.919  0.00  0.00    +0.000 A 
ENDBRANCH  16  17
ENDBRANCH   1  16
TORSDOF 6
ENDMDL
MODEL 7
REMARK VINA RESULT:      -6.6      1.937      2.430
REMARK  Name = 
REMARK  7 active torsions:
REMARK  status: ('A' for Active; 'I' for Inactive)
REMARK    1  A    between atoms: C_1  and  O_2
REMARK    2  A    between atoms: O_2  and  C_3
REMARK    3  A    between atoms: C_3  and  C_4
REMARK    4  A    between atoms: C_4  and  N_5
REMARK    5  A    between atoms: N_5  and  C_6
REMARK    6  A    between atoms: C_6  and  C_7
REMARK    7  A    between atoms: C_12  and  C_14
REMARK                            x       y       z     vdW  Elec       q    Type
REMARK                         _______ _______ _______ _____ _____    ______ ____
ROOT
ATOM      1  N   UNL     1       4.794   3.964  17.009  0.00  0.00    +0.000 N 
ATOM      2  C   UNL     1       3.459   3.693  17.432  0.00  0.00    +0.000 C 
ATOM      3  O   UNL     1       2.594   3.433  16.597  0.00  0.00    +0.000 OA
ENDROOT
BRANCH   2   4
ATOM      4  C   UNL     1       2.999   3.722  18.862  0.00  0.00    +0.000 A 
ATOM      5  C   UNL     1       3.151   2.643  19.743  0.00  0.00    +0.000 A 
ATOM      6  F   UNL     1       3.855   1.554  19.418  0.00  0.00    +0.000 F 
ATOM      7  C   UNL     1       2.655   2.660  21.049  0.00  0.00    +0.000 A 
ATOM      8  C   UNL     1       2.113   3.823  21.567  0.00  0.00    +0.000 A 
ATOM      9  C   UNL     1       2.072   4.958  20.767  0.00  0.00    +0.000 A 
ATOM     10  C   UNL     1       2.490   4.912  19.424  0.00  0.00    +0.000 A 
ATOM     11 CL   UNL     1       2.325   6.412  18.566  0.00  0.00    +0.000 Cl
ENDBRANCH   2   4
BRANCH   1  12
ATOM     12  C   UNL     1       4.992   4.038  15.544  0.00  0.00    +0.000 C 
BRANCH  12  13
ATOM     13  C   UNL     1       6.453   3.832  15.100  0.00  0.00    +0.000 C 
BRANCH  13  15
ATOM     14  C   UNL     1       6.224   3.621  12.770  0.00  0.00    +0.000 C 
ATOM     15  O   UNL     1       6.699   4.450  13.830  0.00  0.00    +0.000 OA
ENDBRANCH  13  15
ENDBRANCH  12  13
ENDBRANCH   1  12
BRANCH   1  16
ATOM     16  C   UNL     1       5.830   4.428  17.925  0.00  0.00    +0.000 C 
BRANCH  16  17
ATOM     17  C   UNL     1       6.357   5.816  17.868  0.00  0.00    +0.000 A 
ATOM     18  C   UNL     1       7.608   6.228  18.442  0.00  0.00    +0.000 A 
ATOM     19  C   UNL     1       7.878   7.478  17.944  0.00  0.00    +0.000 A 
ATOM     20  O   UNL     1       6.856   7.902  17.158  0.00  0.00    +0.000 OA
ATOM     21  C   UNL     1       5.940   6.894  17.121  0.00  0.00    +0.000 A 
ENDBRANCH  16  17
ENDBRANCH   1  16
TORSDOF 6
ENDMDL
MODEL 8
REMARK VINA RESULT:      -6.5      1.768      2.277
REMARK  Name = 
REMARK  7 active torsions:
REMARK  status: ('A' for Active; 'I' for Inactive)
REMARK    1  A    between atoms: C_1  and  O_2
REMARK    2  A    between atoms: O_2  and  C_3
REMARK    3  A    between atoms: C_3  and  C_4
REMARK    4  A    between atoms: C_4  and  N_5
REMARK    5  A    between atoms: N_5  and  C_6
REMARK    6  A    between atoms: C_6  and  C_7
REMARK    7  A    between atoms: C_12  and  C_14
REMARK                            x       y       z     vdW  Elec       q    Type
REMARK                         _______ _______ _______ _____ _____    ______ ____
ROOT
ATOM      1  N   UNL     1       4.789   3.990  17.305  0.00  0.00    +0.000 N 
ATOM      2  C   UNL     1       3.939   2.960  17.810  0.00  0.00    +0.000 C 
ATOM      3  O   UNL     1       3.867   1.884  17.218  0.00  0.00    +0.000 OA
ENDROOT
BRANCH   2   4
ATOM      4  C   UNL     1       3.079   3.093  19.033  0.00  0.00    +0.000 A 
ATOM      5  C   UNL     1       3.469   2.649  20.304  0.00  0.00    +0.000 A 
ATOM      6  F   UNL     1       4.706   2.207  20.552  0.00  0.00    +0.000 F 
ATOM      7  C   UNL     1       2.629   2.716  21.417  0.00  0.00    +0.000 A 
ATOM      8  C   UNL     1       1.411   3.368  21.326  0.00  0.00    +0.000 A 
ATOM      9  C   UNL     1       1.048   3.944  20.115  0.00  0.00    +0.000 A 
ATOM     10  C   UNL     1       1.857   3.798  18.973  0.00  0.00    +0.000 A 
ATOM     11 CL   UNL     1       1.224   4.545  17.541  0.00  0.00    +0.000 Cl
ENDBRANCH   2   4
BRANCH   1  12
ATOM     12  C   UNL     1       5.425   3.705  16.000  0.00  0.00    +0.000 C 
BRANCH  12  13
ATOM     13  C   UNL     1       5.334   4.867  14.993  0.00  0.00    +0.000 C 
BRANCH  13  15
ATOM     14  C   UNL     1       7.117   4.632  13.480  0.00  0.00    +0.000 C 
ATOM     15  O   UNL     1       6.638   5.336  14.625  0.00  0.00    +0.000 OA
ENDBRANCH  13  15
ENDBRANCH  12  13
ENDBRANCH   1  12
BRANCH   1  16
ATOM     16  C   UNL     1       4.807   5.337  17.864  0.00  0.00    +0.000 C 
BRANCH  16  17
ATOM     17  C   UNL     1       6.074   5.992  18.281  0.00  0.00    +0.000 A 
ATOM     18  C   UNL     1       6.941   5.489  19.311  0.00  0.00    +0.000 A 
ATOM     19  C   UNL     1       8.120   6.183  19.208  0.00  0.00    +0.000 A 
ATOM     20  O   UNL     1       8.028   7.125  18.235  0.00  0.00    +0.000 OA
ATOM     21  C   UNL     1       6.787   7.006  17.683  0.00  0.00    +0.000 A 
ENDBRANCH  16  17
ENDBRANCH   1  16
TORSDOF 6
ENDMDL
MODEL 9
REMARK VINA RESULT:      -6.5      1.682      2.001
REMARK  Name = 
REMARK  7 active torsions:
REMARK  status: ('A' for Active; 'I' for Inactive)
REMARK    1  A    between atoms: C_1  and  O_2
REMARK    2  A    between atoms: O_2  and  C_3
REMARK    3  A    between atoms: C_3  and  C_4
REMARK    4  A    between atoms: C_4  and  N_5
REMARK    5  A    between atoms: N_5  and  C_6
REMARK    6  A    between atoms: C_6  and  C_7
REMARK    7  A    between atoms: C_12  and  C_14
REMARK                            x       y       z     vdW  Elec       q    Type
REMARK                         _______ _______ _______ _____ _____    ______ ____
ROOT
ATOM      1  N   UNL     1       4.627   5.683  18.469  0.00  0.00    +0.000 N 
ATOM      2  C   UNL     1       4.417   4.479  19.206  0.00  0.00    +0.000 C 
ATOM      3  O   UNL     1       5.373   3.908  19.728  0.00  0.00    +0.000 OA
ENDROOT
BRANCH   2   4
ATOM      4  C   UNL     1       3.082   3.816  19.385  0.00  0.00    +0.000 A 
ATOM      5  C   UNL     1       2.324   3.911  20.560  0.00  0.00    +0.000 A 
ATOM      6  F   UNL     1       2.666   4.728  21.561  0.00  0.00    +0.000 F 
ATOM      7  C   UNL     1       1.117   3.231  20.736  0.00  0.00    +0.000 A 
ATOM      8  C   UNL     1       0.551   2.541  19.678  0.00  0.00    +0.000 A 
ATOM      9  C   UNL     1       1.206   2.540  18.453  0.00  0.00    +0.000 A 
ATOM     10  C   UNL     1       2.464   3.151  18.303  0.00  0.00    +0.000 A 
ATOM     11 CL   UNL     1       3.151   3.011  16.716  0.00  0.00    +0.000 Cl
ENDBRANCH   2   4
BRANCH   1  12
ATOM     12  C   UNL     1       6.043   6.075  18.284  0.00  0.00    +0.000 C 
BRANCH  12  13
ATOM     13  C   UNL     1       6.326   6.782  16.945  0.00  0.00    +0.000 C 
BRANCH  13  15
ATOM     14  C   UNL     1       6.934   4.911  15.659  0.00  0.00    +0.000 C 
ATOM     15  O   UNL     1       7.390   6.135  16.234  0.00  0.00    +0.000 OA
ENDBRANCH  13  15
ENDBRANCH  12  13
ENDBRANCH   1  12
BRANCH   1  16
ATOM     16  C   UNL     1       3.570   6.327  17.698  0.00  0.00    +0.000 C 
BRANCH  16  17
ATOM     17  C   UNL     1       2.660   7.331  18.309  0.00  0.00    +0.000 A 
ATOM     18  C   UNL     1       2.252   7.316  19.687  0.00  0.00    +0.000 A 
ATOM     19  C   UNL     1       1.666   8.532  19.938  0.00  0.00    +0.000 A 
ATOM     20  O   UNL     1       1.620   9.275  18.804  0.00  0.00    +0.000 OA
ATOM     21  C   UNL     1       2.219   8.541  17.824  0.00  0.00    +0.000 A 
ENDBRANCH  16  17
ENDBRANCH   1  16
TORSDOF 6
ENDMDL
