MODEL 1
REMARK VINA RESULT:      -6.7      0.000      0.000
REMARK  Name = 
REMARK  5 active torsions:
REMARK  status: ('A' for Active; 'I' for Inactive)
REMARK    1  A    between atoms: C_1  and  O_2
REMARK    2  A    between atoms: O_2  and  C_3
REMARK    3  A    between atoms: C_7  and  C_8
REMARK    4  A    between atoms: C_14  and  O_15
REMARK    5  A    between atoms: O_15  and  C_16
REMARK                            x       y       z     vdW  Elec       q    Type
REMARK                         _______ _______ _______ _____ _____    ______ ____
ROOT
ATOM      1  C   UNL     1       6.578   6.332  17.246  0.00  0.00    +0.000 A 
ATOM      2  C   UNL     1       5.353   6.681  16.669  0.00  0.00    +0.000 A 
ATOM      3  C   UNL     1       4.182   5.985  16.975  0.00  0.00    +0.000 A 
ATOM      4  C   UNL     1       4.200   4.922  17.882  0.00  0.00    +0.000 A 
ATOM      5  C   UNL     1       2.992   4.167  18.268  0.00  0.00    +0.000 A 
ATOM      6  C   UNL     1       1.623   4.475  17.728  0.00  0.00    +0.000 C 
ATOM      7  C   UNL     1       3.114   3.166  19.149  0.00  0.00    +0.000 A 
ATOM      8  C   UNL     1       4.387   2.772  19.756  0.00  0.00    +0.000 A 
ATOM      9  O   UNL     1       4.452   1.846  20.555  0.00  0.00    +0.000 OA
ATOM     10  O   UNL     1       5.490   3.506  19.377  0.00  0.00    +0.000 OA
ATOM     11  C   UNL     1       5.442   4.582  18.458  0.00  0.00    +0.000 A 
ATOM     12  C   UNL     1       6.641   5.270  18.167  0.00  0.00    +0.000 A 
ENDROOT
BRANCH   1  14
ATOM     13  C   UNL     1       7.791   8.358  17.603  0.00  0.00    +0.000 C 
ATOM     14  O   UNL     1       7.601   7.163  16.858  0.00  0.00    +0.000 OA
ENDBRANCH   1  14
BRANCH  12  15
ATOM     15  O   UNL     1       7.869   5.035  18.720  0.00  0.00    +0.000 OA
ATOM     16  C   UNL     1       8.226   5.573  19.982  0.00  0.00    +0.000 C 
ENDBRANCH  12  15
TORSDOF 2
ENDMDL
MODEL 2
REMARK VINA RESULT:      -6.5      2.527      3.338
REMARK  Name = 
REMARK  5 active torsions:
REMARK  status: ('A' for Active; 'I' for Inactive)
REMARK    1  A    between atoms: C_1  and  O_2
REMARK    2  A    between atoms: O_2  and  C_3
REMARK    3  A    between atoms: C_7  and  C_8
REMARK    4  A    between atoms: C_14  and  O_15
REMARK    5  A    between atoms: O_15  and  C_16
REMARK                            x       y       z     vdW  Elec       q    Type
REMARK                         _______ _______ _______ _____ _____    ______ ____
ROOT
ATOM      1  C   UNL     1       6.325   4.992  16.001  0.00  0.00    +0.000 A 
ATOM      2  C   UNL     1       5.635   3.775  16.008  0.00  0.00    +0.000 A 
ATOM      3  C   UNL     1       4.401   3.644  16.647  0.00  0.00    +0.000 A 
ATOM      4  C   UNL     1       3.810   4.736  17.288  0.00  0.00    +0.000 A 
ATOM      5  C   UNL     1       2.494   4.668  17.954  0.00  0.00    +0.000 A 
ATOM      6  C   UNL     1       1.659   3.419  17.999  0.00  0.00    +0.000 C 
ATOM      7  C   UNL     1       2.012   5.772  18.538  0.00  0.00    +0.000 A 
ATOM      8  C   UNL     1       2.720   7.054  18.556  0.00  0.00    +0.000 A 
ATOM      9  O   UNL     1       2.242   8.038  19.107  0.00  0.00    +0.000 OA
ATOM     10  O   UNL     1       3.940   7.079  17.916  0.00  0.00    +0.000 OA
ATOM     11  C   UNL     1       4.514   5.958  17.270  0.00  0.00    +0.000 A 
ATOM     12  C   UNL     1       5.764   6.118  16.631  0.00  0.00    +0.000 A 
ENDROOT
BRANCH   1  14
ATOM     13  C   UNL     1       7.390   4.894  13.865  0.00  0.00    +0.000 C 
ATOM     14  O   UNL     1       7.494   4.933  15.282  0.00  0.00    +0.000 OA
ENDBRANCH   1  14
BRANCH  12  15
ATOM     15  O   UNL     1       6.482   7.276  16.527  0.00  0.00    +0.000 OA
ATOM     16  C   UNL     1       7.487   7.609  17.470  0.00  0.00    +0.000 C 
ENDBRANCH  12  15
TORSDOF 2
ENDMDL
MODEL 3
REMARK VINA RESULT:      -6.3      2.298      5.132
REMARK  Name = 
REMARK  5 active torsions:
REMARK  status: ('A' for Active; 'I' for Inactive)
REMARK    1  A    between atoms: C_1  and  O_2
REMARK    2  A    between atoms: O_2  and  C_3
REMARK    3  A    between atoms: C_7  and  C_8
REMARK    4  A    between atoms: C_14  and  O_15
REMARK    5  A    between atoms: O_15  and  C_16
REMARK                            x       y       z     vdW  Elec       q    Type
REMARK                         _______ _______ _______ _____ _____    ______ ____
ROOT
ATOM      1  C   UNL     1       2.908   3.884  20.460  0.00  0.00    +0.000 A 
ATOM      2  C   UNL     1       2.172   5.045  20.715  0.00  0.00    +0.000 A 
ATOM      3  C   UNL     1       2.279   6.168  19.893  0.00  0.00    +0.000 A 
ATOM      4  C   UNL     1       3.120   6.158  18.778  0.00  0.00    +0.000 A 
ATOM      5  C   UNL     1       3.254   7.303  17.854  0.00  0.00    +0.000 A 
ATOM      6  C   UNL     1       2.491   8.587  18.021  0.00  0.00    +0.000 C 
ATOM      7  C   UNL     1       4.086   7.192  16.811  0.00  0.00    +0.000 A 
ATOM      8  C   UNL     1       4.878   5.993  16.529  0.00  0.00    +0.000 A 
ATOM      9  O   UNL     1       5.630   5.939  15.564  0.00  0.00    +0.000 OA
ATOM     10  O   UNL     1       4.718   4.944  17.408  0.00  0.00    +0.000 OA
ATOM     11  C   UNL     1       3.855   4.980  18.530  0.00  0.00    +0.000 A 
ATOM     12  C   UNL     1       3.764   3.830  19.345  0.00  0.00    +0.000 A 
ENDROOT
BRANCH   1  14
ATOM     13  C   UNL     1       1.263   2.623  21.646  0.00  0.00    +0.000 C 
ATOM     14  O   UNL     1       2.630   2.875  21.349  0.00  0.00    +0.000 OA
ENDBRANCH   1  14
BRANCH  12  15
ATOM     15  O   UNL     1       4.403   2.637  19.143  0.00  0.00    +0.000 OA
ATOM     16  C   UNL     1       3.773   1.571  18.454  0.00  0.00    +0.000 C 
ENDBRANCH  12  15
TORSDOF 2
ENDMDL
MODEL 4
REMARK VINA RESULT:      -6.2      2.008      4.879
REMARK  Name = 
REMARK  5 active torsions:
REMARK  status: ('A' for Active; 'I' for Inactive)
REMARK    1  A    between atoms: C_1  and  O_2
REMARK    2  A    between atoms: O_2  and  C_3
REMARK    3  A    between atoms: C_7  and  C_8
REMARK    4  A    between atoms: C_14  and  O_15
REMARK    5  A    between atoms: O_15  and  C_16
REMARK                            x       y       z     vdW  Elec       q    Type
REMARK                         _______ _______ _______ _____ _____    ______ ____
ROOT
ATOM      1  C   UNL     1       2.500   3.871  18.241  0.00  0.00    +0.000 A 
ATOM      2  C   UNL     1       2.898   3.706  16.910  0.00  0.00    +0.000 A 
ATOM      3  C   UNL     1       4.210   3.960  16.508  0.00  0.00    +0.000 A 
ATOM      4  C   UNL     1       5.172   4.374  17.432  0.00  0.00    +0.000 A 
ATOM      5  C   UNL     1       6.582   4.629  17.075  0.00  0.00    +0.000 A 
ATOM      6  C   UNL     1       7.120   4.459  15.681  0.00  0.00    +0.000 C 
ATOM      7  C   UNL     1       7.428   5.020  18.036  0.00  0.00    +0.000 A 
ATOM      8  C   UNL     1       7.034   5.212  19.433  0.00  0.00    +0.000 A 
ATOM      9  O   UNL     1       7.842   5.576  20.279  0.00  0.00    +0.000 OA
ATOM     10  O   UNL     1       5.713   4.956  19.729  0.00  0.00    +0.000 OA
ATOM     11  C   UNL     1       4.759   4.533  18.772  0.00  0.00    +0.000 A 
ATOM     12  C   UNL     1       3.438   4.282  19.205  0.00  0.00    +0.000 A 
ENDROOT
BRANCH   1  14
ATOM     13  C   UNL     1       0.911   2.174  18.786  0.00  0.00    +0.000 C 
ATOM     14  O   UNL     1       1.187   3.526  18.447  0.00  0.00    +0.000 OA
ENDBRANCH   1  14
BRANCH  12  15
ATOM     15  O   UNL     1       2.974   4.364  20.489  0.00  0.00    +0.000 OA
ATOM     16  C   UNL     1       2.041   5.359  20.874  0.00  0.00    +0.000 C 
ENDBRANCH  12  15
TORSDOF 2
ENDMDL
MODEL 5
REMARK VINA RESULT:      -6.2      1.528      2.164
REMARK  Name = 
REMARK  5 active torsions:
REMARK  status: ('A' for Active; 'I' for Inactive)
REMARK    1  A    between atoms: C_1  and  O_2
REMARK    2  A    between atoms: O_2  and  C_3
REMARK    3  A    between atoms: C_7  and  C_8
REMARK    4  A    between atoms: C_14  and  O_15
REMARK    5  A    between atoms: O_15  and  C_16
REMARK                            x       y       z     vdW  Elec       q    Type
REMARK                         _______ _______ _______ _____ _____    ______ ____
ROOT
ATOM      1  C   UNL     1       4.605   5.664  17.339  0.00  0.00    +0.000 A 
ATOM      2  C   UNL     1       3.246   5.896  17.574  0.00  0.00    +0.000 A 
ATOM      3  C   UNL     1       2.537   5.157  18.522  0.00  0.00    +0.000 A 
ATOM      4  C   UNL     1       3.172   4.167  19.276  0.00  0.00    +0.000 A 
ATOM      5  C   UNL     1       2.483   3.373  20.312  0.00  0.00    +0.000 A 
ATOM      6  C   UNL     1       1.033   3.559  20.662  0.00  0.00    +0.000 C 
ATOM      7  C   UNL     1       3.182   2.448  20.984  0.00  0.00    +0.000 A 
ATOM      8  C   UNL     1       4.601   2.177  20.747  0.00  0.00    +0.000 A 
ATOM      9  O   UNL     1       5.200   1.318  21.383  0.00  0.00    +0.000 OA
ATOM     10  O   UNL     1       5.210   2.944  19.778  0.00  0.00    +0.000 OA
ATOM     11  C   UNL     1       4.543   3.945  19.031  0.00  0.00    +0.000 A 
ATOM     12  C   UNL     1       5.285   4.679  18.079  0.00  0.00    +0.000 A 
ENDROOT
BRANCH   1  14
ATOM     13  C   UNL     1       5.408   5.998  15.115  0.00  0.00    +0.000 C 
ATOM     14  O   UNL     1       5.135   6.523  16.407  0.00  0.00    +0.000 OA
ENDBRANCH   1  14
BRANCH  12  15
ATOM     15  O   UNL     1       6.622   4.558  17.820  0.00  0.00    +0.000 OA
ATOM     16  C   UNL     1       7.578   5.364  18.487  0.00  0.00    +0.000 C 
ENDBRANCH  12  15
TORSDOF 2
ENDMDL
MODEL 6
REMARK VINA RESULT:      -6.2      3.089      5.264
REMARK  Name = 
REMARK  5 active torsions:
REMARK  status: ('A' for Active; 'I' for Inactive)
REMARK    1  A    between atoms: C_1  and  O_2
REMARK    2  A    between atoms: O_2  and  C_3
REMARK    3  A    between atoms: C_7  and  C_8
REMARK    4  A    between atoms: C_14  and  O_15
REMARK    5  A    between atoms: O_15  and  C_16
REMARK                            x       y       z     vdW  Elec       q    Type
REMARK                         _______ _______ _______ _____ _____    ______ ____
ROOT
ATOM      1  C   UNL     1       5.745   4.553  17.516  0.00  0.00    +0.000 A 
ATOM      2  C   UNL     1       4.841   3.744  16.819  0.00  0.00    +0.000 A 
ATOM      3  C   UNL     1       4.941   3.568  15.437  0.00  0.00    +0.000 A 
ATOM      4  C   UNL     1       5.961   4.189  14.711  0.00  0.00    +0.000 A 
ATOM      5  C   UNL     1       6.136   4.018  13.255  0.00  0.00    +0.000 A 
ATOM      6  C   UNL     1       5.239   3.153  12.415  0.00  0.00    +0.000 C 
ATOM      7  C   UNL     1       7.148   4.654  12.651  0.00  0.00    +0.000 A 
ATOM      8  C   UNL     1       8.098   5.517  13.356  0.00  0.00    +0.000 A 
ATOM      9  O   UNL     1       9.007   6.082  12.761  0.00  0.00    +0.000 OA
ATOM     10  O   UNL     1       7.907   5.644  14.714  0.00  0.00    +0.000 OA
ATOM     11  C   UNL     1       6.867   5.000  15.427  0.00  0.00    +0.000 A 
ATOM     12  C   UNL     1       6.789   5.193  16.824  0.00  0.00    +0.000 A 
ENDROOT
BRANCH   1  14
ATOM     13  C   UNL     1       4.534   3.659  19.370  0.00  0.00    +0.000 C 
ATOM     14  O   UNL     1       5.512   4.561  18.870  0.00  0.00    +0.000 OA
ENDBRANCH   1  14
BRANCH  12  15
ATOM     15  O   UNL     1       7.654   5.920  17.594  0.00  0.00    +0.000 OA
ATOM     16  C   UNL     1       7.589   7.335  17.642  0.00  0.00    +0.000 C 
ENDBRANCH  12  15
TORSDOF 2
ENDMDL
MODEL 7
REMARK VINA RESULT:      -6.2      2.337      5.178
REMARK  Name = 
REMARK  5 active torsions:
REMARK  status: ('A' for Active; 'I' for Inactive)
REMARK    1  A    between atoms: C_1  and  O_2
REMARK    2  A    between atoms: O_2  and  C_3
REMARK    3  A    between atoms: C_7  and  C_8
REMARK    4  A    between atoms: C_14  and  O_15
REMARK    5  A    between atoms: O_15  and  C_16
REMARK                            x       y       z     vdW  Elec       q    Type
REMARK                         _______ _______ _______ _____ _____    ______ ____
ROOT
ATOM      1  C   UNL     1       2.243   4.465  18.659  0.00  0.00    +0.000 A 
ATOM      2  C   UNL     1       2.462   3.458  17.713  0.00  0.00    +0.000 A 
ATOM      3  C   UNL     1       3.542   3.513  16.831  0.00  0.00    +0.000 A 
ATOM      4  C   UNL     1       4.448   4.575  16.878  0.00  0.00    +0.000 A 
ATOM      5  C   UNL     1       5.626   4.675  15.992  0.00  0.00    +0.000 A 
ATOM      6  C   UNL     1       5.967   3.636  14.960  0.00  0.00    +0.000 C 
ATOM      7  C   UNL     1       6.437   5.733  16.118  0.00  0.00    +0.000 A 
ATOM      8  C   UNL     1       6.222   6.806  17.090  0.00  0.00    +0.000 A 
ATOM      9  O   UNL     1       6.989   7.759  17.167  0.00  0.00    +0.000 OA
ATOM     10  O   UNL     1       5.118   6.673  17.904  0.00  0.00    +0.000 OA
ATOM     11  C   UNL     1       4.218   5.583  17.838  0.00  0.00    +0.000 A 
ATOM     12  C   UNL     1       3.133   5.551  18.743  0.00  0.00    +0.000 A 
ENDROOT
BRANCH   1  14
ATOM     13  C   UNL     1       1.321   3.229  20.482  0.00  0.00    +0.000 C 
ATOM     14  O   UNL     1       1.161   4.208  19.465  0.00  0.00    +0.000 OA
ENDBRANCH   1  14
BRANCH  12  15
ATOM     15  O   UNL     1       2.872   6.459  19.731  0.00  0.00    +0.000 OA
ATOM     16  C   UNL     1       2.132   7.640  19.470  0.00  0.00    +0.000 C 
ENDBRANCH  12  15
TORSDOF 2
ENDMDL
MODEL 8
REMARK VINA RESULT:      -6.1      1.672      4.642
REMARK  Name = 
REMARK  5 active torsions:
REMARK  status: ('A' for Active; 'I' for Inactive)
REMARK    1  A    between atoms: C_1  and  O_2
REMARK    2  A    between atoms: O_2  and  C_3
REMARK    3  A    between atoms: C_7  and  C_8
REMARK    4  A    between atoms: C_14  and  O_15
REMARK    5  A    between atoms: O_15  and  C_16
REMARK                            x       y       z     vdW  Elec       q    Type
REMARK                         _______ _______ _______ _____ _____    ______ ____
ROOT
ATOM      1  C   UNL     1       2.747   4.397  19.582  0.00  0.00    +0.000 A 
ATOM      2  C   UNL     1       2.306   5.309  18.618  0.00  0.00    +0.000 A 
ATOM      3  C   UNL     1       3.175   5.824  17.655  0.00  0.00    +0.000 A 
ATOM      4  C   UNL     1       4.514   5.429  17.619  0.00  0.00    +0.000 A 
ATOM      5  C   UNL     1       5.474   5.915  16.608  0.00  0.00    +0.000 A 
ATOM      6  C   UNL     1       5.100   6.875  15.514  0.00  0.00    +0.000 C 
ATOM      7  C   UNL     1       6.738   5.473  16.657  0.00  0.00    +0.000 A 
ATOM      8  C   UNL     1       7.227   4.529  17.663  0.00  0.00    +0.000 A 
ATOM      9  O   UNL     1       8.393   4.156  17.672  0.00  0.00    +0.000 OA
ATOM     10  O   UNL     1       6.299   4.093  18.584  0.00  0.00    +0.000 OA
ATOM     11  C   UNL     1       4.946   4.506  18.595  0.00  0.00    +0.000 A 
ATOM     12  C   UNL     1       4.087   3.969  19.580  0.00  0.00    +0.000 A 
ENDROOT
BRANCH   1  14
ATOM     13  C   UNL     1       0.894   2.931  19.930  0.00  0.00    +0.000 C 
ATOM     14  O   UNL     1       1.735   3.971  20.409  0.00  0.00    +0.000 OA
ENDBRANCH   1  14
BRANCH  12  15
ATOM     15  O   UNL     1       4.415   3.037  20.524  0.00  0.00    +0.000 OA
ATOM     16  C   UNL     1       4.535   1.664  20.195  0.00  0.00    +0.000 C 
ENDBRANCH  12  15
TORSDOF 2
ENDMDL
MODEL 9
REMARK VINA RESULT:      -6.1      1.711      4.951
REMARK  Name = 
REMARK  5 active torsions:
REMARK  status: ('A' for Active; 'I' for Inactive)
REMARK    1  A    between atoms: C_1  and  O_2
REMARK    2  A    between atoms: O_2  and  C_3
REMARK    3  A    between atoms: C_7  and  C_8
REMARK    4  A    between atoms: C_14  and  O_15
REMARK    5  A    between atoms: O_15  and  C_16
REMARK                            x       y       z     vdW  Elec       q    Type
REMARK                         _______ _______ _______ _____ _____    ______ ____
ROOT
ATOM      1  C   UNL     1       2.746   2.698  18.542  0.00  0.00    +0.000 A 
ATOM      2  C   UNL     1       2.812   3.063  17.193  0.00  0.00    +0.000 A 
ATOM      3  C   UNL     1       3.841   3.874  16.711  0.00  0.00    +0.000 A 
ATOM      4  C   UNL     1       4.847   4.333  17.565  0.00  0.00    +0.000 A 
ATOM      5  C   UNL     1       5.977   5.167  17.109  0.00  0.00    +0.000 A 
ATOM      6  C   UNL     1       6.158   5.596  15.679  0.00  0.00    +0.000 C 
ATOM      7  C   UNL     1       6.893   5.555  18.006  0.00  0.00    +0.000 A 
ATOM      8  C   UNL     1       6.839   5.196  19.425  0.00  0.00    +0.000 A 
ATOM      9  O   UNL     1       7.697   5.577  20.211  0.00  0.00    +0.000 OA
ATOM     10  O   UNL     1       5.775   4.410  19.809  0.00  0.00    +0.000 OA
ATOM     11  C   UNL     1       4.770   3.955  18.921  0.00  0.00    +0.000 A 
ATOM     12  C   UNL     1       3.741   3.135  19.435  0.00  0.00    +0.000 A 
ENDROOT
BRANCH   1  14
ATOM     13  C   UNL     1       0.389   2.431  18.824  0.00  0.00    +0.000 C 
ATOM     14  O   UNL     1       1.691   1.860  18.811  0.00  0.00    +0.000 OA
ENDBRANCH   1  14
BRANCH  12  15
ATOM     15  O   UNL     1       3.624   2.685  20.721  0.00  0.00    +0.000 OA
ATOM     16  C   UNL     1       2.621   3.184  21.589  0.00  0.00    +0.000 C 
ENDBRANCH  12  15
TORSDOF 2
ENDMDL
