MODEL 1
REMARK VINA RESULT:      -7.1      0.000      0.000
REMARK  Name = 
REMARK  8 active torsions:
REMARK  status: ('A' for Active; 'I' for Inactive)
REMARK    1  A    between atoms: C_1  and  C_2
REMARK    2  A    between atoms: C_2  and  C_3
REMARK    3  A    between atoms: C_3  and  N_4
REMARK    4  A    between atoms: C_9  and  O_10
REMARK    5  A    between atoms: O_10  and  C_11
REMARK    6  A    between atoms: C_21  and  O_22
REMARK    7  A    between atoms: O_22  and  C_23
REMARK    8  A    between atoms: C_23  and  C_24
REMARK                            x       y       z     vdW  Elec       q    Type
REMARK                         _______ _______ _______ _____ _____    ______ ____
ROOT
ATOM      1  N   UNL     1       5.658   5.410  17.343  0.00  0.00    +0.000 NA
ATOM      2  C   UNL     1       5.717   4.359  18.378  0.00  0.00    +0.000 C 
ATOM      3  C   UNL     1       4.558   3.353  18.096  0.00  0.00    +0.000 C 
ATOM      4  C   UNL     1       3.525   4.065  18.824  0.00  0.00    +0.000 A 
ATOM      5  C   UNL     1       2.987   3.465  19.938  0.00  0.00    +0.000 A 
ATOM      6  C   UNL     1       2.320   4.231  20.851  0.00  0.00    +0.000 A 
ATOM      7  C   UNL     1       2.091   5.583  20.582  0.00  0.00    +0.000 A 
ATOM      8  C   UNL     1       2.533   6.220  19.388  0.00  0.00    +0.000 A 
ATOM      9  C   UNL     1       3.340   5.429  18.513  0.00  0.00    +0.000 A 
ATOM     10  C   UNL     1       4.178   5.966  17.297  0.00  0.00    +0.000 C 
ATOM     11  C   UNL     1       4.003   7.539  17.135  0.00  0.00    +0.000 C 
ATOM     12  C   UNL     1       2.891   8.257  17.968  0.00  0.00    +0.000 A 
ATOM     13  C   UNL     1       2.537   9.592  17.640  0.00  0.00    +0.000 A 
ATOM     14  C   UNL     1       1.547  10.290  18.347  0.00  0.00    +0.000 A 
ATOM     15  C   UNL     1       0.891   9.695  19.411  0.00  0.00    +0.000 A 
ATOM     16  C   UNL     1       1.197   8.387  19.790  0.00  0.00    +0.000 A 
ATOM     17  C   UNL     1       2.212   7.644  19.065  0.00  0.00    +0.000 A 
ENDROOT
BRANCH   6  18
ATOM     18  O   UNL     1       1.984   3.630  22.016  0.00  0.00    +0.000 OA
ATOM     19  C   UNL     1       1.442   2.370  22.139  0.00  0.00    +0.000 C 
ENDBRANCH   6  18
BRANCH   1  20
ATOM     20  C   UNL     1       6.250   4.740  16.092  0.00  0.00    +0.000 C 
BRANCH  20  22
ATOM     21  C   UNL     1       5.848   3.839  13.541  0.00  0.00    +0.000 C 
ATOM     22  C   UNL     1       5.365   4.701  14.728  0.00  0.00    +0.000 C 
ENDBRANCH  20  22
ENDBRANCH   1  20
BRANCH  16  23
ATOM     23  O   UNL     1       0.508   7.820  20.824  0.00  0.00    +0.000 OA
BRANCH  23  24
ATOM     24  C   UNL     1      -0.284   8.400  21.804  0.00  0.00    +0.000 C 
BRANCH  24  25
ATOM     25  C   UNL     1       0.578   9.278  22.720  0.00  0.00    +0.000 C 
ATOM     26  F   UNL     1       0.030   9.329  23.988  0.00  0.00    +0.000 F 
ENDBRANCH  24  25
ENDBRANCH  23  24
ENDBRANCH  16  23
TORSDOF 6
ENDMDL
MODEL 2
REMARK VINA RESULT:      -6.4      1.549      4.404
REMARK  Name = 
REMARK  8 active torsions:
REMARK  status: ('A' for Active; 'I' for Inactive)
REMARK    1  A    between atoms: C_1  and  C_2
REMARK    2  A    between atoms: C_2  and  C_3
REMARK    3  A    between atoms: C_3  and  N_4
REMARK    4  A    between atoms: C_9  and  O_10
REMARK    5  A    between atoms: O_10  and  C_11
REMARK    6  A    between atoms: C_21  and  O_22
REMARK    7  A    between atoms: O_22  and  C_23
REMARK    8  A    between atoms: C_23  and  C_24
REMARK                            x       y       z     vdW  Elec       q    Type
REMARK                         _______ _______ _______ _____ _____    ______ ____
ROOT
ATOM      1  N   UNL     1       5.099   4.156  15.483  0.00  0.00    +0.000 NA
ATOM      2  C   UNL     1       4.863   5.510  14.944  0.00  0.00    +0.000 C 
ATOM      3  C   UNL     1       5.707   6.510  15.794  0.00  0.00    +0.000 C 
ATOM      4  C   UNL     1       4.729   6.717  16.845  0.00  0.00    +0.000 A 
ATOM      5  C   UNL     1       4.183   7.971  16.985  0.00  0.00    +0.000 A 
ATOM      6  C   UNL     1       3.013   8.117  17.674  0.00  0.00    +0.000 A 
ATOM      7  C   UNL     1       2.456   7.014  18.326  0.00  0.00    +0.000 A 
ATOM      8  C   UNL     1       3.047   5.720  18.302  0.00  0.00    +0.000 A 
ATOM      9  C   UNL     1       4.197   5.568  17.467  0.00  0.00    +0.000 A 
ATOM     10  C   UNL     1       4.853   4.204  17.044  0.00  0.00    +0.000 C 
ATOM     11  C   UNL     1       4.079   2.973  17.691  0.00  0.00    +0.000 C 
ATOM     12  C   UNL     1       3.013   3.261  18.800  0.00  0.00    +0.000 A 
ATOM     13  C   UNL     1       2.517   2.181  19.575  0.00  0.00    +0.000 A 
ATOM     14  C   UNL     1       1.563   2.372  20.585  0.00  0.00    +0.000 A 
ATOM     15  C   UNL     1       1.058   3.634  20.846  0.00  0.00    +0.000 A 
ATOM     16  C   UNL     1       1.500   4.739  20.115  0.00  0.00    +0.000 A 
ATOM     17  C   UNL     1       2.493   4.563  19.071  0.00  0.00    +0.000 A 
ENDROOT
BRANCH   6  18
ATOM     18  O   UNL     1       2.422   9.332  17.615  0.00  0.00    +0.000 OA
ATOM     19  C   UNL     1       1.117   9.604  17.962  0.00  0.00    +0.000 C 
ENDBRANCH   6  18
BRANCH   1  20
ATOM     20  C   UNL     1       6.490   3.776  14.950  0.00  0.00    +0.000 C 
BRANCH  20  22
ATOM     21  C   UNL     1       6.048   3.269  12.298  0.00  0.00    +0.000 C 
ATOM     22  C   UNL     1       6.830   4.043  13.382  0.00  0.00    +0.000 C 
ENDBRANCH  20  22
ENDBRANCH   1  20
BRANCH  16  23
ATOM     23  O   UNL     1       1.004   5.974  20.419  0.00  0.00    +0.000 OA
BRANCH  23  24
ATOM     24  C   UNL     1       1.375   6.874  21.408  0.00  0.00    +0.000 C 
BRANCH  24  25
ATOM     25  C   UNL     1       0.589   8.181  21.247  0.00  0.00    +0.000 C 
ATOM     26  F   UNL     1      -0.698   8.028  21.727  0.00  0.00    +0.000 F 
ENDBRANCH  24  25
ENDBRANCH  23  24
ENDBRANCH  16  23
TORSDOF 6
ENDMDL
MODEL 3
REMARK VINA RESULT:      -6.3      6.402     10.574
REMARK  Name = 
REMARK  8 active torsions:
REMARK  status: ('A' for Active; 'I' for Inactive)
REMARK    1  A    between atoms: C_1  and  C_2
REMARK    2  A    between atoms: C_2  and  C_3
REMARK    3  A    between atoms: C_3  and  N_4
REMARK    4  A    between atoms: C_9  and  O_10
REMARK    5  A    between atoms: O_10  and  C_11
REMARK    6  A    between atoms: C_21  and  O_22
REMARK    7  A    between atoms: O_22  and  C_23
REMARK    8  A    between atoms: C_23  and  C_24
REMARK                            x       y       z     vdW  Elec       q    Type
REMARK                         _______ _______ _______ _____ _____    ______ ____
ROOT
ATOM      1  N   UNL     1      -6.132  13.549  19.325  0.00  0.00    +0.000 NA
ATOM      2  C   UNL     1      -6.206  13.385  17.860  0.00  0.00    +0.000 C 
ATOM      3  C   UNL     1      -6.440  11.871  17.566  0.00  0.00    +0.000 C 
ATOM      4  C   UNL     1      -5.045  11.471  17.578  0.00  0.00    +0.000 A 
ATOM      5  C   UNL     1      -4.493  11.011  16.406  0.00  0.00    +0.000 A 
ATOM      6  C   UNL     1      -3.134  10.997  16.270  0.00  0.00    +0.000 A 
ATOM      7  C   UNL     1      -2.328  11.333  17.361  0.00  0.00    +0.000 A 
ATOM      8  C   UNL     1      -2.858  11.707  18.628  0.00  0.00    +0.000 A 
ATOM      9  C   UNL     1      -4.278  11.841  18.703  0.00  0.00    +0.000 A 
ATOM     10  C   UNL     1      -5.079  12.508  19.879  0.00  0.00    +0.000 C 
ATOM     11  C   UNL     1      -4.096  13.015  21.023  0.00  0.00    +0.000 C 
ATOM     12  C   UNL     1      -2.595  12.575  20.967  0.00  0.00    +0.000 A 
ATOM     13  C   UNL     1      -1.774  12.782  22.106  0.00  0.00    +0.000 A 
ATOM     14  C   UNL     1      -0.423  12.409  22.121  0.00  0.00    +0.000 A 
ATOM     15  C   UNL     1       0.162  11.837  21.004  0.00  0.00    +0.000 A 
ATOM     16  C   UNL     1      -0.589  11.613  19.848  0.00  0.00    +0.000 A 
ATOM     17  C   UNL     1      -1.992  11.984  19.816  0.00  0.00    +0.000 A 
ENDROOT
BRANCH   6  18
ATOM     18  O   UNL     1      -2.651  10.723  15.036  0.00  0.00    +0.000 OA
ATOM     19  C   UNL     1      -3.328  10.051  14.043  0.00  0.00    +0.000 C 
ENDBRANCH   6  18
BRANCH   1  20
ATOM     20  C   UNL     1      -7.595  13.460  19.789  0.00  0.00    +0.000 C 
BRANCH  20  22
ATOM     21  C   UNL     1      -7.610  12.218  22.225  0.00  0.00    +0.000 C 
ATOM     22  C   UNL     1      -7.917  13.475  21.383  0.00  0.00    +0.000 C 
ENDBRANCH  20  22
ENDBRANCH   1  20
BRANCH  16  23
ATOM     23  O   UNL     1       0.010  11.018  18.775  0.00  0.00    +0.000 OA
BRANCH  23  24
ATOM     24  C   UNL     1       1.346  10.731  18.535  0.00  0.00    +0.000 C 
BRANCH  24  25
ATOM     25  C   UNL     1       1.536   9.217  18.381  0.00  0.00    +0.000 C 
ATOM     26  F   UNL     1       2.722   8.947  17.724  0.00  0.00    +0.000 F 
ENDBRANCH  24  25
ENDBRANCH  23  24
ENDBRANCH  16  23
TORSDOF 6
ENDMDL
MODEL 4
REMARK VINA RESULT:      -6.2      6.144     10.323
REMARK  Name = 
REMARK  8 active torsions:
REMARK  status: ('A' for Active; 'I' for Inactive)
REMARK    1  A    between atoms: C_1  and  C_2
REMARK    2  A    between atoms: C_2  and  C_3
REMARK    3  A    between atoms: C_3  and  N_4
REMARK    4  A    between atoms: C_9  and  O_10
REMARK    5  A    between atoms: O_10  and  C_11
REMARK    6  A    between atoms: C_21  and  O_22
REMARK    7  A    between atoms: O_22  and  C_23
REMARK    8  A    between atoms: C_23  and  C_24
REMARK                            x       y       z     vdW  Elec       q    Type
REMARK                         _______ _______ _______ _____ _____    ______ ____
ROOT
ATOM      1  N   UNL     1      -3.344  12.248  23.254  0.00  0.00    +0.000 NA
ATOM      2  C   UNL     1      -1.970  11.709  23.278  0.00  0.00    +0.000 C 
ATOM      3  C   UNL     1      -1.013  12.833  22.772  0.00  0.00    +0.000 C 
ATOM      4  C   UNL     1      -1.141  12.550  21.355  0.00  0.00    +0.000 A 
ATOM      5  C   UNL     1      -0.027  12.110  20.680  0.00  0.00    +0.000 A 
ATOM      6  C   UNL     1      -0.183  11.475  19.480  0.00  0.00    +0.000 A 
ATOM      7  C   UNL     1      -1.452  11.391  18.904  0.00  0.00    +0.000 A 
ATOM      8  C   UNL     1      -2.618  11.933  19.516  0.00  0.00    +0.000 A 
ATOM      9  C   UNL     1      -2.447  12.473  20.828  0.00  0.00    +0.000 A 
ATOM     10  C   UNL     1      -3.602  12.862  21.820  0.00  0.00    +0.000 C 
ATOM     11  C   UNL     1      -5.029  12.597  21.168  0.00  0.00    +0.000 C 
ATOM     12  C   UNL     1      -5.101  12.267  19.640  0.00  0.00    +0.000 A 
ATOM     13  C   UNL     1      -6.361  12.298  18.987  0.00  0.00    +0.000 A 
ATOM     14  C   UNL     1      -6.494  12.015  17.621  0.00  0.00    +0.000 A 
ATOM     15  C   UNL     1      -5.387  11.673  16.862  0.00  0.00    +0.000 A 
ATOM     16  C   UNL     1      -4.119  11.616  17.445  0.00  0.00    +0.000 A 
ATOM     17  C   UNL     1      -3.960  11.915  18.856  0.00  0.00    +0.000 A 
ENDROOT
BRANCH   6  18
ATOM     18  O   UNL     1       0.920  10.892  18.955  0.00  0.00    +0.000 OA
ATOM     19  C   UNL     1       1.141   9.536  18.864  0.00  0.00    +0.000 C 
ENDBRANCH   6  18
BRANCH   1  20
ATOM     20  C   UNL     1      -3.411  13.162  24.489  0.00  0.00    +0.000 C 
BRANCH  20  22
ATOM     21  C   UNL     1      -2.847  15.816  24.141  0.00  0.00    +0.000 C 
ATOM     22  C   UNL     1      -3.903  14.701  24.301  0.00  0.00    +0.000 C 
ENDBRANCH  20  22
ENDBRANCH   1  20
BRANCH  16  23
ATOM     23  O   UNL     1      -3.044  11.307  16.662  0.00  0.00    +0.000 OA
BRANCH  23  24
ATOM     24  C   UNL     1      -2.669  10.104  16.082  0.00  0.00    +0.000 C 
BRANCH  24  25
ATOM     25  C   UNL     1      -2.940  10.143  14.574  0.00  0.00    +0.000 C 
ATOM     26  F   UNL     1      -4.280   9.912  14.321  0.00  0.00    +0.000 F 
ENDBRANCH  24  25
ENDBRANCH  23  24
ENDBRANCH  16  23
TORSDOF 6
ENDMDL
MODEL 5
REMARK VINA RESULT:      -5.9      6.362      9.663
REMARK  Name = 
REMARK  8 active torsions:
REMARK  status: ('A' for Active; 'I' for Inactive)
REMARK    1  A    between atoms: C_1  and  C_2
REMARK    2  A    between atoms: C_2  and  C_3
REMARK    3  A    between atoms: C_3  and  N_4
REMARK    4  A    between atoms: C_9  and  O_10
REMARK    5  A    between atoms: O_10  and  C_11
REMARK    6  A    between atoms: C_21  and  O_22
REMARK    7  A    between atoms: O_22  and  C_23
REMARK    8  A    between atoms: C_23  and  C_24
REMARK                            x       y       z     vdW  Elec       q    Type
REMARK                         _______ _______ _______ _____ _____    ______ ____
ROOT
ATOM      1  N   UNL     1      -0.538  12.628  19.203  0.00  0.00    +0.000 NA
ATOM      2  C   UNL     1      -0.189  13.482  20.355  0.00  0.00    +0.000 C 
ATOM      3  C   UNL     1      -0.169  12.576  21.625  0.00  0.00    +0.000 C 
ATOM      4  C   UNL     1      -1.583  12.672  21.934  0.00  0.00    +0.000 A 
ATOM      5  C   UNL     1      -1.950  13.295  23.103  0.00  0.00    +0.000 A 
ATOM      6  C   UNL     1      -3.232  13.746  23.244  0.00  0.00    +0.000 A 
ATOM      7  C   UNL     1      -4.176  13.460  22.255  0.00  0.00    +0.000 A 
ATOM      8  C   UNL     1      -3.865  12.720  21.079  0.00  0.00    +0.000 A 
ATOM      9  C   UNL     1      -2.491  12.376  20.896  0.00  0.00    +0.000 A 
ATOM     10  C   UNL     1      -1.849  11.824  19.572  0.00  0.00    +0.000 C 
ATOM     11  C   UNL     1      -2.945  11.668  18.428  0.00  0.00    +0.000 C 
ATOM     12  C   UNL     1      -4.454  11.811  18.816  0.00  0.00    +0.000 A 
ATOM     13  C   UNL     1      -5.446  11.409  17.884  0.00  0.00    +0.000 A 
ATOM     14  C   UNL     1      -6.815  11.509  18.171  0.00  0.00    +0.000 A 
ATOM     15  C   UNL     1      -7.244  12.027  19.381  0.00  0.00    +0.000 A 
ATOM     16  C   UNL     1      -6.319  12.448  20.339  0.00  0.00    +0.000 A 
ATOM     17  C   UNL     1      -4.898  12.344  20.064  0.00  0.00    +0.000 A 
ENDROOT
BRANCH   6  18
ATOM     18  O   UNL     1      -3.487  14.520  24.324  0.00  0.00    +0.000 OA
ATOM     19  C   UNL     1      -4.256  15.661  24.326  0.00  0.00    +0.000 C 
ENDBRANCH   6  18
BRANCH   1  20
ATOM     20  C   UNL     1       0.758  11.858  18.900  0.00  0.00    +0.000 C 
BRANCH  20  22
ATOM     21  C   UNL     1       1.569   9.441  17.907  0.00  0.00    +0.000 C 
ATOM     22  C   UNL     1       0.732  10.231  18.937  0.00  0.00    +0.000 C 
ENDBRANCH  20  22
ENDBRANCH   1  20
BRANCH  16  23
ATOM     23  O   UNL     1      -6.776  12.925  21.534  0.00  0.00    +0.000 OA
BRANCH  23  24
ATOM     24  C   UNL     1      -7.766  12.441  22.377  0.00  0.00    +0.000 C 
BRANCH  24  25
ATOM     25  C   UNL     1      -7.534  12.954  23.804  0.00  0.00    +0.000 C 
ATOM     26  F   UNL     1      -6.433  12.332  24.364  0.00  0.00    +0.000 F 
ENDBRANCH  24  25
ENDBRANCH  23  24
ENDBRANCH  16  23
TORSDOF 6
ENDMDL
MODEL 6
REMARK VINA RESULT:      -5.9      6.403     10.682
REMARK  Name = 
REMARK  8 active torsions:
REMARK  status: ('A' for Active; 'I' for Inactive)
REMARK    1  A    between atoms: C_1  and  C_2
REMARK    2  A    between atoms: C_2  and  C_3
REMARK    3  A    between atoms: C_3  and  N_4
REMARK    4  A    between atoms: C_9  and  O_10
REMARK    5  A    between atoms: O_10  and  C_11
REMARK    6  A    between atoms: C_21  and  O_22
REMARK    7  A    between atoms: O_22  and  C_23
REMARK    8  A    between atoms: C_23  and  C_24
REMARK                            x       y       z     vdW  Elec       q    Type
REMARK                         _______ _______ _______ _____ _____    ______ ____
ROOT
ATOM      1  N   UNL     1      -3.249  12.810  23.439  0.00  0.00    +0.000 NA
ATOM      2  C   UNL     1      -1.878  12.282  23.293  0.00  0.00    +0.000 C 
ATOM      3  C   UNL     1      -1.024  13.379  22.584  0.00  0.00    +0.000 C 
ATOM      4  C   UNL     1      -1.353  13.006  21.221  0.00  0.00    +0.000 A 
ATOM      5  C   UNL     1      -0.344  12.531  20.418  0.00  0.00    +0.000 A 
ATOM      6  C   UNL     1      -0.663  11.821  19.295  0.00  0.00    +0.000 A 
ATOM      7  C   UNL     1      -2.003  11.693  18.919  0.00  0.00    +0.000 A 
ATOM      8  C   UNL     1      -3.074  12.264  19.661  0.00  0.00    +0.000 A 
ATOM      9  C   UNL     1      -2.722  12.887  20.898  0.00  0.00    +0.000 A 
ATOM     10  C   UNL     1      -3.724  13.331  22.024  0.00  0.00    +0.000 C 
ATOM     11  C   UNL     1      -5.227  13.015  21.606  0.00  0.00    +0.000 C 
ATOM     12  C   UNL     1      -5.517  12.589  20.129  0.00  0.00    +0.000 A 
ATOM     13  C   UNL     1      -6.860  12.571  19.668  0.00  0.00    +0.000 A 
ATOM     14  C   UNL     1      -7.187  12.200  18.356  0.00  0.00    +0.000 A 
ATOM     15  C   UNL     1      -6.198  11.819  17.465  0.00  0.00    +0.000 A 
ATOM     16  C   UNL     1      -4.857  11.808  17.857  0.00  0.00    +0.000 A 
ATOM     17  C   UNL     1      -4.498  12.196  19.209  0.00  0.00    +0.000 A 
ENDROOT
BRANCH   6  18
ATOM     18  O   UNL     1       0.359  11.214  18.651  0.00  0.00    +0.000 OA
ATOM     19  C   UNL     1       0.713   9.890  18.781  0.00  0.00    +0.000 C 
ENDBRANCH   6  18
BRANCH   1  20
ATOM     20  C   UNL     1      -3.149  13.800  24.611  0.00  0.00    +0.000 C 
BRANCH  20  22
ATOM     21  C   UNL     1      -4.814  15.963  24.436  0.00  0.00    +0.000 C 
ATOM     22  C   UNL     1      -3.387  15.383  24.325  0.00  0.00    +0.000 C 
ENDBRANCH  20  22
ENDBRANCH   1  20
BRANCH  16  23
ATOM     23  O   UNL     1      -3.904  11.457  16.945  0.00  0.00    +0.000 OA
BRANCH  23  24
ATOM     24  C   UNL     1      -4.027  10.850  15.703  0.00  0.00    +0.000 C 
BRANCH  24  25
ATOM     25  C   UNL     1      -2.708  10.166  15.324  0.00  0.00    +0.000 C 
ATOM     26  F   UNL     1      -2.149   9.555  16.431  0.00  0.00    +0.000 F 
ENDBRANCH  24  25
ENDBRANCH  23  24
ENDBRANCH  16  23
TORSDOF 6
ENDMDL
MODEL 7
REMARK VINA RESULT:      -5.9      5.443      8.417
REMARK  Name = 
REMARK  8 active torsions:
REMARK  status: ('A' for Active; 'I' for Inactive)
REMARK    1  A    between atoms: C_1  and  C_2
REMARK    2  A    between atoms: C_2  and  C_3
REMARK    3  A    between atoms: C_3  and  N_4
REMARK    4  A    between atoms: C_9  and  O_10
REMARK    5  A    between atoms: O_10  and  C_11
REMARK    6  A    between atoms: C_21  and  O_22
REMARK    7  A    between atoms: O_22  and  C_23
REMARK    8  A    between atoms: C_23  and  C_24
REMARK                            x       y       z     vdW  Elec       q    Type
REMARK                         _______ _______ _______ _____ _____    ______ ____
ROOT
ATOM      1  N   UNL     1       0.652  11.696  18.627  0.00  0.00    +0.000 NA
ATOM      2  C   UNL     1       1.097  12.334  19.881  0.00  0.00    +0.000 C 
ATOM      3  C   UNL     1       0.892  11.302  21.034  0.00  0.00    +0.000 C 
ATOM      4  C   UNL     1      -0.493  11.626  21.317  0.00  0.00    +0.000 A 
ATOM      5  C   UNL     1      -0.794  12.171  22.542  0.00  0.00    +0.000 A 
ATOM      6  C   UNL     1      -1.976  12.835  22.705  0.00  0.00    +0.000 A 
ATOM      7  C   UNL     1      -2.910  12.846  21.665  0.00  0.00    +0.000 A 
ATOM      8  C   UNL     1      -2.686  12.198  20.418  0.00  0.00    +0.000 A 
ATOM      9  C   UNL     1      -1.391  11.625  20.228  0.00  0.00    +0.000 A 
ATOM     10  C   UNL     1      -0.800  11.117  18.864  0.00  0.00    +0.000 C 
ATOM     11  C   UNL     1      -1.852  11.300  17.683  0.00  0.00    +0.000 C 
ATOM     12  C   UNL     1      -3.325  11.678  18.048  0.00  0.00    +0.000 A 
ATOM     13  C   UNL     1      -4.330  11.577  17.050  0.00  0.00    +0.000 A 
ATOM     14  C   UNL     1      -5.669  11.899  17.313  0.00  0.00    +0.000 A 
ATOM     15  C   UNL     1      -6.052  12.348  18.566  0.00  0.00    +0.000 A 
ATOM     16  C   UNL     1      -5.111  12.477  19.590  0.00  0.00    +0.000 A 
ATOM     17  C   UNL     1      -3.722  12.140  19.340  0.00  0.00    +0.000 A 
ENDROOT
BRANCH   6  18
ATOM     18  O   UNL     1      -2.135  13.516  23.863  0.00  0.00    +0.000 OA
ATOM     19  C   UNL     1      -1.653  14.779  24.121  0.00  0.00    +0.000 C 
ENDBRANCH   6  18
BRANCH   1  20
ATOM     20  C   UNL     1       1.797  10.736  18.265  0.00  0.00    +0.000 C 
BRANCH  20  22
ATOM     21  C   UNL     1       2.578   8.135  17.938  0.00  0.00    +0.000 C 
ATOM     22  C   UNL     1       1.444   9.184  17.930  0.00  0.00    +0.000 C 
ENDBRANCH  20  22
ENDBRANCH   1  20
BRANCH  16  23
ATOM     23  O   UNL     1      -5.528  12.892  20.822  0.00  0.00    +0.000 OA
BRANCH  23  24
ATOM     24  C   UNL     1      -6.686  12.598  21.527  0.00  0.00    +0.000 C 
BRANCH  24  25
ATOM     25  C   UNL     1      -6.476  12.886  23.019  0.00  0.00    +0.000 C 
ATOM     26  F   UNL     1      -7.690  12.894  23.681  0.00  0.00    +0.000 F 
ENDBRANCH  24  25
ENDBRANCH  23  24
ENDBRANCH  16  23
TORSDOF 6
ENDMDL
MODEL 8
REMARK VINA RESULT:      -5.9      2.712      6.060
REMARK  Name = 
REMARK  8 active torsions:
REMARK  status: ('A' for Active; 'I' for Inactive)
REMARK    1  A    between atoms: C_1  and  C_2
REMARK    2  A    between atoms: C_2  and  C_3
REMARK    3  A    between atoms: C_3  and  N_4
REMARK    4  A    between atoms: C_9  and  O_10
REMARK    5  A    between atoms: O_10  and  C_11
REMARK    6  A    between atoms: C_21  and  O_22
REMARK    7  A    between atoms: O_22  and  C_23
REMARK    8  A    between atoms: C_23  and  C_24
REMARK                            x       y       z     vdW  Elec       q    Type
REMARK                         _______ _______ _______ _____ _____    ______ ____
ROOT
ATOM      1  N   UNL     1       1.789   9.223  17.967  0.00  0.00    +0.000 NA
ATOM      2  C   UNL     1       0.769   8.671  18.881  0.00  0.00    +0.000 C 
ATOM      3  C   UNL     1       1.428   8.524  20.288  0.00  0.00    +0.000 C 
ATOM      4  C   UNL     1       2.005   7.210  20.077  0.00  0.00    +0.000 A 
ATOM      5  C   UNL     1       1.534   6.166  20.836  0.00  0.00    +0.000 A 
ATOM      6  C   UNL     1       1.754   4.884  20.418  0.00  0.00    +0.000 A 
ATOM      7  C   UNL     1       2.554   4.653  19.296  0.00  0.00    +0.000 A 
ATOM      8  C   UNL     1       3.156   5.702  18.545  0.00  0.00    +0.000 A 
ATOM      9  C   UNL     1       2.801   7.033  18.926  0.00  0.00    +0.000 A 
ATOM     10  C   UNL     1       3.091   8.336  18.095  0.00  0.00    +0.000 C 
ATOM     11  C   UNL     1       3.867   7.993  16.749  0.00  0.00    +0.000 C 
ATOM     12  C   UNL     1       4.442   6.550  16.565  0.00  0.00    +0.000 A 
ATOM     13  C   UNL     1       5.362   6.304  15.512  0.00  0.00    +0.000 A 
ATOM     14  C   UNL     1       5.915   5.034  15.295  0.00  0.00    +0.000 A 
ATOM     15  C   UNL     1       5.562   3.965  16.101  0.00  0.00    +0.000 A 
ATOM     16  C   UNL     1       4.656   4.138  17.150  0.00  0.00    +0.000 A 
ATOM     17  C   UNL     1       4.079   5.447  17.396  0.00  0.00    +0.000 A 
ENDROOT
BRANCH   6  18
ATOM     18  O   UNL     1       1.106   3.907  21.092  0.00  0.00    +0.000 OA
ATOM     19  C   UNL     1       1.681   2.754  21.578  0.00  0.00    +0.000 C 
ENDBRANCH   6  18
BRANCH   1  20
ATOM     20  C   UNL     1       1.854  10.715  18.333  0.00  0.00    +0.000 C 
BRANCH  20  22
ATOM     21  C   UNL     1       0.414  13.026  18.586  0.00  0.00    +0.000 C 
ATOM     22  C   UNL     1       0.478  11.490  18.721  0.00  0.00    +0.000 C 
ENDBRANCH  20  22
ENDBRANCH   1  20
BRANCH  16  23
ATOM     23  O   UNL     1       4.354   3.070  17.945  0.00  0.00    +0.000 OA
BRANCH  23  24
ATOM     24  C   UNL     1       3.588   1.943  17.686  0.00  0.00    +0.000 C 
BRANCH  24  25
ATOM     25  C   UNL     1       3.653   0.981  18.879  0.00  0.00    +0.000 C 
ATOM     26  F   UNL     1       4.559   1.442  19.817  0.00  0.00    +0.000 F 
ENDBRANCH  24  25
ENDBRANCH  23  24
ENDBRANCH  16  23
TORSDOF 6
ENDMDL
MODEL 9
REMARK VINA RESULT:      -5.9      7.113      9.257
REMARK  Name = 
REMARK  8 active torsions:
REMARK  status: ('A' for Active; 'I' for Inactive)
REMARK    1  A    between atoms: C_1  and  C_2
REMARK    2  A    between atoms: C_2  and  C_3
REMARK    3  A    between atoms: C_3  and  N_4
REMARK    4  A    between atoms: C_9  and  O_10
REMARK    5  A    between atoms: O_10  and  C_11
REMARK    6  A    between atoms: C_21  and  O_22
REMARK    7  A    between atoms: O_22  and  C_23
REMARK    8  A    between atoms: C_23  and  C_24
REMARK                            x       y       z     vdW  Elec       q    Type
REMARK                         _______ _______ _______ _____ _____    ______ ____
ROOT
ATOM      1  N   UNL     1      -3.800  11.042  15.860  0.00  0.00    +0.000 NA
ATOM      2  C   UNL     1      -2.334  11.067  16.033  0.00  0.00    +0.000 C 
ATOM      3  C   UNL     1      -1.950   9.878  16.968  0.00  0.00    +0.000 C 
ATOM      4  C   UNL     1      -2.148  10.572  18.227  0.00  0.00    +0.000 A 
ATOM      5  C   UNL     1      -1.052  10.789  19.027  0.00  0.00    +0.000 A 
ATOM      6  C   UNL     1      -1.114  11.748  19.998  0.00  0.00    +0.000 A 
ATOM      7  C   UNL     1      -2.323  12.405  20.241  0.00  0.00    +0.000 A 
ATOM      8  C   UNL     1      -3.514  12.131  19.511  0.00  0.00    +0.000 A 
ATOM      9  C   UNL     1      -3.387  11.221  18.417  0.00  0.00    +0.000 A 
ATOM     10  C   UNL     1      -4.459  10.975  17.295  0.00  0.00    +0.000 C 
ATOM     11  C   UNL     1      -5.753  11.869  17.537  0.00  0.00    +0.000 C 
ATOM     12  C   UNL     1      -5.899  12.618  18.904  0.00  0.00    +0.000 A 
ATOM     13  C   UNL     1      -7.152  13.189  19.246  0.00  0.00    +0.000 A 
ATOM     14  C   UNL     1      -7.348  13.871  20.456  0.00  0.00    +0.000 A 
ATOM     15  C   UNL     1      -6.306  14.024  21.355  0.00  0.00    +0.000 A 
ATOM     16  C   UNL     1      -5.045  13.493  21.074  0.00  0.00    +0.000 A 
ATOM     17  C   UNL     1      -4.825  12.776  19.831  0.00  0.00    +0.000 A 
ENDROOT
BRANCH   6  18
ATOM     18  O   UNL     1       0.046  12.055  20.622  0.00  0.00    +0.000 OA
ATOM     19  C   UNL     1       1.145  12.634  20.028  0.00  0.00    +0.000 C 
ENDBRANCH   6  18
BRANCH   1  20
ATOM     20  C   UNL     1      -4.042   9.895  14.865  0.00  0.00    +0.000 C 
BRANCH  20  22
ATOM     21  C   UNL     1      -4.222   9.822  12.137  0.00  0.00    +0.000 C 
ATOM     22  C   UNL     1      -3.343   9.967  13.398  0.00  0.00    +0.000 C 
ENDBRANCH  20  22
ENDBRANCH   1  20
BRANCH  16  23
ATOM     23  O   UNL     1      -4.048  13.635  21.996  0.00  0.00    +0.000 OA
BRANCH  23  24
ATOM     24  C   UNL     1      -3.930  14.509  23.067  0.00  0.00    +0.000 C 
BRANCH  24  25
ATOM     25  C   UNL     1      -3.589  13.730  24.342  0.00  0.00    +0.000 C 
ATOM     26  F   UNL     1      -3.902  12.392  24.185  0.00  0.00    +0.000 F 
ENDBRANCH  24  25
ENDBRANCH  23  24
ENDBRANCH  16  23
TORSDOF 6
ENDMDL
