MODEL 1
REMARK VINA RESULT:      -6.6      0.000      0.000
REMARK  Name = 
REMARK  4 active torsions:
REMARK  status: ('A' for Active; 'I' for Inactive)
REMARK    1  A    between atoms: C_1  and  N_2
REMARK    2  A    between atoms: N_2  and  C_3
REMARK    3  A    between atoms: N_2  and  C_11
REMARK    4  A    between atoms: C_3  and  C_4
REMARK                            x       y       z     vdW  Elec       q    Type
REMARK                         _______ _______ _______ _____ _____    ______ ____
ROOT
ATOM      1  C   UNL     1       2.392   6.563  19.773  0.00  0.00    +0.000 C 
ATOM      2  N   UNL     1       3.080   5.438  19.132  0.00  0.00    +0.000 NA
ENDROOT
BRANCH   2   3
ATOM      3  C   UNL     1       2.633   4.118  19.640  0.00  0.00    +0.000 C 
ATOM      4  C   UNL     1       2.181   4.059  21.089  0.00  0.00    +0.000 C 
ATOM      5  C   UNL     1       1.241   2.882  21.094  0.00  0.00    +0.000 C 
ATOM      6  O   UNL     1       0.634   2.863  19.803  0.00  0.00    +0.000 OA
ATOM      7  C   UNL     1       1.426   3.536  18.911  0.00  0.00    +0.000 C 
ATOM      8  O   UNL     1       1.180   3.598  17.715  0.00  0.00    +0.000 OA
ENDBRANCH   2   3
BRANCH   2   9
ATOM      9  C   UNL     1       4.546   5.554  19.206  0.00  0.00    +0.000 C 
BRANCH   9  10
ATOM     10  C   UNL     1       5.258   5.410  17.874  0.00  0.00    +0.000 A 
ATOM     11  C   UNL     1       4.725   6.008  16.720  0.00  0.00    +0.000 A 
ATOM     12  C   UNL     1       5.356   5.859  15.484  0.00  0.00    +0.000 A 
ATOM     13  C   UNL     1       6.535   5.126  15.396  0.00  0.00    +0.000 A 
ATOM     14 CL   UNL     1       7.316   4.945  13.873  0.00  0.00    +0.000 Cl
ATOM     15  C   UNL     1       7.085   4.533  16.532  0.00  0.00    +0.000 A 
ATOM     16  C   UNL     1       6.441   4.668  17.768  0.00  0.00    +0.000 A 
ENDBRANCH   9  10
ENDBRANCH   2   9
TORSDOF 3
ENDMDL
MODEL 2
REMARK VINA RESULT:      -6.4      0.820      1.276
REMARK  Name = 
REMARK  4 active torsions:
REMARK  status: ('A' for Active; 'I' for Inactive)
REMARK    1  A    between atoms: C_1  and  N_2
REMARK    2  A    between atoms: N_2  and  C_3
REMARK    3  A    between atoms: N_2  and  C_11
REMARK    4  A    between atoms: C_3  and  C_4
REMARK                            x       y       z     vdW  Elec       q    Type
REMARK                         _______ _______ _______ _____ _____    ______ ____
ROOT
ATOM      1  C   UNL     1       2.222   6.691  19.733  0.00  0.00    +0.000 C 
ATOM      2  N   UNL     1       2.844   5.557  19.042  0.00  0.00    +0.000 NA
ENDROOT
BRANCH   2   3
ATOM      3  C   UNL     1       2.566   4.256  19.695  0.00  0.00    +0.000 C 
ATOM      4  C   UNL     1       2.160   4.296  21.159  0.00  0.00    +0.000 C 
ATOM      5  C   UNL     1       1.362   3.028  21.316  0.00  0.00    +0.000 C 
ATOM      6  O   UNL     1       0.730   2.807  20.055  0.00  0.00    +0.000 OA
ATOM      7  C   UNL     1       1.417   3.469  19.072  0.00  0.00    +0.000 C 
ATOM      8  O   UNL     1       1.137   3.378  17.886  0.00  0.00    +0.000 OA
ENDBRANCH   2   3
BRANCH   2   9
ATOM      9  C   UNL     1       4.293   5.740  18.844  0.00  0.00    +0.000 C 
BRANCH   9  10
ATOM     10  C   UNL     1       4.796   5.341  17.470  0.00  0.00    +0.000 A 
ATOM     11  C   UNL     1       5.041   3.989  17.173  0.00  0.00    +0.000 A 
ATOM     12  C   UNL     1       5.530   3.613  15.921  0.00  0.00    +0.000 A 
ATOM     13  C   UNL     1       5.761   4.582  14.951  0.00  0.00    +0.000 A 
ATOM     14 CL   UNL     1       6.360   4.118  13.406  0.00  0.00    +0.000 Cl
ATOM     15  C   UNL     1       5.515   5.928  15.224  0.00  0.00    +0.000 A 
ATOM     16  C   UNL     1       5.042   6.307  16.485  0.00  0.00    +0.000 A 
ENDBRANCH   9  10
ENDBRANCH   2   9
TORSDOF 3
ENDMDL
MODEL 3
REMARK VINA RESULT:      -6.4      4.066      6.504
REMARK  Name = 
REMARK  4 active torsions:
REMARK  status: ('A' for Active; 'I' for Inactive)
REMARK    1  A    between atoms: C_1  and  N_2
REMARK    2  A    between atoms: N_2  and  C_3
REMARK    3  A    between atoms: N_2  and  C_11
REMARK    4  A    between atoms: C_3  and  C_4
REMARK                            x       y       z     vdW  Elec       q    Type
REMARK                         _______ _______ _______ _____ _____    ______ ____
ROOT
ATOM      1  C   UNL     1       5.058   5.788  17.799  0.00  0.00    +0.000 C 
ATOM      2  N   UNL     1       5.073   4.381  17.387  0.00  0.00    +0.000 NA
ENDROOT
BRANCH   2   3
ATOM      3  C   UNL     1       5.884   4.140  16.170  0.00  0.00    +0.000 C 
ATOM      4  C   UNL     1       5.461   4.875  14.908  0.00  0.00    +0.000 C 
ATOM      5  C   UNL     1       6.747   4.955  14.126  0.00  0.00    +0.000 C 
ATOM      6  O   UNL     1       7.788   5.049  15.098  0.00  0.00    +0.000 OA
ATOM      7  C   UNL     1       7.348   4.550  16.295  0.00  0.00    +0.000 C 
ATOM      8  O   UNL     1       8.071   4.434  17.274  0.00  0.00    +0.000 OA
ENDBRANCH   2   3
BRANCH   2   9
ATOM      9  C   UNL     1       3.718   3.823  17.228  0.00  0.00    +0.000 C 
BRANCH   9  10
ATOM     10  C   UNL     1       3.022   3.478  18.530  0.00  0.00    +0.000 A 
ATOM     11  C   UNL     1       3.761   2.977  19.615  0.00  0.00    +0.000 A 
ATOM     12  C   UNL     1       3.127   2.630  20.810  0.00  0.00    +0.000 A 
ATOM     13  C   UNL     1       1.752   2.798  20.934  0.00  0.00    +0.000 A 
ATOM     14 CL   UNL     1       0.970   2.374  22.407  0.00  0.00    +0.000 Cl
ATOM     15  C   UNL     1       1.002   3.303  19.871  0.00  0.00    +0.000 A 
ATOM     16  C   UNL     1       1.636   3.633  18.668  0.00  0.00    +0.000 A 
ENDBRANCH   9  10
ENDBRANCH   2   9
TORSDOF 3
ENDMDL
MODEL 4
REMARK VINA RESULT:      -6.3      3.712      6.104
REMARK  Name = 
REMARK  4 active torsions:
REMARK  status: ('A' for Active; 'I' for Inactive)
REMARK    1  A    between atoms: C_1  and  N_2
REMARK    2  A    between atoms: N_2  and  C_3
REMARK    3  A    between atoms: N_2  and  C_11
REMARK    4  A    between atoms: C_3  and  C_4
REMARK                            x       y       z     vdW  Elec       q    Type
REMARK                         _______ _______ _______ _____ _____    ______ ____
ROOT
ATOM      1  C   UNL     1       5.026   7.176  17.250  0.00  0.00    +0.000 C 
ATOM      2  N   UNL     1       4.728   5.780  17.584  0.00  0.00    +0.000 NA
ENDROOT
BRANCH   2   3
ATOM      3  C   UNL     1       5.523   4.811  16.791  0.00  0.00    +0.000 C 
ATOM      4  C   UNL     1       5.794   5.172  15.339  0.00  0.00    +0.000 C 
ATOM      5  C   UNL     1       7.064   4.417  15.043  0.00  0.00    +0.000 C 
ATOM      6  O   UNL     1       7.791   4.382  16.270  0.00  0.00    +0.000 OA
ATOM      7  C   UNL     1       6.933   4.566  17.321  0.00  0.00    +0.000 C 
ATOM      8  O   UNL     1       7.285   4.496  18.489  0.00  0.00    +0.000 OA
ENDBRANCH   2   3
BRANCH   2   9
ATOM      9  C   UNL     1       3.291   5.470  17.494  0.00  0.00    +0.000 C 
BRANCH   9  10
ATOM     10  C   UNL     1       2.742   4.683  18.668  0.00  0.00    +0.000 A 
ATOM     11  C   UNL     1       2.841   5.197  19.972  0.00  0.00    +0.000 A 
ATOM     12  C   UNL     1       2.364   4.468  21.062  0.00  0.00    +0.000 A 
ATOM     13  C   UNL     1       1.767   3.229  20.856  0.00  0.00    +0.000 A 
ATOM     14 CL   UNL     1       1.174   2.332  22.201  0.00  0.00    +0.000 Cl
ATOM     15  C   UNL     1       1.650   2.706  19.568  0.00  0.00    +0.000 A 
ATOM     16  C   UNL     1       2.146   3.429  18.477  0.00  0.00    +0.000 A 
ENDBRANCH   9  10
ENDBRANCH   2   9
TORSDOF 3
ENDMDL
MODEL 5
REMARK VINA RESULT:      -6.2      1.843      2.295
REMARK  Name = 
REMARK  4 active torsions:
REMARK  status: ('A' for Active; 'I' for Inactive)
REMARK    1  A    between atoms: C_1  and  N_2
REMARK    2  A    between atoms: N_2  and  C_3
REMARK    3  A    between atoms: N_2  and  C_11
REMARK    4  A    between atoms: C_3  and  C_4
REMARK                            x       y       z     vdW  Elec       q    Type
REMARK                         _______ _______ _______ _____ _____    ______ ____
ROOT
ATOM      1  C   UNL     1       1.241   3.655  18.087  0.00  0.00    +0.000 C 
ATOM      2  N   UNL     1       2.584   3.945  18.601  0.00  0.00    +0.000 NA
ENDROOT
BRANCH   2   3
ATOM      3  C   UNL     1       2.684   3.808  20.074  0.00  0.00    +0.000 C 
ATOM      4  C   UNL     1       1.421   3.395  20.811  0.00  0.00    +0.000 C 
ATOM      5  C   UNL     1       1.964   2.740  22.055  0.00  0.00    +0.000 C 
ATOM      6  O   UNL     1       3.200   2.140  21.671  0.00  0.00    +0.000 OA
ATOM      7  C   UNL     1       3.681   2.754  20.544  0.00  0.00    +0.000 C 
ATOM      8  O   UNL     1       4.768   2.489  20.053  0.00  0.00    +0.000 OA
ENDBRANCH   2   3
BRANCH   2   9
ATOM      9  C   UNL     1       3.085   5.260  18.165  0.00  0.00    +0.000 C 
BRANCH   9  10
ATOM     10  C   UNL     1       4.145   5.202  17.082  0.00  0.00    +0.000 A 
ATOM     11  C   UNL     1       4.640   3.963  16.643  0.00  0.00    +0.000 A 
ATOM     12  C   UNL     1       5.635   3.899  15.666  0.00  0.00    +0.000 A 
ATOM     13  C   UNL     1       6.131   5.073  15.109  0.00  0.00    +0.000 A 
ATOM     14 CL   UNL     1       7.355   4.995  13.901  0.00  0.00    +0.000 Cl
ATOM     15  C   UNL     1       5.645   6.313  15.525  0.00  0.00    +0.000 A 
ATOM     16  C   UNL     1       4.660   6.377  16.517  0.00  0.00    +0.000 A 
ENDBRANCH   9  10
ENDBRANCH   2   9
TORSDOF 3
ENDMDL
MODEL 6
REMARK VINA RESULT:      -6.2      3.878      5.787
REMARK  Name = 
REMARK  4 active torsions:
REMARK  status: ('A' for Active; 'I' for Inactive)
REMARK    1  A    between atoms: C_1  and  N_2
REMARK    2  A    between atoms: N_2  and  C_3
REMARK    3  A    between atoms: N_2  and  C_11
REMARK    4  A    between atoms: C_3  and  C_4
REMARK                            x       y       z     vdW  Elec       q    Type
REMARK                         _______ _______ _______ _____ _____    ______ ____
ROOT
ATOM      1  C   UNL     1       7.683   5.433  19.378  0.00  0.00    +0.000 C 
ATOM      2  N   UNL     1       6.673   4.837  18.498  0.00  0.00    +0.000 NA
ENDROOT
BRANCH   2   3
ATOM      3  C   UNL     1       7.148   4.661  17.104  0.00  0.00    +0.000 C 
ATOM      4  C   UNL     1       6.292   3.797  16.193  0.00  0.00    +0.000 C 
ATOM      5  C   UNL     1       6.629   4.328  14.823  0.00  0.00    +0.000 C 
ATOM      6  O   UNL     1       6.904   5.716  15.000  0.00  0.00    +0.000 OA
ATOM      7  C   UNL     1       7.250   5.956  16.304  0.00  0.00    +0.000 C 
ATOM      8  O   UNL     1       7.616   7.051  16.705  0.00  0.00    +0.000 OA
ENDBRANCH   2   3
BRANCH   2   9
ATOM      9  C   UNL     1       5.396   5.572  18.523  0.00  0.00    +0.000 C 
BRANCH   9  10
ATOM     10  C   UNL     1       4.163   4.691  18.578  0.00  0.00    +0.000 A 
ATOM     11  C   UNL     1       2.983   5.085  17.926  0.00  0.00    +0.000 A 
ATOM     12  C   UNL     1       1.834   4.295  17.993  0.00  0.00    +0.000 A 
ATOM     13  C   UNL     1       1.862   3.096  18.699  0.00  0.00    +0.000 A 
ATOM     14 CL   UNL     1       0.446   2.120  18.779  0.00  0.00    +0.000 Cl
ATOM     15  C   UNL     1       3.027   2.683  19.345  0.00  0.00    +0.000 A 
ATOM     16  C   UNL     1       4.173   3.485  19.292  0.00  0.00    +0.000 A 
ENDBRANCH   9  10
ENDBRANCH   2   9
TORSDOF 3
ENDMDL
MODEL 7
REMARK VINA RESULT:      -6.2      2.242      3.039
REMARK  Name = 
REMARK  4 active torsions:
REMARK  status: ('A' for Active; 'I' for Inactive)
REMARK    1  A    between atoms: C_1  and  N_2
REMARK    2  A    between atoms: N_2  and  C_3
REMARK    3  A    between atoms: N_2  and  C_11
REMARK    4  A    between atoms: C_3  and  C_4
REMARK                            x       y       z     vdW  Elec       q    Type
REMARK                         _______ _______ _______ _____ _____    ______ ____
ROOT
ATOM      1  C   UNL     1       2.831   1.763  18.167  0.00  0.00    +0.000 C 
ATOM      2  N   UNL     1       3.708   2.915  18.403  0.00  0.00    +0.000 NA
ENDROOT
BRANCH   2   3
ATOM      3  C   UNL     1       3.189   3.836  19.443  0.00  0.00    +0.000 C 
ATOM      4  C   UNL     1       1.833   4.471  19.182  0.00  0.00    +0.000 C 
ATOM      5  C   UNL     1       1.332   4.764  20.572  0.00  0.00    +0.000 C 
ATOM      6  O   UNL     1       1.867   3.735  21.404  0.00  0.00    +0.000 OA
ATOM      7  C   UNL     1       2.974   3.190  20.809  0.00  0.00    +0.000 C 
ATOM      8  O   UNL     1       3.674   2.347  21.349  0.00  0.00    +0.000 OA
ENDBRANCH   2   3
BRANCH   2   9
ATOM      9  C   UNL     1       4.022   3.651  17.167  0.00  0.00    +0.000 C 
BRANCH   9  10
ATOM     10  C   UNL     1       5.044   4.759  17.336  0.00  0.00    +0.000 A 
ATOM     11  C   UNL     1       6.313   4.474  17.867  0.00  0.00    +0.000 A 
ATOM     12  C   UNL     1       7.252   5.490  18.052  0.00  0.00    +0.000 A 
ATOM     13  C   UNL     1       6.936   6.796  17.692  0.00  0.00    +0.000 A 
ATOM     14 CL   UNL     1       8.095   8.048  17.916  0.00  0.00    +0.000 Cl
ATOM     15  C   UNL     1       5.684   7.097  17.154  0.00  0.00    +0.000 A 
ATOM     16  C   UNL     1       4.737   6.081  16.985  0.00  0.00    +0.000 A 
ENDBRANCH   9  10
ENDBRANCH   2   9
TORSDOF 3
ENDMDL
MODEL 8
REMARK VINA RESULT:      -6.2      0.858      1.512
REMARK  Name = 
REMARK  4 active torsions:
REMARK  status: ('A' for Active; 'I' for Inactive)
REMARK    1  A    between atoms: C_1  and  N_2
REMARK    2  A    between atoms: N_2  and  C_3
REMARK    3  A    between atoms: N_2  and  C_11
REMARK    4  A    between atoms: C_3  and  C_4
REMARK                            x       y       z     vdW  Elec       q    Type
REMARK                         _______ _______ _______ _____ _____    ______ ____
ROOT
ATOM      1  C   UNL     1       2.344   5.699  20.497  0.00  0.00    +0.000 C 
ATOM      2  N   UNL     1       3.015   5.314  19.251  0.00  0.00    +0.000 NA
ENDROOT
BRANCH   2   3
ATOM      3  C   UNL     1       2.753   3.907  18.861  0.00  0.00    +0.000 C 
ATOM      4  C   UNL     1       2.547   2.910  19.989  0.00  0.00    +0.000 C 
ATOM      5  C   UNL     1       1.707   1.843  19.336  0.00  0.00    +0.000 C 
ATOM      6  O   UNL     1       0.902   2.517  18.371  0.00  0.00    +0.000 OA
ATOM      7  C   UNL     1       1.488   3.707  18.031  0.00  0.00    +0.000 C 
ATOM      8  O   UNL     1       1.048   4.443  17.159  0.00  0.00    +0.000 OA
ENDBRANCH   2   3
BRANCH   2   9
ATOM      9  C   UNL     1       4.463   5.583  19.281  0.00  0.00    +0.000 C 
BRANCH   9  10
ATOM     10  C   UNL     1       5.162   5.421  17.945  0.00  0.00    +0.000 A 
ATOM     11  C   UNL     1       6.326   4.640  17.847  0.00  0.00    +0.000 A 
ATOM     12  C   UNL     1       6.993   4.506  16.628  0.00  0.00    +0.000 A 
ATOM     13  C   UNL     1       6.491   5.138  15.494  0.00  0.00    +0.000 A 
ATOM     14 CL   UNL     1       7.310   4.969  13.990  0.00  0.00    +0.000 Cl
ATOM     15  C   UNL     1       5.331   5.909  15.570  0.00  0.00    +0.000 A 
ATOM     16  C   UNL     1       4.673   6.057  16.796  0.00  0.00    +0.000 A 
ENDBRANCH   9  10
ENDBRANCH   2   9
TORSDOF 3
ENDMDL
MODEL 9
REMARK VINA RESULT:      -6.1      1.269      1.347
REMARK  Name = 
REMARK  4 active torsions:
REMARK  status: ('A' for Active; 'I' for Inactive)
REMARK    1  A    between atoms: C_1  and  N_2
REMARK    2  A    between atoms: N_2  and  C_3
REMARK    3  A    between atoms: N_2  and  C_11
REMARK    4  A    between atoms: C_3  and  C_4
REMARK                            x       y       z     vdW  Elec       q    Type
REMARK                         _______ _______ _______ _____ _____    ______ ____
ROOT
ATOM      1  C   UNL     1       3.377   6.083  18.750  0.00  0.00    +0.000 C 
ATOM      2  N   UNL     1       3.737   4.672  18.579  0.00  0.00    +0.000 NA
ENDROOT
BRANCH   2   3
ATOM      3  C   UNL     1       3.166   3.796  19.630  0.00  0.00    +0.000 C 
ATOM      4  C   UNL     1       2.134   4.418  20.555  0.00  0.00    +0.000 C 
ATOM      5  C   UNL     1       1.330   3.225  21.003  0.00  0.00    +0.000 C 
ATOM      6  O   UNL     1       1.343   2.313  19.906  0.00  0.00    +0.000 OA
ATOM      7  C   UNL     1       2.417   2.578  19.098  0.00  0.00    +0.000 C 
ATOM      8  O   UNL     1       2.711   1.888  18.132  0.00  0.00    +0.000 OA
ENDBRANCH   2   3
BRANCH   2   9
ATOM      9  C   UNL     1       5.192   4.468  18.467  0.00  0.00    +0.000 C 
BRANCH   9  10
ATOM     10  C   UNL     1       5.731   4.546  17.051  0.00  0.00    +0.000 A 
ATOM     11  C   UNL     1       4.917   4.187  15.964  0.00  0.00    +0.000 A 
ATOM     12  C   UNL     1       5.412   4.229  14.659  0.00  0.00    +0.000 A 
ATOM     13  C   UNL     1       6.719   4.646  14.431  0.00  0.00    +0.000 A 
ATOM     14 CL   UNL     1       7.328   4.702  12.822  0.00  0.00    +0.000 Cl
ATOM     15  C   UNL     1       7.540   5.016  15.496  0.00  0.00    +0.000 A 
ATOM     16  C   UNL     1       7.049   4.957  16.805  0.00  0.00    +0.000 A 
ENDBRANCH   9  10
ENDBRANCH   2   9
TORSDOF 3
ENDMDL
