MODEL 1
REMARK VINA RESULT:      -7.8      0.000      0.000
REMARK  Name = 
REMARK  4 active torsions:
REMARK  status: ('A' for Active; 'I' for Inactive)
REMARK    1  A    between atoms: C_2  and  C_3
REMARK    2  A    between atoms: N_11  and  C_12
REMARK    3  A    between atoms: C_12  and  C_13
REMARK    4  A    between atoms: C_15  and  C_16
REMARK                            x       y       z     vdW  Elec       q    Type
REMARK                         _______ _______ _______ _____ _____    ______ ____
ROOT
ATOM      1  O   UNL     1       3.826   2.367  16.965  0.00  0.00    +0.000 OA
ATOM      2  C   UNL     1       3.741   3.301  17.764  0.00  0.00    +0.000 C 
ATOM      3  N   UNL     1       4.627   4.385  17.670  0.00  0.00    +0.000 N 
ATOM      4  C   UNL     1       4.672   5.554  18.561  0.00  0.00    +0.000 C 
ATOM      5  C   UNL     1       6.082   5.823  19.114  0.00  0.00    +0.000 C 
ATOM      6  N   UNL     1       7.137   5.872  18.090  0.00  0.00    +0.000 NA
ATOM      7  C   UNL     1       7.063   4.625  17.286  0.00  0.00    +0.000 C 
ATOM      8  C   UNL     1       5.683   4.352  16.652  0.00  0.00    +0.000 C 
ENDROOT
BRANCH   2   9
ATOM      9  C   UNL     1       2.773   3.292  18.854  0.00  0.00    +0.000 A 
ATOM     10  C   UNL     1       1.472   3.760  18.918  0.00  0.00    +0.000 A 
ATOM     11  C   UNL     1       0.955   3.752  20.245  0.00  0.00    +0.000 A 
ATOM     12  C   UNL     1       1.806   3.116  21.120  0.00  0.00    +0.000 A 
ATOM     13  S   UNL     1       3.237   2.587  20.351  0.00  0.00    +0.000 S 
ENDBRANCH   2   9
BRANCH   6  14
ATOM     14  C   UNL     1       7.009   7.103  17.275  0.00  0.00    +0.000 C 
BRANCH  14  15
ATOM     15  C   UNL     1       7.777   8.247  17.830  0.00  0.00    +0.000 A 
ATOM     16  N   UNL     1       7.876   9.471  17.364  0.00  0.00    +0.000 NA
ATOM     17  C   UNL     1       8.836  10.016  18.185  0.00  0.00    +0.000 A 
ATOM     18  N   UNL     1       9.251   9.193  19.163  0.00  0.00    +0.000 NA
ATOM     19  O   UNL     1       8.557   8.011  18.920  0.00  0.00    +0.000 OA
BRANCH  17  20
ATOM     20  C   UNL     1       9.376  11.346  17.943  0.00  0.00    +0.000 A 
ATOM     21  C   UNL     1      10.762  11.531  17.817  0.00  0.00    +0.000 A 
ATOM     22  C   UNL     1      11.288  12.814  17.636  0.00  0.00    +0.000 A 
ATOM     23  C   UNL     1      10.439  13.915  17.579  0.00  0.00    +0.000 A 
ATOM     24  C   UNL     1       9.062  13.741  17.697  0.00  0.00    +0.000 A 
ATOM     25  C   UNL     1       8.531  12.462  17.877  0.00  0.00    +0.000 A 
ENDBRANCH  17  20
ENDBRANCH  14  15
ENDBRANCH   6  14
TORSDOF 4
ENDMDL
MODEL 2
REMARK VINA RESULT:      -7.5      1.298      1.595
REMARK  Name = 
REMARK  4 active torsions:
REMARK  status: ('A' for Active; 'I' for Inactive)
REMARK    1  A    between atoms: C_2  and  C_3
REMARK    2  A    between atoms: N_11  and  C_12
REMARK    3  A    between atoms: C_12  and  C_13
REMARK    4  A    between atoms: C_15  and  C_16
REMARK                            x       y       z     vdW  Elec       q    Type
REMARK                         _______ _______ _______ _____ _____    ______ ____
ROOT
ATOM      1  O   UNL     1       2.312   2.764  17.102  0.00  0.00    +0.000 OA
ATOM      2  C   UNL     1       2.906   3.400  17.974  0.00  0.00    +0.000 C 
ATOM      3  N   UNL     1       3.958   4.259  17.622  0.00  0.00    +0.000 N 
ATOM      4  C   UNL     1       4.778   5.058  18.544  0.00  0.00    +0.000 C 
ATOM      5  C   UNL     1       6.286   4.853  18.326  0.00  0.00    +0.000 C 
ATOM      6  N   UNL     1       6.724   5.005  16.929  0.00  0.00    +0.000 NA
ATOM      7  C   UNL     1       5.894   4.111  16.082  0.00  0.00    +0.000 C 
ATOM      8  C   UNL     1       4.373   4.332  16.215  0.00  0.00    +0.000 C 
ENDROOT
BRANCH   2   9
ATOM      9  C   UNL     1       2.582   3.247  19.387  0.00  0.00    +0.000 A 
ATOM     10  C   UNL     1       3.261   2.611  20.412  0.00  0.00    +0.000 A 
ATOM     11  C   UNL     1       2.482   2.508  21.600  0.00  0.00    +0.000 A 
ATOM     12  C   UNL     1       1.309   3.220  21.504  0.00  0.00    +0.000 A 
ATOM     13  S   UNL     1       1.130   3.956  19.972  0.00  0.00    +0.000 S 
ENDBRANCH   2   9
BRANCH   6  14
ATOM     14  C   UNL     1       6.660   6.427  16.519  0.00  0.00    +0.000 C 
BRANCH  14  15
ATOM     15  C   UNL     1       7.387   7.330  17.447  0.00  0.00    +0.000 A 
ATOM     16  N   UNL     1       7.502   8.637  17.397  0.00  0.00    +0.000 NA
ATOM     17  C   UNL     1       8.411   8.887  18.399  0.00  0.00    +0.000 A 
ATOM     18  N   UNL     1       8.778   7.794  19.090  0.00  0.00    +0.000 NA
ATOM     19  O   UNL     1       8.107   6.756  18.449  0.00  0.00    +0.000 OA
BRANCH  17  20
ATOM     20  C   UNL     1       8.954  10.220  18.618  0.00  0.00    +0.000 A 
ATOM     21  C   UNL     1       9.741  10.483  19.750  0.00  0.00    +0.000 A 
ATOM     22  C   UNL     1      10.222  11.774  19.990  0.00  0.00    +0.000 A 
ATOM     23  C   UNL     1       9.921  12.806  19.107  0.00  0.00    +0.000 A 
ATOM     24  C   UNL     1       9.145  12.554  17.978  0.00  0.00    +0.000 A 
ATOM     25  C   UNL     1       8.664  11.266  17.732  0.00  0.00    +0.000 A 
ENDBRANCH  17  20
ENDBRANCH  14  15
ENDBRANCH   6  14
TORSDOF 4
ENDMDL
MODEL 3
REMARK VINA RESULT:      -7.0      0.716      1.291
REMARK  Name = 
REMARK  4 active torsions:
REMARK  status: ('A' for Active; 'I' for Inactive)
REMARK    1  A    between atoms: C_2  and  C_3
REMARK    2  A    between atoms: N_11  and  C_12
REMARK    3  A    between atoms: C_12  and  C_13
REMARK    4  A    between atoms: C_15  and  C_16
REMARK                            x       y       z     vdW  Elec       q    Type
REMARK                         _______ _______ _______ _____ _____    ______ ____
ROOT
ATOM      1  O   UNL     1       3.875   2.628  16.800  0.00  0.00    +0.000 OA
ATOM      2  C   UNL     1       3.867   3.444  17.723  0.00  0.00    +0.000 C 
ATOM      3  N   UNL     1       4.704   4.568  17.671  0.00  0.00    +0.000 N 
ATOM      4  C   UNL     1       4.830   5.610  18.700  0.00  0.00    +0.000 C 
ATOM      5  C   UNL     1       6.291   5.865  19.110  0.00  0.00    +0.000 C 
ATOM      6  N   UNL     1       7.207   6.094  17.982  0.00  0.00    +0.000 NA
ATOM      7  C   UNL     1       7.065   4.961  17.031  0.00  0.00    +0.000 C 
ATOM      8  C   UNL     1       5.625   4.715  16.537  0.00  0.00    +0.000 C 
ENDROOT
BRANCH   2   9
ATOM      9  C   UNL     1       3.044   3.249  18.910  0.00  0.00    +0.000 A 
ATOM     10  C   UNL     1       3.380   3.202  20.252  0.00  0.00    +0.000 A 
ATOM     11  C   UNL     1       2.297   2.768  21.070  0.00  0.00    +0.000 A 
ATOM     12  C   UNL     1       1.126   2.670  20.355  0.00  0.00    +0.000 A 
ATOM     13  S   UNL     1       1.350   3.043  18.703  0.00  0.00    +0.000 S 
ENDBRANCH   2   9
BRANCH   6  14
ATOM     14  C   UNL     1       6.945   7.414  17.363  0.00  0.00    +0.000 C 
BRANCH  14  15
ATOM     15  C   UNL     1       7.814   8.490  17.905  0.00  0.00    +0.000 A 
ATOM     16  N   UNL     1       7.972   9.716  17.465  0.00  0.00    +0.000 NA
ATOM     17  C   UNL     1       9.006  10.175  18.248  0.00  0.00    +0.000 A 
ATOM     18  N   UNL     1       9.413   9.300  19.184  0.00  0.00    +0.000 NA
ATOM     19  O   UNL     1       8.629   8.174  18.948  0.00  0.00    +0.000 OA
BRANCH  17  20
ATOM     20  C   UNL     1       9.622  11.472  18.010  0.00  0.00    +0.000 A 
ATOM     21  C   UNL     1       8.870  12.648  18.160  0.00  0.00    +0.000 A 
ATOM     22  C   UNL     1       9.445  13.892  17.883  0.00  0.00    +0.000 A 
ATOM     23  C   UNL     1      10.766  13.972  17.457  0.00  0.00    +0.000 A 
ATOM     24  C   UNL     1      11.523  12.811  17.310  0.00  0.00    +0.000 A 
ATOM     25  C   UNL     1      10.955  11.566  17.587  0.00  0.00    +0.000 A 
ENDBRANCH  17  20
ENDBRANCH  14  15
ENDBRANCH   6  14
TORSDOF 4
ENDMDL
MODEL 4
REMARK VINA RESULT:      -6.8      1.782      2.454
REMARK  Name = 
REMARK  4 active torsions:
REMARK  status: ('A' for Active; 'I' for Inactive)
REMARK    1  A    between atoms: C_2  and  C_3
REMARK    2  A    between atoms: N_11  and  C_12
REMARK    3  A    between atoms: C_12  and  C_13
REMARK    4  A    between atoms: C_15  and  C_16
REMARK                            x       y       z     vdW  Elec       q    Type
REMARK                         _______ _______ _______ _____ _____    ______ ____
ROOT
ATOM      1  O   UNL     1       2.531   6.520  19.438  0.00  0.00    +0.000 OA
ATOM      2  C   UNL     1       2.925   5.455  18.959  0.00  0.00    +0.000 C 
ATOM      3  N   UNL     1       4.072   5.430  18.153  0.00  0.00    +0.000 N 
ATOM      4  C   UNL     1       4.647   4.251  17.489  0.00  0.00    +0.000 C 
ATOM      5  C   UNL     1       4.894   4.478  15.988  0.00  0.00    +0.000 C 
ATOM      6  N   UNL     1       5.644   5.705  15.674  0.00  0.00    +0.000 NA
ATOM      7  C   UNL     1       4.954   6.850  16.323  0.00  0.00    +0.000 C 
ATOM      8  C   UNL     1       4.749   6.696  17.844  0.00  0.00    +0.000 C 
ENDROOT
BRANCH   2   9
ATOM      9  C   UNL     1       2.194   4.209  19.161  0.00  0.00    +0.000 A 
ATOM     10  C   UNL     1       1.293   3.542  18.349  0.00  0.00    +0.000 A 
ATOM     11  C   UNL     1       0.643   2.470  19.025  0.00  0.00    +0.000 A 
ATOM     12  C   UNL     1       1.194   2.239  20.264  0.00  0.00    +0.000 A 
ATOM     13  S   UNL     1       2.444   3.347  20.626  0.00  0.00    +0.000 S 
ENDBRANCH   2   9
BRANCH   6  14
ATOM     14  C   UNL     1       7.060   5.564  16.085  0.00  0.00    +0.000 C 
BRANCH  14  15
ATOM     15  C   UNL     1       7.473   6.576  17.090  0.00  0.00    +0.000 A 
ATOM     16  N   UNL     1       7.580   7.877  16.949  0.00  0.00    +0.000 NA
ATOM     17  C   UNL     1       8.155   8.252  18.141  0.00  0.00    +0.000 A 
ATOM     18  N   UNL     1       8.320   7.241  19.011  0.00  0.00    +0.000 NA
ATOM     19  O   UNL     1       7.879   6.123  18.308  0.00  0.00    +0.000 OA
BRANCH  17  20
ATOM     20  C   UNL     1       8.593   9.620  18.376  0.00  0.00    +0.000 A 
ATOM     21  C   UNL     1       8.203  10.646  17.500  0.00  0.00    +0.000 A 
ATOM     22  C   UNL     1       8.663  11.952  17.694  0.00  0.00    +0.000 A 
ATOM     23  C   UNL     1       9.512  12.243  18.757  0.00  0.00    +0.000 A 
ATOM     24  C   UNL     1       9.900  11.233  19.636  0.00  0.00    +0.000 A 
ATOM     25  C   UNL     1       9.442   9.927  19.448  0.00  0.00    +0.000 A 
ENDBRANCH  17  20
ENDBRANCH  14  15
ENDBRANCH   6  14
TORSDOF 4
ENDMDL
MODEL 5
REMARK VINA RESULT:      -6.7      1.837      2.211
REMARK  Name = 
REMARK  4 active torsions:
REMARK  status: ('A' for Active; 'I' for Inactive)
REMARK    1  A    between atoms: C_2  and  C_3
REMARK    2  A    between atoms: N_11  and  C_12
REMARK    3  A    between atoms: C_12  and  C_13
REMARK    4  A    between atoms: C_15  and  C_16
REMARK                            x       y       z     vdW  Elec       q    Type
REMARK                         _______ _______ _______ _____ _____    ______ ____
ROOT
ATOM      1  O   UNL     1       1.999   6.707  18.007  0.00  0.00    +0.000 OA
ATOM      2  C   UNL     1       2.634   5.761  18.477  0.00  0.00    +0.000 C 
ATOM      3  N   UNL     1       4.034   5.820  18.542  0.00  0.00    +0.000 N 
ATOM      4  C   UNL     1       4.929   4.769  19.046  0.00  0.00    +0.000 C 
ATOM      5  C   UNL     1       6.053   4.422  18.054  0.00  0.00    +0.000 C 
ATOM      6  N   UNL     1       6.801   5.586  17.553  0.00  0.00    +0.000 NA
ATOM      7  C   UNL     1       5.826   6.561  16.999  0.00  0.00    +0.000 C 
ATOM      8  C   UNL     1       4.721   6.992  17.986  0.00  0.00    +0.000 C 
ENDROOT
BRANCH   2   9
ATOM      9  C   UNL     1       1.972   4.542  18.925  0.00  0.00    +0.000 A 
ATOM     10  C   UNL     1       1.349   4.233  20.122  0.00  0.00    +0.000 A 
ATOM     11  C   UNL     1       1.028   2.849  20.227  0.00  0.00    +0.000 A 
ATOM     12  C   UNL     1       1.250   2.183  19.044  0.00  0.00    +0.000 A 
ATOM     13  S   UNL     1       1.895   3.211  17.841  0.00  0.00    +0.000 S 
ENDBRANCH   2   9
BRANCH   6  14
ATOM     14  C   UNL     1       7.654   6.152  18.623  0.00  0.00    +0.000 C 
BRANCH  14  15
ATOM     15  C   UNL     1       8.114   7.533  18.326  0.00  0.00    +0.000 A 
ATOM     16  N   UNL     1       8.815   8.344  19.084  0.00  0.00    +0.000 NA
ATOM     17  C   UNL     1       8.785   9.514  18.361  0.00  0.00    +0.000 A 
ATOM     18  N   UNL     1       8.164   9.408  17.174  0.00  0.00    +0.000 NA
ATOM     19  O   UNL     1       7.706   8.093  17.156  0.00  0.00    +0.000 OA
BRANCH  17  20
ATOM     20  C   UNL     1       9.330  10.753  18.897  0.00  0.00    +0.000 A 
ATOM     21  C   UNL     1       9.563  10.882  20.276  0.00  0.00    +0.000 A 
ATOM     22  C   UNL     1      10.039  12.088  20.800  0.00  0.00    +0.000 A 
ATOM     23  C   UNL     1      10.284  13.167  19.958  0.00  0.00    +0.000 A 
ATOM     24  C   UNL     1      10.061  13.047  18.588  0.00  0.00    +0.000 A 
ATOM     25  C   UNL     1       9.589  11.845  18.058  0.00  0.00    +0.000 A 
ENDBRANCH  17  20
ENDBRANCH  14  15
ENDBRANCH   6  14
TORSDOF 4
ENDMDL
MODEL 6
REMARK VINA RESULT:      -6.6      4.099      6.493
REMARK  Name = 
REMARK  4 active torsions:
REMARK  status: ('A' for Active; 'I' for Inactive)
REMARK    1  A    between atoms: C_2  and  C_3
REMARK    2  A    between atoms: N_11  and  C_12
REMARK    3  A    between atoms: C_12  and  C_13
REMARK    4  A    between atoms: C_15  and  C_16
REMARK                            x       y       z     vdW  Elec       q    Type
REMARK                         _______ _______ _______ _____ _____    ______ ____
ROOT
ATOM      1  O   UNL     1       4.041   1.395  18.081  0.00  0.00    +0.000 OA
ATOM      2  C   UNL     1       3.619   2.480  18.485  0.00  0.00    +0.000 C 
ATOM      3  N   UNL     1       4.246   3.669  18.083  0.00  0.00    +0.000 N 
ATOM      4  C   UNL     1       3.881   5.031  18.499  0.00  0.00    +0.000 C 
ATOM      5  C   UNL     1       5.083   5.830  19.032  0.00  0.00    +0.000 C 
ATOM      6  N   UNL     1       6.258   5.823  18.146  0.00  0.00    +0.000 NA
ATOM      7  C   UNL     1       6.597   4.409  17.837  0.00  0.00    +0.000 C 
ATOM      8  C   UNL     1       5.439   3.590  17.232  0.00  0.00    +0.000 C 
ENDROOT
BRANCH   2   9
ATOM      9  C   UNL     1       2.508   2.567  19.425  0.00  0.00    +0.000 A 
ATOM     10  C   UNL     1       1.142   2.648  19.212  0.00  0.00    +0.000 A 
ATOM     11  C   UNL     1       0.423   2.942  20.406  0.00  0.00    +0.000 A 
ATOM     12  C   UNL     1       1.235   2.900  21.515  0.00  0.00    +0.000 A 
ATOM     13  S   UNL     1       2.861   2.566  21.106  0.00  0.00    +0.000 S 
ENDBRANCH   2   9
BRANCH   6  14
ATOM     14  C   UNL     1       5.999   6.641  16.939  0.00  0.00    +0.000 C 
BRANCH  14  15
ATOM     15  C   UNL     1       6.401   5.961  15.682  0.00  0.00    +0.000 A 
ATOM     16  N   UNL     1       5.654   5.283  14.841  0.00  0.00    +0.000 NA
ATOM     17  C   UNL     1       6.589   4.758  13.980  0.00  0.00    +0.000 A 
ATOM     18  N   UNL     1       7.848   5.159  14.228  0.00  0.00    +0.000 NA
ATOM     19  O   UNL     1       7.725   5.949  15.368  0.00  0.00    +0.000 OA
BRANCH  17  20
ATOM     20  C   UNL     1       6.218   3.803  12.945  0.00  0.00    +0.000 A 
ATOM     21  C   UNL     1       7.211   3.079  12.265  0.00  0.00    +0.000 A 
ATOM     22  C   UNL     1       6.861   2.200  11.236  0.00  0.00    +0.000 A 
ATOM     23  C   UNL     1       5.527   2.037  10.879  0.00  0.00    +0.000 A 
ATOM     24  C   UNL     1       4.534   2.748  11.552  0.00  0.00    +0.000 A 
ATOM     25  C   UNL     1       4.876   3.625  12.581  0.00  0.00    +0.000 A 
ENDBRANCH  17  20
ENDBRANCH  14  15
ENDBRANCH   6  14
TORSDOF 4
ENDMDL
MODEL 7
REMARK VINA RESULT:      -6.6      5.485      7.349
REMARK  Name = 
REMARK  4 active torsions:
REMARK  status: ('A' for Active; 'I' for Inactive)
REMARK    1  A    between atoms: C_2  and  C_3
REMARK    2  A    between atoms: N_11  and  C_12
REMARK    3  A    between atoms: C_12  and  C_13
REMARK    4  A    between atoms: C_15  and  C_16
REMARK                            x       y       z     vdW  Elec       q    Type
REMARK                         _______ _______ _______ _____ _____    ______ ____
ROOT
ATOM      1  O   UNL     1       0.630   9.946  18.357  0.00  0.00    +0.000 OA
ATOM      2  C   UNL     1       0.956   9.333  19.375  0.00  0.00    +0.000 C 
ATOM      3  N   UNL     1       1.850   8.255  19.288  0.00  0.00    +0.000 N 
ATOM      4  C   UNL     1       2.310   7.411  20.401  0.00  0.00    +0.000 C 
ATOM      5  C   UNL     1       2.136   5.910  20.117  0.00  0.00    +0.000 C 
ATOM      6  N   UNL     1       2.690   5.467  18.827  0.00  0.00    +0.000 NA
ATOM      7  C   UNL     1       2.117   6.325  17.757  0.00  0.00    +0.000 C 
ATOM      8  C   UNL     1       2.332   7.838  17.966  0.00  0.00    +0.000 C 
ENDROOT
BRANCH   2   9
ATOM      9  C   UNL     1       0.393   9.661  20.679  0.00  0.00    +0.000 A 
ATOM     10  C   UNL     1      -0.106   8.851  21.684  0.00  0.00    +0.000 A 
ATOM     11  C   UNL     1      -0.765   9.594  22.705  0.00  0.00    +0.000 A 
ATOM     12  C   UNL     1      -0.593  10.949  22.542  0.00  0.00    +0.000 A 
ATOM     13  S   UNL     1       0.306  11.316  21.136  0.00  0.00    +0.000 S 
ENDBRANCH   2   9
BRANCH   6  14
ATOM     14  C   UNL     1       4.170   5.488  18.866  0.00  0.00    +0.000 C 
BRANCH  14  15
ATOM     15  C   UNL     1       4.789   4.776  17.720  0.00  0.00    +0.000 A 
ATOM     16  N   UNL     1       5.440   5.279  16.696  0.00  0.00    +0.000 NA
ATOM     17  C   UNL     1       5.620   4.174  15.896  0.00  0.00    +0.000 A 
ATOM     18  N   UNL     1       5.175   3.027  16.438  0.00  0.00    +0.000 NA
ATOM     19  O   UNL     1       4.610   3.429  17.646  0.00  0.00    +0.000 OA
BRANCH  17  20
ATOM     20  C   UNL     1       6.188   4.287  14.560  0.00  0.00    +0.000 A 
ATOM     21  C   UNL     1       5.672   3.515  13.508  0.00  0.00    +0.000 A 
ATOM     22  C   UNL     1       6.248   3.584  12.235  0.00  0.00    +0.000 A 
ATOM     23  C   UNL     1       7.336   4.419  12.005  0.00  0.00    +0.000 A 
ATOM     24  C   UNL     1       7.852   5.194  13.042  0.00  0.00    +0.000 A 
ATOM     25  C   UNL     1       7.280   5.131  14.314  0.00  0.00    +0.000 A 
ENDBRANCH  17  20
ENDBRANCH  14  15
ENDBRANCH   6  14
TORSDOF 4
ENDMDL
MODEL 8
REMARK VINA RESULT:      -6.6      5.889      8.134
REMARK  Name = 
REMARK  4 active torsions:
REMARK  status: ('A' for Active; 'I' for Inactive)
REMARK    1  A    between atoms: C_2  and  C_3
REMARK    2  A    between atoms: N_11  and  C_12
REMARK    3  A    between atoms: C_12  and  C_13
REMARK    4  A    between atoms: C_15  and  C_16
REMARK                            x       y       z     vdW  Elec       q    Type
REMARK                         _______ _______ _______ _____ _____    ______ ____
ROOT
ATOM      1  O   UNL     1       4.338   2.784  19.026  0.00  0.00    +0.000 OA
ATOM      2  C   UNL     1       4.453   3.939  18.615  0.00  0.00    +0.000 C 
ATOM      3  N   UNL     1       3.818   4.991  19.292  0.00  0.00    +0.000 N 
ATOM      4  C   UNL     1       3.836   6.411  18.911  0.00  0.00    +0.000 C 
ATOM      5  C   UNL     1       2.427   7.022  18.837  0.00  0.00    +0.000 C 
ATOM      6  N   UNL     1       1.598   6.785  20.029  0.00  0.00    +0.000 NA
ATOM      7  C   UNL     1       1.578   5.323  20.297  0.00  0.00    +0.000 C 
ATOM      8  C   UNL     1       2.972   4.680  20.450  0.00  0.00    +0.000 C 
ENDROOT
BRANCH   2   9
ATOM      9  C   UNL     1       5.195   4.248  17.398  0.00  0.00    +0.000 A 
ATOM     10  C   UNL     1       4.785   4.320  16.078  0.00  0.00    +0.000 A 
ATOM     11  C   UNL     1       5.880   4.435  15.174  0.00  0.00    +0.000 A 
ATOM     12  C   UNL     1       7.071   4.625  15.836  0.00  0.00    +0.000 A 
ATOM     13  S   UNL     1       6.870   4.607  17.533  0.00  0.00    +0.000 S 
ENDBRANCH   2   9
BRANCH   6  14
ATOM     14  C   UNL     1       2.097   7.582  21.173  0.00  0.00    +0.000 C 
BRANCH  14  15
ATOM     15  C   UNL     1       1.162   8.663  21.577  0.00  0.00    +0.000 A 
ATOM     16  N   UNL     1       0.222   9.242  20.866  0.00  0.00    +0.000 NA
ATOM     17  C   UNL     1      -0.185  10.260  21.697  0.00  0.00    +0.000 A 
ATOM     18  N   UNL     1       0.418  10.260  22.898  0.00  0.00    +0.000 NA
ATOM     19  O   UNL     1       1.324   9.206  22.814  0.00  0.00    +0.000 OA
BRANCH  17  20
ATOM     20  C   UNL     1      -1.139  11.267  21.255  0.00  0.00    +0.000 A 
ATOM     21  C   UNL     1      -1.801  12.072  22.195  0.00  0.00    +0.000 A 
ATOM     22  C   UNL     1      -2.755  13.005  21.777  0.00  0.00    +0.000 A 
ATOM     23  C   UNL     1      -3.053  13.141  20.425  0.00  0.00    +0.000 A 
ATOM     24  C   UNL     1      -2.397  12.350  19.483  0.00  0.00    +0.000 A 
ATOM     25  C   UNL     1      -1.442  11.419  19.895  0.00  0.00    +0.000 A 
ENDBRANCH  17  20
ENDBRANCH  14  15
ENDBRANCH   6  14
TORSDOF 4
ENDMDL
MODEL 9
REMARK VINA RESULT:      -6.5      5.806      8.173
REMARK  Name = 
REMARK  4 active torsions:
REMARK  status: ('A' for Active; 'I' for Inactive)
REMARK    1  A    between atoms: C_2  and  C_3
REMARK    2  A    between atoms: N_11  and  C_12
REMARK    3  A    between atoms: C_12  and  C_13
REMARK    4  A    between atoms: C_15  and  C_16
REMARK                            x       y       z     vdW  Elec       q    Type
REMARK                         _______ _______ _______ _____ _____    ______ ____
ROOT
ATOM      1  O   UNL     1       4.885   2.832  19.225  0.00  0.00    +0.000 OA
ATOM      2  C   UNL     1       4.812   3.915  18.641  0.00  0.00    +0.000 C 
ATOM      3  N   UNL     1       4.041   4.953  19.183  0.00  0.00    +0.000 N 
ATOM      4  C   UNL     1       3.832   6.284  18.593  0.00  0.00    +0.000 C 
ATOM      5  C   UNL     1       2.344   6.662  18.496  0.00  0.00    +0.000 C 
ATOM      6  N   UNL     1       1.591   6.492  19.749  0.00  0.00    +0.000 NA
ATOM      7  C   UNL     1       1.801   5.103  20.232  0.00  0.00    +0.000 C 
ATOM      8  C   UNL     1       3.280   4.704  20.413  0.00  0.00    +0.000 C 
ENDROOT
BRANCH   2   9
ATOM      9  C   UNL     1       5.467   4.137  17.357  0.00  0.00    +0.000 A 
ATOM     10  C   UNL     1       5.006   3.978  16.062  0.00  0.00    +0.000 A 
ATOM     11  C   UNL     1       6.046   4.093  15.096  0.00  0.00    +0.000 A 
ATOM     12  C   UNL     1       7.227   4.510  15.665  0.00  0.00    +0.000 A 
ATOM     13  S   UNL     1       7.090   4.703  17.357  0.00  0.00    +0.000 S 
ENDBRANCH   2   9
BRANCH   6  14
ATOM     14  C   UNL     1       1.990   7.523  20.735  0.00  0.00    +0.000 C 
BRANCH  14  15
ATOM     15  C   UNL     1       1.205   8.777  20.612  0.00  0.00    +0.000 A 
ATOM     16  N   UNL     1       0.536   9.421  21.541  0.00  0.00    +0.000 NA
ATOM     17  C   UNL     1      -0.111  10.391  20.811  0.00  0.00    +0.000 A 
ATOM     18  N   UNL     1       0.206  10.398  19.505  0.00  0.00    +0.000 NA
ATOM     19  O   UNL     1       1.072   9.316  19.369  0.00  0.00    +0.000 OA
BRANCH  17  20
ATOM     20  C   UNL     1      -1.096  11.271  21.424  0.00  0.00    +0.000 A 
ATOM     21  C   UNL     1      -1.324  11.219  22.808  0.00  0.00    +0.000 A 
ATOM     22  C   UNL     1      -2.305  12.026  23.392  0.00  0.00    +0.000 A 
ATOM     23  C   UNL     1      -3.062  12.887  22.603  0.00  0.00    +0.000 A 
ATOM     24  C   UNL     1      -2.839  12.950  21.229  0.00  0.00    +0.000 A 
ATOM     25  C   UNL     1      -1.860  12.148  20.641  0.00  0.00    +0.000 A 
ENDBRANCH  17  20
ENDBRANCH  14  15
ENDBRANCH   6  14
TORSDOF 4
ENDMDL
