MODEL 1
REMARK VINA RESULT:      -7.9      0.000      0.000
REMARK  Name = 
REMARK  10 active torsions:
REMARK  status: ('A' for Active; 'I' for Inactive)
REMARK    1  A    between atoms: C_1  and  C_2
REMARK    2  A    between atoms: C_2  and  C_3
REMARK    3  A    between atoms: C_3  and  C_4
REMARK    4  A    between atoms: C_3  and  O_5
REMARK    5  A    between atoms: O_5  and  C_6
REMARK    6  A    between atoms: C_7  and  C_8
REMARK    7  A    between atoms: C_11  and  S_12
REMARK    8  A    between atoms: S_12  and  C_13
REMARK    9  A    between atoms: C_18  and  C_19
REMARK   10  A    between atoms: C_18  and  C_20
REMARK                            x       y       z     vdW  Elec       q    Type
REMARK                         _______ _______ _______ _____ _____    ______ ____
ROOT
ATOM      1  C   UNL     1       4.206   4.791  19.484  0.00  0.00    +0.000 C 
ATOM      2  C   UNL     1       2.930   5.155  19.327  0.00  0.00    +0.000 C 
ATOM      3  C   UNL     1       2.037   3.959  19.253  0.00  0.00    +0.000 C 
ATOM      4  C   UNL     1       1.093   3.825  20.449  0.00  0.00    +0.000 C 
ATOM      5  C   UNL     1       1.268   3.839  17.937  0.00  0.00    +0.000 C 
ATOM      6  O   UNL     1       2.957   2.855  19.327  0.00  0.00    +0.000 OA
ATOM      7  C   UNL     1       4.217   3.315  19.566  0.00  0.00    +0.000 C 
ATOM      8  O   UNL     1       5.177   2.603  19.802  0.00  0.00    +0.000 OA
ENDROOT
BRANCH   2   9
ATOM      9  C   UNL     1       2.435   6.529  19.222  0.00  0.00    +0.000 A 
ATOM     10  C   UNL     1       2.492   7.219  18.003  0.00  0.00    +0.000 A 
ATOM     11  C   UNL     1       2.044   8.540  17.908  0.00  0.00    +0.000 A 
ATOM     12  C   UNL     1       1.523   9.171  19.038  0.00  0.00    +0.000 A 
ATOM     13  C   UNL     1       1.469   8.502  20.265  0.00  0.00    +0.000 A 
ATOM     14  C   UNL     1       1.925   7.183  20.351  0.00  0.00    +0.000 A 
BRANCH  12  15
ATOM     15  S   UNL     1       1.009  10.872  18.941  0.00  0.00    +0.000 S 
ATOM     16  C   UNL     1       0.911  11.375  20.638  0.00  0.00    +0.000 C 
ATOM     17  O   UNL     1       2.081  11.617  18.312  0.00  0.00    +0.000 OA
ATOM     18  O   UNL     1      -0.334  10.889  18.391  0.00  0.00    +0.000 OA
ENDBRANCH  12  15
ENDBRANCH   2   9
BRANCH   1  19
ATOM     19  O   UNL     1       5.283   5.630  19.594  0.00  0.00    +0.000 OA
BRANCH  19  20
ATOM     20  C   UNL     1       6.270   5.528  18.554  0.00  0.00    +0.000 C 
ATOM     21  C   UNL     1       7.649   5.768  19.166  0.00  0.00    +0.000 C 
BRANCH  20  23
ATOM     22  C   UNL     1       5.496   6.013  16.181  0.00  0.00    +0.000 C 
ATOM     23  C   UNL     1       5.980   6.605  17.496  0.00  0.00    +0.000 C 
ENDBRANCH  20  23
ENDBRANCH  19  20
ENDBRANCH   1  19
TORSDOF 5
ENDMDL
MODEL 2
REMARK VINA RESULT:      -7.9      0.101      1.015
REMARK  Name = 
REMARK  10 active torsions:
REMARK  status: ('A' for Active; 'I' for Inactive)
REMARK    1  A    between atoms: C_1  and  C_2
REMARK    2  A    between atoms: C_2  and  C_3
REMARK    3  A    between atoms: C_3  and  C_4
REMARK    4  A    between atoms: C_3  and  O_5
REMARK    5  A    between atoms: O_5  and  C_6
REMARK    6  A    between atoms: C_7  and  C_8
REMARK    7  A    between atoms: C_11  and  S_12
REMARK    8  A    between atoms: S_12  and  C_13
REMARK    9  A    between atoms: C_18  and  C_19
REMARK   10  A    between atoms: C_18  and  C_20
REMARK                            x       y       z     vdW  Elec       q    Type
REMARK                         _______ _______ _______ _____ _____    ______ ____
ROOT
ATOM      1  C   UNL     1       4.214   4.783  19.478  0.00  0.00    +0.000 C 
ATOM      2  C   UNL     1       2.945   5.171  19.317  0.00  0.00    +0.000 C 
ATOM      3  C   UNL     1       2.034   3.991  19.216  0.00  0.00    +0.000 C 
ATOM      4  C   UNL     1       1.078   3.851  20.402  0.00  0.00    +0.000 C 
ATOM      5  C   UNL     1       1.273   3.907  17.892  0.00  0.00    +0.000 C 
ATOM      6  O   UNL     1       2.934   2.871  19.277  0.00  0.00    +0.000 OA
ATOM      7  C   UNL     1       4.200   3.306  19.533  0.00  0.00    +0.000 C 
ATOM      8  O   UNL     1       5.147   2.575  19.765  0.00  0.00    +0.000 OA
ENDROOT
BRANCH   2   9
ATOM      9  C   UNL     1       2.473   6.554  19.234  0.00  0.00    +0.000 A 
ATOM     10  C   UNL     1       1.946   7.199  20.361  0.00  0.00    +0.000 A 
ATOM     11  C   UNL     1       1.471   8.512  20.277  0.00  0.00    +0.000 A 
ATOM     12  C   UNL     1       1.535   9.188  19.058  0.00  0.00    +0.000 A 
ATOM     13  C   UNL     1       2.047   8.556  17.920  0.00  0.00    +0.000 A 
ATOM     14  C   UNL     1       2.514   7.241  18.014  0.00  0.00    +0.000 A 
BRANCH  12  15
ATOM     15  S   UNL     1       0.875  10.836  18.927  0.00  0.00    +0.000 S 
ATOM     16  C   UNL     1       0.608  11.312  20.614  0.00  0.00    +0.000 C 
ATOM     17  O   UNL     1       1.918  11.680  18.381  0.00  0.00    +0.000 OA
ATOM     18  O   UNL     1      -0.420  10.736  18.280  0.00  0.00    +0.000 OA
ENDBRANCH  12  15
ENDBRANCH   2   9
BRANCH   1  19
ATOM     19  O   UNL     1       5.304   5.603  19.611  0.00  0.00    +0.000 OA
BRANCH  19  20
ATOM     20  C   UNL     1       6.299   5.500  18.579  0.00  0.00    +0.000 C 
ATOM     21  C   UNL     1       7.672   5.743  19.201  0.00  0.00    +0.000 C 
BRANCH  20  23
ATOM     22  C   UNL     1       5.548   5.979  16.197  0.00  0.00    +0.000 C 
ATOM     23  C   UNL     1       6.016   6.574  17.517  0.00  0.00    +0.000 C 
ENDBRANCH  20  23
ENDBRANCH  19  20
ENDBRANCH   1  19
TORSDOF 5
ENDMDL
MODEL 3
REMARK VINA RESULT:      -7.8      0.845      1.508
REMARK  Name = 
REMARK  10 active torsions:
REMARK  status: ('A' for Active; 'I' for Inactive)
REMARK    1  A    between atoms: C_1  and  C_2
REMARK    2  A    between atoms: C_2  and  C_3
REMARK    3  A    between atoms: C_3  and  C_4
REMARK    4  A    between atoms: C_3  and  O_5
REMARK    5  A    between atoms: O_5  and  C_6
REMARK    6  A    between atoms: C_7  and  C_8
REMARK    7  A    between atoms: C_11  and  S_12
REMARK    8  A    between atoms: S_12  and  C_13
REMARK    9  A    between atoms: C_18  and  C_19
REMARK   10  A    between atoms: C_18  and  C_20
REMARK                            x       y       z     vdW  Elec       q    Type
REMARK                         _______ _______ _______ _____ _____    ______ ____
ROOT
ATOM      1  C   UNL     1       4.260   4.770  19.501  0.00  0.00    +0.000 C 
ATOM      2  C   UNL     1       2.985   5.147  19.362  0.00  0.00    +0.000 C 
ATOM      3  C   UNL     1       2.090   3.960  19.218  0.00  0.00    +0.000 C 
ATOM      4  C   UNL     1       1.141   3.760  20.402  0.00  0.00    +0.000 C 
ATOM      5  C   UNL     1       1.323   3.917  17.895  0.00  0.00    +0.000 C 
ATOM      6  O   UNL     1       3.006   2.850  19.231  0.00  0.00    +0.000 OA
ATOM      7  C   UNL     1       4.267   3.292  19.498  0.00  0.00    +0.000 C 
ATOM      8  O   UNL     1       5.225   2.566  19.697  0.00  0.00    +0.000 OA
ENDROOT
BRANCH   2   9
ATOM      9  C   UNL     1       2.494   6.526  19.336  0.00  0.00    +0.000 A 
ATOM     10  C   UNL     1       1.898   7.094  20.470  0.00  0.00    +0.000 A 
ATOM     11  C   UNL     1       1.405   8.403  20.438  0.00  0.00    +0.000 A 
ATOM     12  C   UNL     1       1.521   9.151  19.267  0.00  0.00    +0.000 A 
ATOM     13  C   UNL     1       2.102   8.597  18.122  0.00  0.00    +0.000 A 
ATOM     14  C   UNL     1       2.587   7.285  18.163  0.00  0.00    +0.000 A 
BRANCH  12  15
ATOM     15  S   UNL     1       0.840  10.795  19.199  0.00  0.00    +0.000 S 
ATOM     16  C   UNL     1      -0.685  10.577  18.321  0.00  0.00    +0.000 C 
ATOM     17  O   UNL     1       0.525  11.193  20.556  0.00  0.00    +0.000 OA
ATOM     18  O   UNL     1       1.722  11.597  18.371  0.00  0.00    +0.000 OA
ENDBRANCH  12  15
ENDBRANCH   2   9
BRANCH   1  19
ATOM     19  O   UNL     1       5.339   5.599  19.662  0.00  0.00    +0.000 OA
BRANCH  19  20
ATOM     20  C   UNL     1       6.393   5.456  18.695  0.00  0.00    +0.000 C 
ATOM     21  C   UNL     1       7.733   5.649  19.403  0.00  0.00    +0.000 C 
BRANCH  20  23
ATOM     22  C   UNL     1       7.447   7.420  17.473  0.00  0.00    +0.000 C 
ATOM     23  C   UNL     1       6.218   6.536  17.616  0.00  0.00    +0.000 C 
ENDBRANCH  20  23
ENDBRANCH  19  20
ENDBRANCH   1  19
TORSDOF 5
ENDMDL
MODEL 4
REMARK VINA RESULT:      -7.8      0.845      1.111
REMARK  Name = 
REMARK  10 active torsions:
REMARK  status: ('A' for Active; 'I' for Inactive)
REMARK    1  A    between atoms: C_1  and  C_2
REMARK    2  A    between atoms: C_2  and  C_3
REMARK    3  A    between atoms: C_3  and  C_4
REMARK    4  A    between atoms: C_3  and  O_5
REMARK    5  A    between atoms: O_5  and  C_6
REMARK    6  A    between atoms: C_7  and  C_8
REMARK    7  A    between atoms: C_11  and  S_12
REMARK    8  A    between atoms: S_12  and  C_13
REMARK    9  A    between atoms: C_18  and  C_19
REMARK   10  A    between atoms: C_18  and  C_20
REMARK                            x       y       z     vdW  Elec       q    Type
REMARK                         _______ _______ _______ _____ _____    ______ ____
ROOT
ATOM      1  C   UNL     1       4.209   4.799  19.489  0.00  0.00    +0.000 C 
ATOM      2  C   UNL     1       2.935   5.167  19.318  0.00  0.00    +0.000 C 
ATOM      3  C   UNL     1       2.047   3.973  19.179  0.00  0.00    +0.000 C 
ATOM      4  C   UNL     1       1.077   3.792  20.348  0.00  0.00    +0.000 C 
ATOM      5  C   UNL     1       1.307   3.902  17.843  0.00  0.00    +0.000 C 
ATOM      6  O   UNL     1       2.967   2.868  19.231  0.00  0.00    +0.000 OA
ATOM      7  C   UNL     1       4.221   3.320  19.514  0.00  0.00    +0.000 C 
ATOM      8  O   UNL     1       5.178   2.602  19.745  0.00  0.00    +0.000 OA
ENDROOT
BRANCH   2   9
ATOM      9  C   UNL     1       2.439   6.542  19.255  0.00  0.00    +0.000 A 
ATOM     10  C   UNL     1       2.539   7.286  18.070  0.00  0.00    +0.000 A 
ATOM     11  C   UNL     1       2.089   8.609  18.017  0.00  0.00    +0.000 A 
ATOM     12  C   UNL     1       1.525   9.188  19.153  0.00  0.00    +0.000 A 
ATOM     13  C   UNL     1       1.427   8.466  20.346  0.00  0.00    +0.000 A 
ATOM     14  C   UNL     1       1.885   7.145  20.391  0.00  0.00    +0.000 A 
BRANCH  12  15
ATOM     15  S   UNL     1       1.008  10.891  19.111  0.00  0.00    +0.000 S 
ATOM     16  C   UNL     1       2.256  11.681  18.131  0.00  0.00    +0.000 C 
ATOM     17  O   UNL     1      -0.242  10.949  18.380  0.00  0.00    +0.000 OA
ATOM     18  O   UNL     1       1.106  11.409  20.463  0.00  0.00    +0.000 OA
ENDBRANCH  12  15
ENDBRANCH   2   9
BRANCH   1  19
ATOM     19  O   UNL     1       5.281   5.635  19.654  0.00  0.00    +0.000 OA
BRANCH  19  20
ATOM     20  C   UNL     1       6.349   5.486  18.704  0.00  0.00    +0.000 C 
ATOM     21  C   UNL     1       7.678   5.669  19.433  0.00  0.00    +0.000 C 
BRANCH  20  23
ATOM     22  C   UNL     1       7.457   7.407  17.460  0.00  0.00    +0.000 C 
ATOM     23  C   UNL     1       6.198   6.569  17.624  0.00  0.00    +0.000 C 
ENDBRANCH  20  23
ENDBRANCH  19  20
ENDBRANCH   1  19
TORSDOF 5
ENDMDL
MODEL 5
REMARK VINA RESULT:      -7.3      0.987      1.403
REMARK  Name = 
REMARK  10 active torsions:
REMARK  status: ('A' for Active; 'I' for Inactive)
REMARK    1  A    between atoms: C_1  and  C_2
REMARK    2  A    between atoms: C_2  and  C_3
REMARK    3  A    between atoms: C_3  and  C_4
REMARK    4  A    between atoms: C_3  and  O_5
REMARK    5  A    between atoms: O_5  and  C_6
REMARK    6  A    between atoms: C_7  and  C_8
REMARK    7  A    between atoms: C_11  and  S_12
REMARK    8  A    between atoms: S_12  and  C_13
REMARK    9  A    between atoms: C_18  and  C_19
REMARK   10  A    between atoms: C_18  and  C_20
REMARK                            x       y       z     vdW  Elec       q    Type
REMARK                         _______ _______ _______ _____ _____    ______ ____
ROOT
ATOM      1  C   UNL     1       4.221   4.438  19.631  0.00  0.00    +0.000 C 
ATOM      2  C   UNL     1       2.949   4.822  19.488  0.00  0.00    +0.000 C 
ATOM      3  C   UNL     1       2.036   3.639  19.445  0.00  0.00    +0.000 C 
ATOM      4  C   UNL     1       1.107   3.538  20.657  0.00  0.00    +0.000 C 
ATOM      5  C   UNL     1       1.244   3.514  18.143  0.00  0.00    +0.000 C 
ATOM      6  O   UNL     1       2.937   2.521  19.521  0.00  0.00    +0.000 OA
ATOM      7  C   UNL     1       4.209   2.963  19.734  0.00  0.00    +0.000 C 
ATOM      8  O   UNL     1       5.161   2.239  19.966  0.00  0.00    +0.000 OA
ENDROOT
BRANCH   2   9
ATOM      9  C   UNL     1       2.475   6.201  19.371  0.00  0.00    +0.000 A 
ATOM     10  C   UNL     1       2.552   6.883  18.148  0.00  0.00    +0.000 A 
ATOM     11  C   UNL     1       2.124   8.210  18.041  0.00  0.00    +0.000 A 
ATOM     12  C   UNL     1       1.604   8.856  19.163  0.00  0.00    +0.000 A 
ATOM     13  C   UNL     1       1.531   8.196  20.394  0.00  0.00    +0.000 A 
ATOM     14  C   UNL     1       1.967   6.870  20.492  0.00  0.00    +0.000 A 
BRANCH  12  15
ATOM     15  S   UNL     1       1.116  10.564  19.051  0.00  0.00    +0.000 S 
ATOM     16  C   UNL     1      -0.488  10.489  18.300  0.00  0.00    +0.000 C 
ATOM     17  O   UNL     1       0.957  11.061  20.403  0.00  0.00    +0.000 OA
ATOM     18  O   UNL     1       2.017  11.213  18.118  0.00  0.00    +0.000 OA
ENDBRANCH  12  15
ENDBRANCH   2   9
BRANCH   1  19
ATOM     19  O   UNL     1       5.314   5.261  19.712  0.00  0.00    +0.000 OA
BRANCH  19  20
ATOM     20  C   UNL     1       5.892   5.665  18.460  0.00  0.00    +0.000 C 
ATOM     21  C   UNL     1       5.681   4.546  17.443  0.00  0.00    +0.000 C 
BRANCH  20  23
ATOM     22  C   UNL     1       7.861   7.236  18.115  0.00  0.00    +0.000 C 
ATOM     23  C   UNL     1       7.397   5.897  18.668  0.00  0.00    +0.000 C 
ENDBRANCH  20  23
ENDBRANCH  19  20
ENDBRANCH   1  19
TORSDOF 5
ENDMDL
MODEL 6
REMARK VINA RESULT:      -7.2      0.852      1.679
REMARK  Name = 
REMARK  10 active torsions:
REMARK  status: ('A' for Active; 'I' for Inactive)
REMARK    1  A    between atoms: C_1  and  C_2
REMARK    2  A    between atoms: C_2  and  C_3
REMARK    3  A    between atoms: C_3  and  C_4
REMARK    4  A    between atoms: C_3  and  O_5
REMARK    5  A    between atoms: O_5  and  C_6
REMARK    6  A    between atoms: C_7  and  C_8
REMARK    7  A    between atoms: C_11  and  S_12
REMARK    8  A    between atoms: S_12  and  C_13
REMARK    9  A    between atoms: C_18  and  C_19
REMARK   10  A    between atoms: C_18  and  C_20
REMARK                            x       y       z     vdW  Elec       q    Type
REMARK                         _______ _______ _______ _____ _____    ______ ____
ROOT
ATOM      1  C   UNL     1       4.233   4.082  19.505  0.00  0.00    +0.000 C 
ATOM      2  C   UNL     1       2.971   4.523  19.485  0.00  0.00    +0.000 C 
ATOM      3  C   UNL     1       2.007   3.393  19.652  0.00  0.00    +0.000 C 
ATOM      4  C   UNL     1       1.234   3.437  20.971  0.00  0.00    +0.000 C 
ATOM      5  C   UNL     1       1.054   3.210  18.470  0.00  0.00    +0.000 C 
ATOM      6  O   UNL     1       2.860   2.236  19.711  0.00  0.00    +0.000 OA
ATOM      7  C   UNL     1       4.167   2.622  19.731  0.00  0.00    +0.000 C 
ATOM      8  O   UNL     1       5.107   1.867  19.906  0.00  0.00    +0.000 OA
ENDROOT
BRANCH   2   9
ATOM      9  C   UNL     1       2.549   5.913  19.312  0.00  0.00    +0.000 A 
ATOM     10  C   UNL     1       2.097   6.665  20.405  0.00  0.00    +0.000 A 
ATOM     11  C   UNL     1       1.669   7.986  20.237  0.00  0.00    +0.000 A 
ATOM     12  C   UNL     1       1.705   8.562  18.967  0.00  0.00    +0.000 A 
ATOM     13  C   UNL     1       2.142   7.824  17.863  0.00  0.00    +0.000 A 
ATOM     14  C   UNL     1       2.562   6.502  18.041  0.00  0.00    +0.000 A 
BRANCH  12  15
ATOM     15  S   UNL     1       1.104  10.221  18.734  0.00  0.00    +0.000 S 
ATOM     16  C   UNL     1       0.899  10.826  20.387  0.00  0.00    +0.000 C 
ATOM     17  O   UNL     1       2.162  10.983  18.103  0.00  0.00    +0.000 OA
ATOM     18  O   UNL     1      -0.211  10.125  18.127  0.00  0.00    +0.000 OA
ENDBRANCH  12  15
ENDBRANCH   2   9
BRANCH   1  19
ATOM     19  O   UNL     1       5.363   4.847  19.384  0.00  0.00    +0.000 OA
BRANCH  19  20
ATOM     20  C   UNL     1       5.767   5.167  18.042  0.00  0.00    +0.000 C 
ATOM     21  C   UNL     1       5.219   4.096  17.101  0.00  0.00    +0.000 C 
BRANCH  20  23
ATOM     22  C   UNL     1       7.928   5.966  19.118  0.00  0.00    +0.000 C 
ATOM     23  C   UNL     1       7.302   5.171  17.981  0.00  0.00    +0.000 C 
ENDBRANCH  20  23
ENDBRANCH  19  20
ENDBRANCH   1  19
TORSDOF 5
ENDMDL
MODEL 7
REMARK VINA RESULT:      -7.2      0.956      1.683
REMARK  Name = 
REMARK  10 active torsions:
REMARK  status: ('A' for Active; 'I' for Inactive)
REMARK    1  A    between atoms: C_1  and  C_2
REMARK    2  A    between atoms: C_2  and  C_3
REMARK    3  A    between atoms: C_3  and  C_4
REMARK    4  A    between atoms: C_3  and  O_5
REMARK    5  A    between atoms: O_5  and  C_6
REMARK    6  A    between atoms: C_7  and  C_8
REMARK    7  A    between atoms: C_11  and  S_12
REMARK    8  A    between atoms: S_12  and  C_13
REMARK    9  A    between atoms: C_18  and  C_19
REMARK   10  A    between atoms: C_18  and  C_20
REMARK                            x       y       z     vdW  Elec       q    Type
REMARK                         _______ _______ _______ _____ _____    ______ ____
ROOT
ATOM      1  C   UNL     1       4.258   4.643  19.468  0.00  0.00    +0.000 C 
ATOM      2  C   UNL     1       2.978   5.026  19.409  0.00  0.00    +0.000 C 
ATOM      3  C   UNL     1       2.066   3.843  19.421  0.00  0.00    +0.000 C 
ATOM      4  C   UNL     1       1.218   3.735  20.689  0.00  0.00    +0.000 C 
ATOM      5  C   UNL     1       1.192   3.721  18.172  0.00  0.00    +0.000 C 
ATOM      6  O   UNL     1       2.972   2.726  19.433  0.00  0.00    +0.000 OA
ATOM      7  C   UNL     1       4.254   3.168  19.565  0.00  0.00    +0.000 C 
ATOM      8  O   UNL     1       5.220   2.445  19.732  0.00  0.00    +0.000 OA
ENDROOT
BRANCH   2   9
ATOM      9  C   UNL     1       2.497   6.405  19.329  0.00  0.00    +0.000 A 
ATOM     10  C   UNL     1       1.964   7.043  20.458  0.00  0.00    +0.000 A 
ATOM     11  C   UNL     1       1.480   8.353  20.377  0.00  0.00    +0.000 A 
ATOM     12  C   UNL     1       1.540   9.033  19.161  0.00  0.00    +0.000 A 
ATOM     13  C   UNL     1       2.056   8.408  18.021  0.00  0.00    +0.000 A 
ATOM     14  C   UNL     1       2.533   7.096  18.111  0.00  0.00    +0.000 A 
BRANCH  12  15
ATOM     15  S   UNL     1       0.868  10.676  19.034  0.00  0.00    +0.000 S 
ATOM     16  C   UNL     1       2.134  11.578  18.182  0.00  0.00    +0.000 C 
ATOM     17  O   UNL     1      -0.293  10.607  18.171  0.00  0.00    +0.000 OA
ATOM     18  O   UNL     1       0.767  11.210  20.380  0.00  0.00    +0.000 OA
ENDBRANCH  12  15
ENDBRANCH   2   9
BRANCH   1  19
ATOM     19  O   UNL     1       5.352   5.467  19.481  0.00  0.00    +0.000 OA
BRANCH  19  20
ATOM     20  C   UNL     1       5.847   5.879  18.196  0.00  0.00    +0.000 C 
ATOM     21  C   UNL     1       5.671   4.722  17.214  0.00  0.00    +0.000 C 
BRANCH  20  23
ATOM     22  C   UNL     1       7.689   7.565  17.717  0.00  0.00    +0.000 C 
ATOM     23  C   UNL     1       7.340   6.217  18.332  0.00  0.00    +0.000 C 
ENDBRANCH  20  23
ENDBRANCH  19  20
ENDBRANCH   1  19
TORSDOF 5
ENDMDL
MODEL 8
REMARK VINA RESULT:      -7.1      1.653      3.890
REMARK  Name = 
REMARK  10 active torsions:
REMARK  status: ('A' for Active; 'I' for Inactive)
REMARK    1  A    between atoms: C_1  and  C_2
REMARK    2  A    between atoms: C_2  and  C_3
REMARK    3  A    between atoms: C_3  and  C_4
REMARK    4  A    between atoms: C_3  and  O_5
REMARK    5  A    between atoms: O_5  and  C_6
REMARK    6  A    between atoms: C_7  and  C_8
REMARK    7  A    between atoms: C_11  and  S_12
REMARK    8  A    between atoms: S_12  and  C_13
REMARK    9  A    between atoms: C_18  and  C_19
REMARK   10  A    between atoms: C_18  and  C_20
REMARK                            x       y       z     vdW  Elec       q    Type
REMARK                         _______ _______ _______ _____ _____    ______ ____
ROOT
ATOM      1  C   UNL     1       2.933   4.552  17.881  0.00  0.00    +0.000 C 
ATOM      2  C   UNL     1       3.430   5.792  17.947  0.00  0.00    +0.000 C 
ATOM      3  C   UNL     1       4.839   5.830  17.451  0.00  0.00    +0.000 C 
ATOM      4  C   UNL     1       5.009   6.614  16.149  0.00  0.00    +0.000 C 
ATOM      5  C   UNL     1       5.853   6.292  18.499  0.00  0.00    +0.000 C 
ATOM      6  O   UNL     1       5.120   4.453  17.145  0.00  0.00    +0.000 OA
ATOM      7  C   UNL     1       3.991   3.705  17.290  0.00  0.00    +0.000 C 
ATOM      8  O   UNL     1       3.896   2.531  16.977  0.00  0.00    +0.000 OA
ENDROOT
BRANCH   2   9
ATOM      9  C   UNL     1       2.726   6.974  18.445  0.00  0.00    +0.000 A 
ATOM     10  C   UNL     1       2.453   8.055  17.594  0.00  0.00    +0.000 A 
ATOM     11  C   UNL     1       1.803   9.196  18.075  0.00  0.00    +0.000 A 
ATOM     12  C   UNL     1       1.412   9.251  19.413  0.00  0.00    +0.000 A 
ATOM     13  C   UNL     1       1.686   8.187  20.279  0.00  0.00    +0.000 A 
ATOM     14  C   UNL     1       2.342   7.053  19.790  0.00  0.00    +0.000 A 
BRANCH  12  15
ATOM     15  S   UNL     1       0.641  10.725  20.047  0.00  0.00    +0.000 S 
ATOM     16  C   UNL     1       1.333  12.018  19.053  0.00  0.00    +0.000 C 
ATOM     17  O   UNL     1      -0.775  10.638  19.751  0.00  0.00    +0.000 OA
ATOM     18  O   UNL     1       1.108  10.908  21.409  0.00  0.00    +0.000 OA
ENDBRANCH  12  15
ENDBRANCH   2   9
BRANCH   1  19
ATOM     19  O   UNL     1       1.673   4.161  18.248  0.00  0.00    +0.000 OA
BRANCH  19  20
ATOM     20  C   UNL     1       1.599   3.128  19.245  0.00  0.00    +0.000 C 
ATOM     21  C   UNL     1       0.570   2.092  18.796  0.00  0.00    +0.000 C 
BRANCH  20  23
ATOM     22  C   UNL     1       1.976   3.275  21.755  0.00  0.00    +0.000 C 
ATOM     23  C   UNL     1       1.152   3.760  20.572  0.00  0.00    +0.000 C 
ENDBRANCH  20  23
ENDBRANCH  19  20
ENDBRANCH   1  19
TORSDOF 5
ENDMDL
MODEL 9
REMARK VINA RESULT:      -7.1      1.663      4.040
REMARK  Name = 
REMARK  10 active torsions:
REMARK  status: ('A' for Active; 'I' for Inactive)
REMARK    1  A    between atoms: C_1  and  C_2
REMARK    2  A    between atoms: C_2  and  C_3
REMARK    3  A    between atoms: C_3  and  C_4
REMARK    4  A    between atoms: C_3  and  O_5
REMARK    5  A    between atoms: O_5  and  C_6
REMARK    6  A    between atoms: C_7  and  C_8
REMARK    7  A    between atoms: C_11  and  S_12
REMARK    8  A    between atoms: S_12  and  C_13
REMARK    9  A    between atoms: C_18  and  C_19
REMARK   10  A    between atoms: C_18  and  C_20
REMARK                            x       y       z     vdW  Elec       q    Type
REMARK                         _______ _______ _______ _____ _____    ______ ____
ROOT
ATOM      1  C   UNL     1       2.933   4.541  17.870  0.00  0.00    +0.000 C 
ATOM      2  C   UNL     1       3.451   5.772  17.933  0.00  0.00    +0.000 C 
ATOM      3  C   UNL     1       4.852   5.790  17.413  0.00  0.00    +0.000 C 
ATOM      4  C   UNL     1       5.012   6.575  16.110  0.00  0.00    +0.000 C 
ATOM      5  C   UNL     1       5.891   6.231  18.444  0.00  0.00    +0.000 C 
ATOM      6  O   UNL     1       5.105   4.409  17.096  0.00  0.00    +0.000 OA
ATOM      7  C   UNL     1       3.966   3.679  17.258  0.00  0.00    +0.000 C 
ATOM      8  O   UNL     1       3.847   2.508  16.943  0.00  0.00    +0.000 OA
ENDROOT
BRANCH   2   9
ATOM      9  C   UNL     1       2.775   6.964  18.447  0.00  0.00    +0.000 A 
ATOM     10  C   UNL     1       2.364   7.032  19.785  0.00  0.00    +0.000 A 
ATOM     11  C   UNL     1       1.694   8.159  20.271  0.00  0.00    +0.000 A 
ATOM     12  C   UNL     1       1.445   9.232  19.415  0.00  0.00    +0.000 A 
ATOM     13  C   UNL     1       1.837   9.177  18.073  0.00  0.00    +0.000 A 
ATOM     14  C   UNL     1       2.501   8.042  17.596  0.00  0.00    +0.000 A 
BRANCH  12  15
ATOM     15  S   UNL     1       0.538  10.644  20.009  0.00  0.00    +0.000 S 
ATOM     16  C   UNL     1       1.061  11.954  18.935  0.00  0.00    +0.000 C 
ATOM     17  O   UNL     1      -0.867  10.394  19.763  0.00  0.00    +0.000 OA
ATOM     18  O   UNL     1       1.021  10.940  21.344  0.00  0.00    +0.000 OA
ENDBRANCH  12  15
ENDBRANCH   2   9
BRANCH   1  19
ATOM     19  O   UNL     1       1.672   4.170  18.257  0.00  0.00    +0.000 OA
BRANCH  19  20
ATOM     20  C   UNL     1       1.598   3.110  19.226  0.00  0.00    +0.000 C 
ATOM     21  C   UNL     1       0.557   2.095  18.756  0.00  0.00    +0.000 C 
BRANCH  20  23
ATOM     22  C   UNL     1       1.676   2.903  21.759  0.00  0.00    +0.000 C 
ATOM     23  C   UNL     1       1.165   3.708  20.573  0.00  0.00    +0.000 C 
ENDBRANCH  20  23
ENDBRANCH  19  20
ENDBRANCH   1  19
TORSDOF 5
ENDMDL
