MODEL 1
REMARK VINA RESULT:      -6.5      0.000      0.000
REMARK  Name = 
REMARK  13 active torsions:
REMARK  status: ('A' for Active; 'I' for Inactive)
REMARK    1  A    between atoms: C_1  and  C_2
REMARK    2  A    between atoms: C_2  and  N_3
REMARK    3  A    between atoms: N_3  and  C_4
REMARK    4  A    between atoms: N_3  and  C_6
REMARK    5  A    between atoms: C_4  and  C_5
REMARK    6  A    between atoms: C_6  and  C_7
REMARK    7  A    between atoms: C_7  and  C_8
REMARK    8  A    between atoms: C_8  and  C_9
REMARK    9  A    between atoms: C_9  and  C_10
REMARK   10  A    between atoms: C_9  and  N_11
REMARK   11  A    between atoms: C_14  and  C_15
REMARK   12  A    between atoms: C_27  and  O_28
REMARK   13  A    between atoms: O_28  and  C_29
REMARK                            x       y       z     vdW  Elec       q    Type
REMARK                         _______ _______ _______ _____ _____    ______ ____
ROOT
ATOM      1  N   UNL     1       1.540  10.934  18.599  0.00  0.00    +0.000 NA
ATOM      2  C   UNL     1       0.851  11.999  18.867  0.00  0.00    +0.000 A 
ATOM      3  C   UNL     1      -0.587  11.990  19.268  0.00  0.00    +0.000 A 
ATOM      4  C   UNL     1      -1.301  13.035  19.685  0.00  0.00    +0.000 A 
ATOM      5  S   UNL     1      -0.756  14.645  19.833  0.00  0.00    +0.000 S 
ATOM      6  C   UNL     1       0.906  14.516  19.235  0.00  0.00    +0.000 A 
ATOM      7  C   UNL     1       1.619  15.725  19.215  0.00  0.00    +0.000 A 
ATOM      8  C   UNL     1       2.945  15.775  18.791  0.00  0.00    +0.000 A 
ATOM      9  C   UNL     1       3.580  14.614  18.367  0.00  0.00    +0.000 A 
ATOM     10  C   UNL     1       2.875  13.402  18.378  0.00  0.00    +0.000 A 
ATOM     11  C   UNL     1       1.537  13.339  18.819  0.00  0.00    +0.000 A 
ENDROOT
BRANCH   4  12
ATOM     12  C   UNL     1      -2.677  12.807  20.147  0.00  0.00    +0.000 A 
ATOM     13  C   UNL     1      -3.670  12.358  19.269  0.00  0.00    +0.000 A 
ATOM     14  C   UNL     1      -4.974  12.161  19.731  0.00  0.00    +0.000 A 
ATOM     15  C   UNL     1      -5.292  12.402  21.072  0.00  0.00    +0.000 A 
ATOM     16 CL   UNL     1      -6.926  12.153  21.570  0.00  0.00    +0.000 Cl
ATOM     17  C   UNL     1      -4.298  12.833  21.957  0.00  0.00    +0.000 A 
ATOM     18 CL   UNL     1      -4.608  13.141  23.628  0.00  0.00    +0.000 Cl
ATOM     19  C   UNL     1      -2.994  13.030  21.495  0.00  0.00    +0.000 A 
ENDBRANCH   4  12
BRANCH   1  20
ATOM     20  C   UNL     1       0.948   9.593  18.727  0.00  0.00    +0.000 C 
ATOM     21  C   UNL     1       1.030   9.165  20.196  0.00  0.00    +0.000 C 
BRANCH  20  22
ATOM     22  C   UNL     1       1.691   8.608  17.813  0.00  0.00    +0.000 C 
BRANCH  22  23
ATOM     23  C   UNL     1       2.483   7.539  18.588  0.00  0.00    +0.000 C 
BRANCH  23  24
ATOM     24  C   UNL     1       3.633   6.875  17.801  0.00  0.00    +0.000 C 
BRANCH  24  25
ATOM     25  N   UNL     1       3.453   5.433  17.553  0.00  0.00    +0.000 NA
BRANCH  25  27
ATOM     26  C   UNL     1       5.082   4.219  16.043  0.00  0.00    +0.000 C 
ATOM     27  C   UNL     1       4.752   4.747  17.433  0.00  0.00    +0.000 C 
ENDBRANCH  25  27
BRANCH  25  28
ATOM     28  C   UNL     1       2.540   4.815  18.527  0.00  0.00    +0.000 C 
ATOM     29  C   UNL     1       1.464   3.886  17.968  0.00  0.00    +0.000 C 
ENDBRANCH  25  28
ENDBRANCH  24  25
ENDBRANCH  23  24
ENDBRANCH  22  23
ENDBRANCH  20  22
ENDBRANCH   1  20
BRANCH   9  30
ATOM     30  O   UNL     1       4.873  14.542  17.925  0.00  0.00    +0.000 OA
ATOM     31  C   UNL     1       5.732  15.617  18.297  0.00  0.00    +0.000 C 
ENDBRANCH   9  30
TORSDOF 9
ENDMDL
MODEL 2
REMARK VINA RESULT:      -6.5      0.882      1.496
REMARK  Name = 
REMARK  13 active torsions:
REMARK  status: ('A' for Active; 'I' for Inactive)
REMARK    1  A    between atoms: C_1  and  C_2
REMARK    2  A    between atoms: C_2  and  N_3
REMARK    3  A    between atoms: N_3  and  C_4
REMARK    4  A    between atoms: N_3  and  C_6
REMARK    5  A    between atoms: C_4  and  C_5
REMARK    6  A    between atoms: C_6  and  C_7
REMARK    7  A    between atoms: C_7  and  C_8
REMARK    8  A    between atoms: C_8  and  C_9
REMARK    9  A    between atoms: C_9  and  C_10
REMARK   10  A    between atoms: C_9  and  N_11
REMARK   11  A    between atoms: C_14  and  C_15
REMARK   12  A    between atoms: C_27  and  O_28
REMARK   13  A    between atoms: O_28  and  C_29
REMARK                            x       y       z     vdW  Elec       q    Type
REMARK                         _______ _______ _______ _____ _____    ______ ____
ROOT
ATOM      1  N   UNL     1       1.692  10.850  18.518  0.00  0.00    +0.000 NA
ATOM      2  C   UNL     1       0.976  11.912  18.725  0.00  0.00    +0.000 A 
ATOM      3  C   UNL     1      -0.482  11.891  19.047  0.00  0.00    +0.000 A 
ATOM      4  C   UNL     1      -1.230  12.935  19.401  0.00  0.00    +0.000 A 
ATOM      5  S   UNL     1      -0.715  14.555  19.543  0.00  0.00    +0.000 S 
ATOM      6  C   UNL     1       0.978  14.436  19.038  0.00  0.00    +0.000 A 
ATOM      7  C   UNL     1       1.676  15.654  19.029  0.00  0.00    +0.000 A 
ATOM      8  C   UNL     1       3.022  15.714  18.676  0.00  0.00    +0.000 A 
ATOM      9  C   UNL     1       3.694  14.553  18.314  0.00  0.00    +0.000 A 
ATOM     10  C   UNL     1       3.005  13.332  18.314  0.00  0.00    +0.000 A 
ATOM     11  C   UNL     1       1.646  13.259  18.683  0.00  0.00    +0.000 A 
ENDROOT
BRANCH   4  12
ATOM     12  C   UNL     1      -2.627  12.698  19.793  0.00  0.00    +0.000 A 
ATOM     13  C   UNL     1      -3.097  13.072  21.057  0.00  0.00    +0.000 A 
ATOM     14  C   UNL     1      -4.426  12.824  21.409  0.00  0.00    +0.000 A 
ATOM     15  C   UNL     1      -5.295  12.211  20.500  0.00  0.00    +0.000 A 
ATOM     16 CL   UNL     1      -6.920  11.921  21.008  0.00  0.00    +0.000 Cl
ATOM     17  C   UNL     1      -4.834  11.853  19.229  0.00  0.00    +0.000 A 
ATOM     18 CL   UNL     1      -5.847  11.104  18.047  0.00  0.00    +0.000 Cl
ATOM     19  C   UNL     1      -3.505  12.101  18.877  0.00  0.00    +0.000 A 
ENDBRANCH   4  12
BRANCH   1  20
ATOM     20  C   UNL     1       1.111   9.504  18.645  0.00  0.00    +0.000 C 
ATOM     21  C   UNL     1       1.049   9.140  20.131  0.00  0.00    +0.000 C 
BRANCH  20  22
ATOM     22  C   UNL     1       1.959   8.497  17.855  0.00  0.00    +0.000 C 
BRANCH  22  23
ATOM     23  C   UNL     1       2.241   7.199  18.632  0.00  0.00    +0.000 C 
BRANCH  23  24
ATOM     24  C   UNL     1       3.583   6.512  18.300  0.00  0.00    +0.000 C 
BRANCH  24  25
ATOM     25  N   UNL     1       3.461   5.283  17.494  0.00  0.00    +0.000 NA
BRANCH  25  27
ATOM     26  C   UNL     1       5.208   6.307  15.976  0.00  0.00    +0.000 C 
ATOM     27  C   UNL     1       4.663   5.065  16.671  0.00  0.00    +0.000 C 
ENDBRANCH  25  27
BRANCH  25  28
ATOM     28  C   UNL     1       3.081   4.122  18.315  0.00  0.00    +0.000 C 
ATOM     29  C   UNL     1       1.657   3.597  18.143  0.00  0.00    +0.000 C 
ENDBRANCH  25  28
ENDBRANCH  24  25
ENDBRANCH  23  24
ENDBRANCH  22  23
ENDBRANCH  20  22
ENDBRANCH   1  20
BRANCH   9  30
ATOM     30  O   UNL     1       5.010  14.490  17.944  0.00  0.00    +0.000 OA
ATOM     31  C   UNL     1       5.882  15.450  18.534  0.00  0.00    +0.000 C 
ENDBRANCH   9  30
TORSDOF 9
ENDMDL
MODEL 3
REMARK VINA RESULT:      -6.5      3.176      5.016
REMARK  Name = 
REMARK  13 active torsions:
REMARK  status: ('A' for Active; 'I' for Inactive)
REMARK    1  A    between atoms: C_1  and  C_2
REMARK    2  A    between atoms: C_2  and  N_3
REMARK    3  A    between atoms: N_3  and  C_4
REMARK    4  A    between atoms: N_3  and  C_6
REMARK    5  A    between atoms: C_4  and  C_5
REMARK    6  A    between atoms: C_6  and  C_7
REMARK    7  A    between atoms: C_7  and  C_8
REMARK    8  A    between atoms: C_8  and  C_9
REMARK    9  A    between atoms: C_9  and  C_10
REMARK   10  A    between atoms: C_9  and  N_11
REMARK   11  A    between atoms: C_14  and  C_15
REMARK   12  A    between atoms: C_27  and  O_28
REMARK   13  A    between atoms: O_28  and  C_29
REMARK                            x       y       z     vdW  Elec       q    Type
REMARK                         _______ _______ _______ _____ _____    ______ ____
ROOT
ATOM      1  N   UNL     1       0.033  10.081  18.240  0.00  0.00    +0.000 NA
ATOM      2  C   UNL     1      -1.008  10.724  18.669  0.00  0.00    +0.000 A 
ATOM      3  C   UNL     1      -1.058  11.475  19.959  0.00  0.00    +0.000 A 
ATOM      4  C   UNL     1      -2.048  12.261  20.381  0.00  0.00    +0.000 A 
ATOM      5  S   UNL     1      -3.513  12.577  19.567  0.00  0.00    +0.000 S 
ATOM      6  C   UNL     1      -3.352  11.554  18.131  0.00  0.00    +0.000 A 
ATOM      7  C   UNL     1      -4.451  11.588  17.258  0.00  0.00    +0.000 A 
ATOM      8  C   UNL     1      -4.458  10.853  16.075  0.00  0.00    +0.000 A 
ATOM      9  C   UNL     1      -3.366  10.058  15.749  0.00  0.00    +0.000 A 
ATOM     10  C   UNL     1      -2.265  10.013  16.615  0.00  0.00    +0.000 A 
ATOM     11  C   UNL     1      -2.243  10.765  17.808  0.00  0.00    +0.000 A 
ENDROOT
BRANCH   4  12
ATOM     12  C   UNL     1      -1.866  13.010  21.632  0.00  0.00    +0.000 A 
ATOM     13  C   UNL     1      -0.734  13.806  21.841  0.00  0.00    +0.000 A 
ATOM     14  C   UNL     1      -0.579  14.499  23.044  0.00  0.00    +0.000 A 
ATOM     15  C   UNL     1      -1.557  14.409  24.041  0.00  0.00    +0.000 A 
ATOM     16 CL   UNL     1      -1.292  15.279  25.509  0.00  0.00    +0.000 Cl
ATOM     17  C   UNL     1      -2.699  13.631  23.829  0.00  0.00    +0.000 A 
ATOM     18 CL   UNL     1      -3.955  13.479  25.005  0.00  0.00    +0.000 Cl
ATOM     19  C   UNL     1      -2.854  12.938  22.625  0.00  0.00    +0.000 A 
ENDBRANCH   4  12
BRANCH   1  20
ATOM     20  C   UNL     1       1.297  10.092  18.993  0.00  0.00    +0.000 C 
ATOM     21  C   UNL     1       2.363  10.788  18.141  0.00  0.00    +0.000 C 
BRANCH  20  22
ATOM     22  C   UNL     1       1.707   8.653  19.339  0.00  0.00    +0.000 C 
BRANCH  22  23
ATOM     23  C   UNL     1       2.527   7.971  18.228  0.00  0.00    +0.000 C 
BRANCH  23  24
ATOM     24  C   UNL     1       2.537   6.428  18.272  0.00  0.00    +0.000 C 
BRANCH  24  25
ATOM     25  N   UNL     1       3.826   5.812  17.909  0.00  0.00    +0.000 NA
BRANCH  25  27
ATOM     26  C   UNL     1       5.142   6.378  15.822  0.00  0.00    +0.000 C 
ATOM     27  C   UNL     1       4.705   6.778  17.226  0.00  0.00    +0.000 C 
ENDBRANCH  25  27
BRANCH  25  28
ATOM     28  C   UNL     1       4.457   5.138  19.055  0.00  0.00    +0.000 C 
ATOM     29  C   UNL     1       5.969   5.293  19.197  0.00  0.00    +0.000 C 
ENDBRANCH  25  28
ENDBRANCH  24  25
ENDBRANCH  23  24
ENDBRANCH  22  23
ENDBRANCH  20  22
ENDBRANCH   1  20
BRANCH   9  30
ATOM     30  O   UNL     1      -3.262   9.290  14.620  0.00  0.00    +0.000 OA
ATOM     31  C   UNL     1      -3.451   9.960  13.377  0.00  0.00    +0.000 C 
ENDBRANCH   9  30
TORSDOF 9
ENDMDL
MODEL 4
REMARK VINA RESULT:      -6.5      3.260      4.939
REMARK  Name = 
REMARK  13 active torsions:
REMARK  status: ('A' for Active; 'I' for Inactive)
REMARK    1  A    between atoms: C_1  and  C_2
REMARK    2  A    between atoms: C_2  and  N_3
REMARK    3  A    between atoms: N_3  and  C_4
REMARK    4  A    between atoms: N_3  and  C_6
REMARK    5  A    between atoms: C_4  and  C_5
REMARK    6  A    between atoms: C_6  and  C_7
REMARK    7  A    between atoms: C_7  and  C_8
REMARK    8  A    between atoms: C_8  and  C_9
REMARK    9  A    between atoms: C_9  and  C_10
REMARK   10  A    between atoms: C_9  and  N_11
REMARK   11  A    between atoms: C_14  and  C_15
REMARK   12  A    between atoms: C_27  and  O_28
REMARK   13  A    between atoms: O_28  and  C_29
REMARK                            x       y       z     vdW  Elec       q    Type
REMARK                         _______ _______ _______ _____ _____    ______ ____
ROOT
ATOM      1  N   UNL     1      -0.063  10.295  18.283  0.00  0.00    +0.000 NA
ATOM      2  C   UNL     1      -1.162  10.862  18.671  0.00  0.00    +0.000 A 
ATOM      3  C   UNL     1      -1.342  11.525  19.997  0.00  0.00    +0.000 A 
ATOM      4  C   UNL     1      -2.397  12.238  20.391  0.00  0.00    +0.000 A 
ATOM      5  S   UNL     1      -3.814  12.540  19.490  0.00  0.00    +0.000 S 
ATOM      6  C   UNL     1      -3.499  11.620  18.010  0.00  0.00    +0.000 A 
ATOM      7  C   UNL     1      -4.533  11.661  17.061  0.00  0.00    +0.000 A 
ATOM      8  C   UNL     1      -4.419  11.003  15.839  0.00  0.00    +0.000 A 
ATOM      9  C   UNL     1      -3.268  10.281  15.547  0.00  0.00    +0.000 A 
ATOM     10  C   UNL     1      -2.232  10.229  16.490  0.00  0.00    +0.000 A 
ATOM     11  C   UNL     1      -2.333  10.903  17.725  0.00  0.00    +0.000 A 
ENDROOT
BRANCH   4  12
ATOM     12  C   UNL     1      -2.342  12.913  21.695  0.00  0.00    +0.000 A 
ATOM     13  C   UNL     1      -3.208  12.552  22.734  0.00  0.00    +0.000 A 
ATOM     14  C   UNL     1      -3.143  13.218  23.960  0.00  0.00    +0.000 A 
ATOM     15  C   UNL     1      -2.210  14.240  24.160  0.00  0.00    +0.000 A 
ATOM     16 CL   UNL     1      -2.197  15.031  25.695  0.00  0.00    +0.000 Cl
ATOM     17  C   UNL     1      -1.329  14.591  23.131  0.00  0.00    +0.000 A 
ATOM     18 CL   UNL     1      -0.142  15.834  23.304  0.00  0.00    +0.000 Cl
ATOM     19  C   UNL     1      -1.394  13.925  21.905  0.00  0.00    +0.000 A 
ENDBRANCH   4  12
BRANCH   1  20
ATOM     20  C   UNL     1       1.142  10.314  19.128  0.00  0.00    +0.000 C 
ATOM     21  C   UNL     1       2.289  10.933  18.323  0.00  0.00    +0.000 C 
BRANCH  20  22
ATOM     22  C   UNL     1       1.481   8.886  19.580  0.00  0.00    +0.000 C 
BRANCH  22  23
ATOM     23  C   UNL     1       2.217   8.067  18.505  0.00  0.00    +0.000 C 
BRANCH  23  24
ATOM     24  C   UNL     1       2.756   6.699  18.974  0.00  0.00    +0.000 C 
BRANCH  24  25
ATOM     25  N   UNL     1       2.890   5.692  17.906  0.00  0.00    +0.000 NA
BRANCH  25  27
ATOM     26  C   UNL     1       4.686   4.403  16.674  0.00  0.00    +0.000 C 
ATOM     27  C   UNL     1       4.188   5.002  17.984  0.00  0.00    +0.000 C 
ENDBRANCH  25  27
BRANCH  25  28
ATOM     28  C   UNL     1       1.733   4.783  17.856  0.00  0.00    +0.000 C 
ATOM     29  C   UNL     1       1.662   3.702  18.932  0.00  0.00    +0.000 C 
ENDBRANCH  25  28
ENDBRANCH  24  25
ENDBRANCH  23  24
ENDBRANCH  22  23
ENDBRANCH  20  22
ENDBRANCH   1  20
BRANCH   9  30
ATOM     30  O   UNL     1      -3.046   9.592  14.385  0.00  0.00    +0.000 OA
ATOM     31  C   UNL     1      -3.924   9.878  13.300  0.00  0.00    +0.000 C 
ENDBRANCH   9  30
TORSDOF 9
ENDMDL
MODEL 5
REMARK VINA RESULT:      -6.5      5.058      8.601
REMARK  Name = 
REMARK  13 active torsions:
REMARK  status: ('A' for Active; 'I' for Inactive)
REMARK    1  A    between atoms: C_1  and  C_2
REMARK    2  A    between atoms: C_2  and  N_3
REMARK    3  A    between atoms: N_3  and  C_4
REMARK    4  A    between atoms: N_3  and  C_6
REMARK    5  A    between atoms: C_4  and  C_5
REMARK    6  A    between atoms: C_6  and  C_7
REMARK    7  A    between atoms: C_7  and  C_8
REMARK    8  A    between atoms: C_8  and  C_9
REMARK    9  A    between atoms: C_9  and  C_10
REMARK   10  A    between atoms: C_9  and  N_11
REMARK   11  A    between atoms: C_14  and  C_15
REMARK   12  A    between atoms: C_27  and  O_28
REMARK   13  A    between atoms: O_28  and  C_29
REMARK                            x       y       z     vdW  Elec       q    Type
REMARK                         _______ _______ _______ _____ _____    ______ ____
ROOT
ATOM      1  N   UNL     1       5.497   5.170  17.967  0.00  0.00    +0.000 NA
ATOM      2  C   UNL     1       4.477   5.376  18.740  0.00  0.00    +0.000 A 
ATOM      3  C   UNL     1       3.681   6.639  18.761  0.00  0.00    +0.000 A 
ATOM      4  C   UNL     1       2.549   6.851  19.431  0.00  0.00    +0.000 A 
ATOM      5  S   UNL     1       1.749   5.745  20.454  0.00  0.00    +0.000 S 
ATOM      6  C   UNL     1       2.849   4.358  20.409  0.00  0.00    +0.000 A 
ATOM      7  C   UNL     1       2.454   3.268  21.201  0.00  0.00    +0.000 A 
ATOM      8  C   UNL     1       3.207   2.098  21.248  0.00  0.00    +0.000 A 
ATOM      9  C   UNL     1       4.379   2.000  20.508  0.00  0.00    +0.000 A 
ATOM     10  C   UNL     1       4.786   3.084  19.718  0.00  0.00    +0.000 A 
ATOM     11  C   UNL     1       4.023   4.268  19.654  0.00  0.00    +0.000 A 
ENDROOT
BRANCH   4  12
ATOM     12  C   UNL     1       1.845   8.127  19.236  0.00  0.00    +0.000 A 
ATOM     13  C   UNL     1       1.804   8.746  17.982  0.00  0.00    +0.000 A 
ATOM     14  C   UNL     1       1.138   9.964  17.826  0.00  0.00    +0.000 A 
ATOM     15  C   UNL     1       0.503  10.567  18.918  0.00  0.00    +0.000 A 
ATOM     16 CL   UNL     1      -0.286  12.080  18.656  0.00  0.00    +0.000 Cl
ATOM     17  C   UNL     1       0.525   9.942  20.169  0.00  0.00    +0.000 A 
ATOM     18 CL   UNL     1      -0.244  10.615  21.561  0.00  0.00    +0.000 Cl
ATOM     19  C   UNL     1       1.191   8.723  20.324  0.00  0.00    +0.000 A 
ENDBRANCH   4  12
BRANCH   1  20
ATOM     20  C   UNL     1       5.922   6.179  16.983  0.00  0.00    +0.000 C 
ATOM     21  C   UNL     1       4.684   6.672  16.228  0.00  0.00    +0.000 C 
BRANCH  20  22
ATOM     22  C   UNL     1       6.957   5.568  16.027  0.00  0.00    +0.000 C 
BRANCH  22  23
ATOM     23  C   UNL     1       6.474   4.268  15.360  0.00  0.00    +0.000 C 
BRANCH  23  24
ATOM     24  C   UNL     1       5.848   4.441  13.960  0.00  0.00    +0.000 C 
BRANCH  24  25
ATOM     25  N   UNL     1       6.470   3.620  12.904  0.00  0.00    +0.000 NA
BRANCH  25  27
ATOM     26  C   UNL     1       5.946   1.630  11.432  0.00  0.00    +0.000 C 
ATOM     27  C   UNL     1       5.452   2.892  12.127  0.00  0.00    +0.000 C 
ENDBRANCH  25  27
BRANCH  25  28
ATOM     28  C   UNL     1       7.406   4.401  12.079  0.00  0.00    +0.000 C 
ATOM     29  C   UNL     1       8.198   5.496  12.789  0.00  0.00    +0.000 C 
ENDBRANCH  25  28
ENDBRANCH  24  25
ENDBRANCH  23  24
ENDBRANCH  22  23
ENDBRANCH  20  22
ENDBRANCH   1  20
BRANCH   9  30
ATOM     30  O   UNL     1       5.202   0.906  20.480  0.00  0.00    +0.000 OA
ATOM     31  C   UNL     1       5.810   0.536  21.714  0.00  0.00    +0.000 C 
ENDBRANCH   9  30
TORSDOF 9
ENDMDL
MODEL 6
REMARK VINA RESULT:      -6.5      1.086      1.818
REMARK  Name = 
REMARK  13 active torsions:
REMARK  status: ('A' for Active; 'I' for Inactive)
REMARK    1  A    between atoms: C_1  and  C_2
REMARK    2  A    between atoms: C_2  and  N_3
REMARK    3  A    between atoms: N_3  and  C_4
REMARK    4  A    between atoms: N_3  and  C_6
REMARK    5  A    between atoms: C_4  and  C_5
REMARK    6  A    between atoms: C_6  and  C_7
REMARK    7  A    between atoms: C_7  and  C_8
REMARK    8  A    between atoms: C_8  and  C_9
REMARK    9  A    between atoms: C_9  and  C_10
REMARK   10  A    between atoms: C_9  and  N_11
REMARK   11  A    between atoms: C_14  and  C_15
REMARK   12  A    between atoms: C_27  and  O_28
REMARK   13  A    between atoms: O_28  and  C_29
REMARK                            x       y       z     vdW  Elec       q    Type
REMARK                         _______ _______ _______ _____ _____    ______ ____
ROOT
ATOM      1  N   UNL     1       1.698  10.866  18.526  0.00  0.00    +0.000 NA
ATOM      2  C   UNL     1       0.969  11.922  18.716  0.00  0.00    +0.000 A 
ATOM      3  C   UNL     1      -0.487  11.889  19.044  0.00  0.00    +0.000 A 
ATOM      4  C   UNL     1      -1.248  12.930  19.381  0.00  0.00    +0.000 A 
ATOM      5  S   UNL     1      -0.753  14.559  19.488  0.00  0.00    +0.000 S 
ATOM      6  C   UNL     1       0.940  14.452  18.979  0.00  0.00    +0.000 A 
ATOM      7  C   UNL     1       1.622  15.679  18.943  0.00  0.00    +0.000 A 
ATOM      8  C   UNL     1       2.965  15.749  18.583  0.00  0.00    +0.000 A 
ATOM      9  C   UNL     1       3.651  14.590  18.241  0.00  0.00    +0.000 A 
ATOM     10  C   UNL     1       2.978  13.360  18.268  0.00  0.00    +0.000 A 
ATOM     11  C   UNL     1       1.621  13.277  18.645  0.00  0.00    +0.000 A 
ENDROOT
BRANCH   4  12
ATOM     12  C   UNL     1      -2.639  12.683  19.783  0.00  0.00    +0.000 A 
ATOM     13  C   UNL     1      -3.112  13.082  21.039  0.00  0.00    +0.000 A 
ATOM     14  C   UNL     1      -4.436  12.825  21.401  0.00  0.00    +0.000 A 
ATOM     15  C   UNL     1      -5.298  12.176  20.511  0.00  0.00    +0.000 A 
ATOM     16 CL   UNL     1      -6.917  11.875  21.031  0.00  0.00    +0.000 Cl
ATOM     17  C   UNL     1      -4.836  11.792  19.247  0.00  0.00    +0.000 A 
ATOM     18 CL   UNL     1      -5.841  10.998  18.089  0.00  0.00    +0.000 Cl
ATOM     19  C   UNL     1      -3.512  12.050  18.885  0.00  0.00    +0.000 A 
ENDBRANCH   4  12
BRANCH   1  20
ATOM     20  C   UNL     1       1.135   9.516  18.682  0.00  0.00    +0.000 C 
ATOM     21  C   UNL     1       1.167   9.145  20.168  0.00  0.00    +0.000 C 
BRANCH  20  22
ATOM     22  C   UNL     1       1.940   8.518  17.837  0.00  0.00    +0.000 C 
BRANCH  22  23
ATOM     23  C   UNL     1       2.492   7.337  18.654  0.00  0.00    +0.000 C 
BRANCH  23  24
ATOM     24  C   UNL     1       2.329   5.949  17.998  0.00  0.00    +0.000 C 
BRANCH  24  25
ATOM     25  N   UNL     1       3.144   4.882  18.607  0.00  0.00    +0.000 NA
BRANCH  25  27
ATOM     26  C   UNL     1       3.432   2.481  17.860  0.00  0.00    +0.000 C 
ATOM     27  C   UNL     1       3.666   3.961  17.583  0.00  0.00    +0.000 C 
ENDBRANCH  25  27
BRANCH  25  28
ATOM     28  C   UNL     1       4.176   5.422  19.507  0.00  0.00    +0.000 C 
ATOM     29  C   UNL     1       5.630   5.188  19.103  0.00  0.00    +0.000 C 
ENDBRANCH  25  28
ENDBRANCH  24  25
ENDBRANCH  23  24
ENDBRANCH  22  23
ENDBRANCH  20  22
ENDBRANCH   1  20
BRANCH   9  30
ATOM     30  O   UNL     1       4.967  14.536  17.868  0.00  0.00    +0.000 OA
ATOM     31  C   UNL     1       5.898  15.183  18.730  0.00  0.00    +0.000 C 
ENDBRANCH   9  30
TORSDOF 9
ENDMDL
MODEL 7
REMARK VINA RESULT:      -6.4      0.816      1.495
REMARK  Name = 
REMARK  13 active torsions:
REMARK  status: ('A' for Active; 'I' for Inactive)
REMARK    1  A    between atoms: C_1  and  C_2
REMARK    2  A    between atoms: C_2  and  N_3
REMARK    3  A    between atoms: N_3  and  C_4
REMARK    4  A    between atoms: N_3  and  C_6
REMARK    5  A    between atoms: C_4  and  C_5
REMARK    6  A    between atoms: C_6  and  C_7
REMARK    7  A    between atoms: C_7  and  C_8
REMARK    8  A    between atoms: C_8  and  C_9
REMARK    9  A    between atoms: C_9  and  C_10
REMARK   10  A    between atoms: C_9  and  N_11
REMARK   11  A    between atoms: C_14  and  C_15
REMARK   12  A    between atoms: C_27  and  O_28
REMARK   13  A    between atoms: O_28  and  C_29
REMARK                            x       y       z     vdW  Elec       q    Type
REMARK                         _______ _______ _______ _____ _____    ______ ____
ROOT
ATOM      1  N   UNL     1       1.539  10.924  18.604  0.00  0.00    +0.000 NA
ATOM      2  C   UNL     1       0.813  11.975  18.830  0.00  0.00    +0.000 A 
ATOM      3  C   UNL     1      -0.640  11.933  19.171  0.00  0.00    +0.000 A 
ATOM      4  C   UNL     1      -1.397  12.964  19.544  0.00  0.00    +0.000 A 
ATOM      5  S   UNL     1      -0.900  14.589  19.693  0.00  0.00    +0.000 S 
ATOM      6  C   UNL     1       0.788  14.496  19.166  0.00  0.00    +0.000 A 
ATOM      7  C   UNL     1       1.470  15.723  19.159  0.00  0.00    +0.000 A 
ATOM      8  C   UNL     1       2.811  15.803  18.790  0.00  0.00    +0.000 A 
ATOM      9  C   UNL     1       3.492  14.653  18.408  0.00  0.00    +0.000 A 
ATOM     10  C   UNL     1       2.819  13.424  18.406  0.00  0.00    +0.000 A 
ATOM     11  C   UNL     1       1.465  13.331  18.792  0.00  0.00    +0.000 A 
ENDROOT
BRANCH   4  12
ATOM     12  C   UNL     1      -2.785  12.706  19.952  0.00  0.00    +0.000 A 
ATOM     13  C   UNL     1      -3.717  12.175  19.053  0.00  0.00    +0.000 A 
ATOM     14  C   UNL     1      -5.033  11.950  19.463  0.00  0.00    +0.000 A 
ATOM     15  C   UNL     1      -5.425  12.246  20.773  0.00  0.00    +0.000 A 
ATOM     16 CL   UNL     1      -7.072  11.958  21.205  0.00  0.00    +0.000 Cl
ATOM     17  C   UNL     1      -4.493  12.759  21.680  0.00  0.00    +0.000 A 
ATOM     18 CL   UNL     1      -4.896  13.138  23.316  0.00  0.00    +0.000 Cl
ATOM     19  C   UNL     1      -3.176  12.984  21.270  0.00  0.00    +0.000 A 
ENDBRANCH   4  12
BRANCH   1  20
ATOM     20  C   UNL     1       0.977   9.570  18.726  0.00  0.00    +0.000 C 
ATOM     21  C   UNL     1       1.047   9.146  20.197  0.00  0.00    +0.000 C 
BRANCH  20  22
ATOM     22  C   UNL     1       1.756   8.601  17.825  0.00  0.00    +0.000 C 
BRANCH  22  23
ATOM     23  C   UNL     1       2.457   7.475  18.607  0.00  0.00    +0.000 C 
BRANCH  23  24
ATOM     24  C   UNL     1       2.463   6.098  17.911  0.00  0.00    +0.000 C 
BRANCH  24  25
ATOM     25  N   UNL     1       2.769   4.962  18.800  0.00  0.00    +0.000 NA
BRANCH  25  27
ATOM     26  C   UNL     1       1.082   4.121  20.488  0.00  0.00    +0.000 C 
ATOM     27  C   UNL     1       1.571   4.140  19.045  0.00  0.00    +0.000 C 
ENDBRANCH  25  27
BRANCH  25  28
ATOM     28  C   UNL     1       3.934   4.195  18.332  0.00  0.00    +0.000 C 
ATOM     29  C   UNL     1       4.678   3.368  19.379  0.00  0.00    +0.000 C 
ENDBRANCH  25  28
ENDBRANCH  24  25
ENDBRANCH  23  24
ENDBRANCH  22  23
ENDBRANCH  20  22
ENDBRANCH   1  20
BRANCH   9  30
ATOM     30  O   UNL     1       4.805  14.610  18.021  0.00  0.00    +0.000 OA
ATOM     31  C   UNL     1       5.603  15.741  18.356  0.00  0.00    +0.000 C 
ENDBRANCH   9  30
TORSDOF 9
ENDMDL
MODEL 8
REMARK VINA RESULT:      -6.4      2.827      4.752
REMARK  Name = 
REMARK  13 active torsions:
REMARK  status: ('A' for Active; 'I' for Inactive)
REMARK    1  A    between atoms: C_1  and  C_2
REMARK    2  A    between atoms: C_2  and  N_3
REMARK    3  A    between atoms: N_3  and  C_4
REMARK    4  A    between atoms: N_3  and  C_6
REMARK    5  A    between atoms: C_4  and  C_5
REMARK    6  A    between atoms: C_6  and  C_7
REMARK    7  A    between atoms: C_7  and  C_8
REMARK    8  A    between atoms: C_8  and  C_9
REMARK    9  A    between atoms: C_9  and  C_10
REMARK   10  A    between atoms: C_9  and  N_11
REMARK   11  A    between atoms: C_14  and  C_15
REMARK   12  A    between atoms: C_27  and  O_28
REMARK   13  A    between atoms: O_28  and  C_29
REMARK                            x       y       z     vdW  Elec       q    Type
REMARK                         _______ _______ _______ _____ _____    ______ ____
ROOT
ATOM      1  N   UNL     1       1.738  11.540  18.655  0.00  0.00    +0.000 NA
ATOM      2  C   UNL     1       1.425  12.528  19.434  0.00  0.00    +0.000 A 
ATOM      3  C   UNL     1       0.282  12.509  20.395  0.00  0.00    +0.000 A 
ATOM      4  C   UNL     1       0.000  13.436  21.310  0.00  0.00    +0.000 A 
ATOM      5  S   UNL     1       0.855  14.887  21.585  0.00  0.00    +0.000 S 
ATOM      6  C   UNL     1       2.095  14.815  20.323  0.00  0.00    +0.000 A 
ATOM      7  C   UNL     1       2.960  15.920  20.285  0.00  0.00    +0.000 A 
ATOM      8  C   UNL     1       3.999  15.994  19.361  0.00  0.00    +0.000 A 
ATOM      9  C   UNL     1       4.186  14.964  18.448  0.00  0.00    +0.000 A 
ATOM     10  C   UNL     1       3.325  13.858  18.473  0.00  0.00    +0.000 A 
ATOM     11  C   UNL     1       2.278  13.768  19.414  0.00  0.00    +0.000 A 
ENDROOT
BRANCH   4  12
ATOM     12  C   UNL     1      -1.104  13.186  22.247  0.00  0.00    +0.000 A 
ATOM     13  C   UNL     1      -1.545  11.886  22.515  0.00  0.00    +0.000 A 
ATOM     14  C   UNL     1      -2.605  11.677  23.402  0.00  0.00    +0.000 A 
ATOM     15  C   UNL     1      -3.224  12.762  24.031  0.00  0.00    +0.000 A 
ATOM     16 CL   UNL     1      -4.537  12.430  25.101  0.00  0.00    +0.000 Cl
ATOM     17  C   UNL     1      -2.773  14.062  23.780  0.00  0.00    +0.000 A 
ATOM     18 CL   UNL     1      -3.477  15.452  24.527  0.00  0.00    +0.000 Cl
ATOM     19  C   UNL     1      -1.714  14.271  22.894  0.00  0.00    +0.000 A 
ENDBRANCH   4  12
BRANCH   1  20
ATOM     20  C   UNL     1       1.000  10.268  18.705  0.00  0.00    +0.000 C 
ATOM     21  C   UNL     1       1.940   9.143  18.262  0.00  0.00    +0.000 C 
BRANCH  20  22
ATOM     22  C   UNL     1      -0.239  10.352  17.801  0.00  0.00    +0.000 C 
BRANCH  22  23
ATOM     23  C   UNL     1      -1.562  10.160  18.565  0.00  0.00    +0.000 C 
BRANCH  23  24
ATOM     24  C   UNL     1      -2.801   9.906  17.680  0.00  0.00    +0.000 C 
BRANCH  24  25
ATOM     25  N   UNL     1      -3.433  11.125  17.144  0.00  0.00    +0.000 NA
BRANCH  25  27
ATOM     26  C   UNL     1      -2.983  10.211  14.828  0.00  0.00    +0.000 C 
ATOM     27  C   UNL     1      -3.949  10.903  15.782  0.00  0.00    +0.000 C 
ENDBRANCH  25  27
BRANCH  25  28
ATOM     28  C   UNL     1      -4.427  11.685  18.075  0.00  0.00    +0.000 C 
ATOM     29  C   UNL     1      -5.746  10.927  18.209  0.00  0.00    +0.000 C 
ENDBRANCH  25  28
ENDBRANCH  24  25
ENDBRANCH  23  24
ENDBRANCH  22  23
ENDBRANCH  20  22
ENDBRANCH   1  20
BRANCH   9  30
ATOM     30  O   UNL     1       5.166  14.928  17.493  0.00  0.00    +0.000 OA
ATOM     31  C   UNL     1       6.472  14.569  17.936  0.00  0.00    +0.000 C 
ENDBRANCH   9  30
TORSDOF 9
ENDMDL
MODEL 9
REMARK VINA RESULT:      -6.3      3.117      4.939
REMARK  Name = 
REMARK  13 active torsions:
REMARK  status: ('A' for Active; 'I' for Inactive)
REMARK    1  A    between atoms: C_1  and  C_2
REMARK    2  A    between atoms: C_2  and  N_3
REMARK    3  A    between atoms: N_3  and  C_4
REMARK    4  A    between atoms: N_3  and  C_6
REMARK    5  A    between atoms: C_4  and  C_5
REMARK    6  A    between atoms: C_6  and  C_7
REMARK    7  A    between atoms: C_7  and  C_8
REMARK    8  A    between atoms: C_8  and  C_9
REMARK    9  A    between atoms: C_9  and  C_10
REMARK   10  A    between atoms: C_9  and  N_11
REMARK   11  A    between atoms: C_14  and  C_15
REMARK   12  A    between atoms: C_27  and  O_28
REMARK   13  A    between atoms: O_28  and  C_29
REMARK                            x       y       z     vdW  Elec       q    Type
REMARK                         _______ _______ _______ _____ _____    ______ ____
ROOT
ATOM      1  N   UNL     1      -0.157  10.092  18.006  0.00  0.00    +0.000 NA
ATOM      2  C   UNL     1      -1.251  10.684  18.373  0.00  0.00    +0.000 A 
ATOM      3  C   UNL     1      -1.451  11.328  19.705  0.00  0.00    +0.000 A 
ATOM      4  C   UNL     1      -2.497  12.064  20.080  0.00  0.00    +0.000 A 
ATOM      5  S   UNL     1      -3.877  12.422  19.144  0.00  0.00    +0.000 S 
ATOM      6  C   UNL     1      -3.545  11.518  17.658  0.00  0.00    +0.000 A 
ATOM      7  C   UNL     1      -4.548  11.606  16.680  0.00  0.00    +0.000 A 
ATOM      8  C   UNL     1      -4.417  10.967  15.450  0.00  0.00    +0.000 A 
ATOM      9  C   UNL     1      -3.278  10.217  15.179  0.00  0.00    +0.000 A 
ATOM     10  C   UNL     1      -2.273  10.119  16.150  0.00  0.00    +0.000 A 
ATOM     11  C   UNL     1      -2.391  10.774  17.393  0.00  0.00    +0.000 A 
ENDROOT
BRANCH   4  12
ATOM     12  C   UNL     1      -2.462  12.714  21.398  0.00  0.00    +0.000 A 
ATOM     13  C   UNL     1      -1.252  12.930  22.067  0.00  0.00    +0.000 A 
ATOM     14  C   UNL     1      -1.248  13.540  23.323  0.00  0.00    +0.000 A 
ATOM     15  C   UNL     1      -2.449  13.945  23.916  0.00  0.00    +0.000 A 
ATOM     16 CL   UNL     1      -2.370  14.677  25.478  0.00  0.00    +0.000 Cl
ATOM     17  C   UNL     1      -3.659  13.749  23.242  0.00  0.00    +0.000 A 
ATOM     18 CL   UNL     1      -5.181  14.231  23.901  0.00  0.00    +0.000 Cl
ATOM     19  C   UNL     1      -3.663  13.139  21.985  0.00  0.00    +0.000 A 
ENDBRANCH   4  12
BRANCH   1  20
ATOM     20  C   UNL     1       1.023  10.062  18.886  0.00  0.00    +0.000 C 
ATOM     21  C   UNL     1       1.573  11.487  19.010  0.00  0.00    +0.000 C 
BRANCH  20  22
ATOM     22  C   UNL     1       2.075   9.103  18.310  0.00  0.00    +0.000 C 
BRANCH  22  23
ATOM     23  C   UNL     1       2.175   7.776  19.083  0.00  0.00    +0.000 C 
BRANCH  23  24
ATOM     24  C   UNL     1       2.595   6.554  18.240  0.00  0.00    +0.000 C 
BRANCH  24  25
ATOM     25  N   UNL     1       2.900   5.342  19.023  0.00  0.00    +0.000 NA
BRANCH  25  27
ATOM     26  C   UNL     1       5.192   5.863  18.087  0.00  0.00    +0.000 C 
ATOM     27  C   UNL     1       4.353   5.121  19.120  0.00  0.00    +0.000 C 
ENDBRANCH  25  27
BRANCH  25  28
ATOM     28  C   UNL     1       2.207   5.338  20.322  0.00  0.00    +0.000 C 
ATOM     29  C   UNL     1       1.148   4.258  20.532  0.00  0.00    +0.000 C 
ENDBRANCH  25  28
ENDBRANCH  24  25
ENDBRANCH  23  24
ENDBRANCH  22  23
ENDBRANCH  20  22
ENDBRANCH   1  20
BRANCH   9  30
ATOM     30  O   UNL     1      -3.041   9.543  14.011  0.00  0.00    +0.000 OA
ATOM     31  C   UNL     1      -3.956   9.779  12.944  0.00  0.00    +0.000 C 
ENDBRANCH   9  30
TORSDOF 9
ENDMDL
