MODEL 1
REMARK VINA RESULT:      -8.0      0.000      0.000
REMARK  Name = 
REMARK  3 active torsions:
REMARK  status: ('A' for Active; 'I' for Inactive)
REMARK    1  A    between atoms: N_5  and  C_6
REMARK    2  A    between atoms: C_8  and  C_9
REMARK    3  A    between atoms: C_19  and  C_20
REMARK                            x       y       z     vdW  Elec       q    Type
REMARK                         _______ _______ _______ _____ _____    ______ ____
ROOT
ATOM      1  O   UNL     1       1.697   9.857  17.608  0.00  0.00    +0.000 OA
ATOM      2  C   UNL     1       1.569   9.341  18.710  0.00  0.00    +0.000 C 
ATOM      3  N   UNL     1       1.981   8.088  19.038  0.00  0.00    +0.000 N 
ATOM      4  C   UNL     1       1.682   7.616  20.277  0.00  0.00    +0.000 C 
ATOM      5  N   UNL     1       1.871   6.429  20.744  0.00  0.00    +0.000 NA
ATOM      6  S   UNL     1       0.947   8.882  21.231  0.00  0.00    +0.000 S 
ATOM      7  C   UNL     1       0.933   9.973  19.893  0.00  0.00    +0.000 C 
ATOM      8  C   UNL     1       0.452  11.222  19.840  0.00  0.00    +0.000 C 
ATOM      9  H   UNL     1       2.433   7.486  18.358  0.00  0.00    +0.000 HD
ENDROOT
BRANCH   8  10
ATOM     10  C   UNL     1      -0.119  11.951  20.972  0.00  0.00    +0.000 A 
ATOM     11  C   UNL     1       0.334  13.243  21.264  0.00  0.00    +0.000 A 
ATOM     12  C   UNL     1      -0.188  13.942  22.353  0.00  0.00    +0.000 A 
ATOM     13  C   UNL     1      -1.169  13.357  23.152  0.00  0.00    +0.000 A 
ATOM     14  C   UNL     1      -1.631  12.074  22.860  0.00  0.00    +0.000 A 
ATOM     15  C   UNL     1      -1.107  11.371  21.773  0.00  0.00    +0.000 A 
ENDBRANCH   8  10
BRANCH   5  16
ATOM     16  C   UNL     1       2.412   5.513  19.904  0.00  0.00    +0.000 A 
ATOM     17  N   UNL     1       3.468   5.672  19.130  0.00  0.00    +0.000 NA
ATOM     18  C   UNL     1       3.750   4.517  18.433  0.00  0.00    +0.000 A 
ATOM     19  C   UNL     1       2.853   3.491  18.636  0.00  0.00    +0.000 A 
ATOM     20  S   UNL     1       1.674   3.958  19.783  0.00  0.00    +0.000 S 
BRANCH  18  21
ATOM     21  C   UNL     1       4.944   4.418  17.609  0.00  0.00    +0.000 A 
ATOM     22  C   UNL     1       6.215   4.625  18.161  0.00  0.00    +0.000 A 
ATOM     23  C   UNL     1       7.347   4.641  17.349  0.00  0.00    +0.000 A 
ATOM     24  C   UNL     1       7.220   4.442  15.976  0.00  0.00    +0.000 A 
ATOM     25  C   UNL     1       5.966   4.207  15.418  0.00  0.00    +0.000 A 
ATOM     26  C   UNL     1       4.831   4.192  16.230  0.00  0.00    +0.000 A 
ENDBRANCH  18  21
ENDBRANCH   5  16
TORSDOF 3
ENDMDL
MODEL 2
REMARK VINA RESULT:      -7.9      0.600      1.034
REMARK  Name = 
REMARK  3 active torsions:
REMARK  status: ('A' for Active; 'I' for Inactive)
REMARK    1  A    between atoms: N_5  and  C_6
REMARK    2  A    between atoms: C_8  and  C_9
REMARK    3  A    between atoms: C_19  and  C_20
REMARK                            x       y       z     vdW  Elec       q    Type
REMARK                         _______ _______ _______ _____ _____    ______ ____
ROOT
ATOM      1  O   UNL     1       1.929   9.635  17.362  0.00  0.00    +0.000 OA
ATOM      2  C   UNL     1       1.698   9.216  18.487  0.00  0.00    +0.000 C 
ATOM      3  N   UNL     1       2.082   8.003  18.964  0.00  0.00    +0.000 N 
ATOM      4  C   UNL     1       1.667   7.638  20.206  0.00  0.00    +0.000 C 
ATOM      5  N   UNL     1       1.816   6.500  20.794  0.00  0.00    +0.000 NA
ATOM      6  S   UNL     1       0.837   8.974  20.968  0.00  0.00    +0.000 S 
ATOM      7  C   UNL     1       0.948   9.942  19.543  0.00  0.00    +0.000 C 
ATOM      8  C   UNL     1       0.468  11.175  19.333  0.00  0.00    +0.000 C 
ATOM      9  H   UNL     1       2.600   7.349  18.388  0.00  0.00    +0.000 HD
ENDROOT
BRANCH   8  10
ATOM     10  C   UNL     1      -0.214  11.994  20.335  0.00  0.00    +0.000 A 
ATOM     11  C   UNL     1      -1.607  11.922  20.458  0.00  0.00    +0.000 A 
ATOM     12  C   UNL     1      -2.271  12.714  21.396  0.00  0.00    +0.000 A 
ATOM     13  C   UNL     1      -1.548  13.574  22.219  0.00  0.00    +0.000 A 
ATOM     14  C   UNL     1      -0.159  13.643  22.107  0.00  0.00    +0.000 A 
ATOM     15  C   UNL     1       0.507  12.855  21.166  0.00  0.00    +0.000 A 
ENDBRANCH   8  10
BRANCH   5  16
ATOM     16  C   UNL     1       2.440   5.521  20.094  0.00  0.00    +0.000 A 
ATOM     17  N   UNL     1       3.413   5.669  19.217  0.00  0.00    +0.000 NA
ATOM     18  C   UNL     1       3.826   4.449  18.725  0.00  0.00    +0.000 A 
ATOM     19  C   UNL     1       3.108   3.369  19.191  0.00  0.00    +0.000 A 
ATOM     20  S   UNL     1       1.940   3.885  20.328  0.00  0.00    +0.000 S 
BRANCH  18  21
ATOM     21  C   UNL     1       4.971   4.356  17.833  0.00  0.00    +0.000 A 
ATOM     22  C   UNL     1       6.258   4.681  18.284  0.00  0.00    +0.000 A 
ATOM     23  C   UNL     1       7.335   4.699  17.400  0.00  0.00    +0.000 A 
ATOM     24  C   UNL     1       7.137   4.386  16.058  0.00  0.00    +0.000 A 
ATOM     25  C   UNL     1       5.869   4.035  15.601  0.00  0.00    +0.000 A 
ATOM     26  C   UNL     1       4.789   4.017  16.485  0.00  0.00    +0.000 A 
ENDBRANCH  18  21
ENDBRANCH   5  16
TORSDOF 3
ENDMDL
MODEL 3
REMARK VINA RESULT:      -7.8      0.683      1.180
REMARK  Name = 
REMARK  3 active torsions:
REMARK  status: ('A' for Active; 'I' for Inactive)
REMARK    1  A    between atoms: N_5  and  C_6
REMARK    2  A    between atoms: C_8  and  C_9
REMARK    3  A    between atoms: C_19  and  C_20
REMARK                            x       y       z     vdW  Elec       q    Type
REMARK                         _______ _______ _______ _____ _____    ______ ____
ROOT
ATOM      1  O   UNL     1       1.973   9.716  17.426  0.00  0.00    +0.000 OA
ATOM      2  C   UNL     1       1.697   9.277  18.534  0.00  0.00    +0.000 C 
ATOM      3  N   UNL     1       2.092   8.069  19.016  0.00  0.00    +0.000 N 
ATOM      4  C   UNL     1       1.626   7.677  20.231  0.00  0.00    +0.000 C 
ATOM      5  N   UNL     1       1.778   6.536  20.813  0.00  0.00    +0.000 NA
ATOM      6  S   UNL     1       0.720   8.979  20.965  0.00  0.00    +0.000 S 
ATOM      7  C   UNL     1       0.874   9.968  19.558  0.00  0.00    +0.000 C 
ATOM      8  C   UNL     1       0.369  11.189  19.337  0.00  0.00    +0.000 C 
ATOM      9  H   UNL     1       2.658   7.437  18.459  0.00  0.00    +0.000 HD
ENDROOT
BRANCH   8  10
ATOM     10  C   UNL     1      -0.385  11.975  20.312  0.00  0.00    +0.000 A 
ATOM     11  C   UNL     1       0.299  12.733  21.271  0.00  0.00    +0.000 A 
ATOM     12  C   UNL     1      -0.409  13.471  22.220  0.00  0.00    +0.000 A 
ATOM     13  C   UNL     1      -1.803  13.463  22.212  0.00  0.00    +0.000 A 
ATOM     14  C   UNL     1      -2.489  12.717  21.254  0.00  0.00    +0.000 A 
ATOM     15  C   UNL     1      -1.783  11.974  20.306  0.00  0.00    +0.000 A 
ENDBRANCH   8  10
BRANCH   5  16
ATOM     16  C   UNL     1       2.464   5.584  20.135  0.00  0.00    +0.000 A 
ATOM     17  N   UNL     1       3.364   5.776  19.190  0.00  0.00    +0.000 NA
ATOM     18  C   UNL     1       3.880   4.577  18.746  0.00  0.00    +0.000 A 
ATOM     19  C   UNL     1       3.312   3.460  19.321  0.00  0.00    +0.000 A 
ATOM     20  S   UNL     1       2.161   3.925  20.497  0.00  0.00    +0.000 S 
BRANCH  18  21
ATOM     21  C   UNL     1       4.975   4.546  17.791  0.00  0.00    +0.000 A 
ATOM     22  C   UNL     1       4.748   4.202  16.451  0.00  0.00    +0.000 A 
ATOM     23  C   UNL     1       5.814   4.064  15.564  0.00  0.00    +0.000 A 
ATOM     24  C   UNL     1       7.117   4.277  16.006  0.00  0.00    +0.000 A 
ATOM     25  C   UNL     1       7.356   4.647  17.328  0.00  0.00    +0.000 A 
ATOM     26  C   UNL     1       6.290   4.784  18.218  0.00  0.00    +0.000 A 
ENDBRANCH  18  21
ENDBRANCH   5  16
TORSDOF 3
ENDMDL
MODEL 4
REMARK VINA RESULT:      -7.7      1.921      9.421
REMARK  Name = 
REMARK  3 active torsions:
REMARK  status: ('A' for Active; 'I' for Inactive)
REMARK    1  A    between atoms: N_5  and  C_6
REMARK    2  A    between atoms: C_8  and  C_9
REMARK    3  A    between atoms: C_19  and  C_20
REMARK                            x       y       z     vdW  Elec       q    Type
REMARK                         _______ _______ _______ _____ _____    ______ ____
ROOT
ATOM      1  O   UNL     1       1.874   5.919  20.678  0.00  0.00    +0.000 OA
ATOM      2  C   UNL     1       2.206   6.653  19.757  0.00  0.00    +0.000 C 
ATOM      3  N   UNL     1       1.682   7.883  19.510  0.00  0.00    +0.000 N 
ATOM      4  C   UNL     1       2.084   8.541  18.390  0.00  0.00    +0.000 C 
ATOM      5  N   UNL     1       1.630   9.649  17.912  0.00  0.00    +0.000 NA
ATOM      6  S   UNL     1       3.365   7.647  17.607  0.00  0.00    +0.000 S 
ATOM      7  C   UNL     1       3.230   6.342  18.730  0.00  0.00    +0.000 C 
ATOM      8  C   UNL     1       3.912   5.189  18.753  0.00  0.00    +0.000 C 
ATOM      9  H   UNL     1       0.954   8.275  20.098  0.00  0.00    +0.000 HD
ENDROOT
BRANCH   8  10
ATOM     10  C   UNL     1       4.990   4.830  17.831  0.00  0.00    +0.000 A 
ATOM     11  C   UNL     1       6.323   5.017  18.217  0.00  0.00    +0.000 A 
ATOM     12  C   UNL     1       7.360   4.699  17.339  0.00  0.00    +0.000 A 
ATOM     13  C   UNL     1       7.071   4.185  16.076  0.00  0.00    +0.000 A 
ATOM     14  C   UNL     1       5.745   3.988  15.690  0.00  0.00    +0.000 A 
ATOM     15  C   UNL     1       4.706   4.311  16.565  0.00  0.00    +0.000 A 
ENDBRANCH   8  10
BRANCH   5  16
ATOM     16  C   UNL     1       0.608  10.237  18.579  0.00  0.00    +0.000 A 
ATOM     17  N   UNL     1       0.676  10.884  19.726  0.00  0.00    +0.000 NA
ATOM     18  C   UNL     1      -0.559  11.378  20.091  0.00  0.00    +0.000 A 
ATOM     19  C   UNL     1      -1.586  11.041  19.236  0.00  0.00    +0.000 A 
ATOM     20  S   UNL     1      -0.980  10.152  17.908  0.00  0.00    +0.000 S 
BRANCH  18  21
ATOM     21  C   UNL     1      -0.703  12.230  21.260  0.00  0.00    +0.000 A 
ATOM     22  C   UNL     1      -1.621  11.911  22.270  0.00  0.00    +0.000 A 
ATOM     23  C   UNL     1      -1.838  12.786  23.333  0.00  0.00    +0.000 A 
ATOM     24  C   UNL     1      -1.134  13.985  23.400  0.00  0.00    +0.000 A 
ATOM     25  C   UNL     1      -0.198  14.302  22.419  0.00  0.00    +0.000 A 
ATOM     26  C   UNL     1       0.020  13.428  21.353  0.00  0.00    +0.000 A 
ENDBRANCH  18  21
ENDBRANCH   5  16
TORSDOF 3
ENDMDL
MODEL 5
REMARK VINA RESULT:      -7.6      1.363      1.843
REMARK  Name = 
REMARK  3 active torsions:
REMARK  status: ('A' for Active; 'I' for Inactive)
REMARK    1  A    between atoms: N_5  and  C_6
REMARK    2  A    between atoms: C_8  and  C_9
REMARK    3  A    between atoms: C_19  and  C_20
REMARK                            x       y       z     vdW  Elec       q    Type
REMARK                         _______ _______ _______ _____ _____    ______ ____
ROOT
ATOM      1  O   UNL     1      -0.161  10.375  18.022  0.00  0.00    +0.000 OA
ATOM      2  C   UNL     1       0.166  10.012  19.143  0.00  0.00    +0.000 C 
ATOM      3  N   UNL     1       0.884   8.892  19.423  0.00  0.00    +0.000 N 
ATOM      4  C   UNL     1       1.088   8.567  20.727  0.00  0.00    +0.000 C 
ATOM      5  N   UNL     1       1.631   7.500  21.206  0.00  0.00    +0.000 NA
ATOM      6  S   UNL     1       0.475   9.839  21.756  0.00  0.00    +0.000 S 
ATOM      7  C   UNL     1      -0.165  10.710  20.410  0.00  0.00    +0.000 C 
ATOM      8  C   UNL     1      -0.860  11.856  20.413  0.00  0.00    +0.000 C 
ATOM      9  H   UNL     1       1.199   8.269  18.687  0.00  0.00    +0.000 HD
ENDROOT
BRANCH   8  10
ATOM     10  C   UNL     1      -1.165  12.652  21.601  0.00  0.00    +0.000 A 
ATOM     11  C   UNL     1      -2.298  12.349  22.365  0.00  0.00    +0.000 A 
ATOM     12  C   UNL     1      -2.612  13.114  23.490  0.00  0.00    +0.000 A 
ATOM     13  C   UNL     1      -1.792  14.179  23.860  0.00  0.00    +0.000 A 
ATOM     14  C   UNL     1      -0.657  14.479  23.107  0.00  0.00    +0.000 A 
ATOM     15  C   UNL     1      -0.344  13.718  21.979  0.00  0.00    +0.000 A 
ENDBRANCH   8  10
BRANCH   5  16
ATOM     16  C   UNL     1       2.035   6.560  20.318  0.00  0.00    +0.000 A 
ATOM     17  N   UNL     1       2.826   6.739  19.278  0.00  0.00    +0.000 NA
ATOM     18  C   UNL     1       3.047   5.551  18.614  0.00  0.00    +0.000 A 
ATOM     19  C   UNL     1       2.359   4.471  19.124  0.00  0.00    +0.000 A 
ATOM     20  S   UNL     1       1.476   4.939  20.511  0.00  0.00    +0.000 S 
BRANCH  18  21
ATOM     21  C   UNL     1       3.986   5.482  17.506  0.00  0.00    +0.000 A 
ATOM     22  C   UNL     1       4.469   6.651  16.902  0.00  0.00    +0.000 A 
ATOM     23  C   UNL     1       5.280   6.582  15.771  0.00  0.00    +0.000 A 
ATOM     24  C   UNL     1       5.622   5.342  15.237  0.00  0.00    +0.000 A 
ATOM     25  C   UNL     1       5.173   4.171  15.843  0.00  0.00    +0.000 A 
ATOM     26  C   UNL     1       4.360   4.239  16.975  0.00  0.00    +0.000 A 
ENDBRANCH  18  21
ENDBRANCH   5  16
TORSDOF 3
ENDMDL
MODEL 6
REMARK VINA RESULT:      -7.6      2.515      9.778
REMARK  Name = 
REMARK  3 active torsions:
REMARK  status: ('A' for Active; 'I' for Inactive)
REMARK    1  A    between atoms: N_5  and  C_6
REMARK    2  A    between atoms: C_8  and  C_9
REMARK    3  A    between atoms: C_19  and  C_20
REMARK                            x       y       z     vdW  Elec       q    Type
REMARK                         _______ _______ _______ _____ _____    ______ ____
ROOT
ATOM      1  O   UNL     1       1.439   8.047  21.808  0.00  0.00    +0.000 OA
ATOM      2  C   UNL     1       1.453   8.404  20.638  0.00  0.00    +0.000 C 
ATOM      3  N   UNL     1       0.941   9.573  20.172  0.00  0.00    +0.000 N 
ATOM      4  C   UNL     1       0.944   9.787  18.829  0.00  0.00    +0.000 C 
ATOM      5  N   UNL     1       0.407  10.761  18.177  0.00  0.00    +0.000 NA
ATOM      6  S   UNL     1       1.805   8.496  18.027  0.00  0.00    +0.000 S 
ATOM      7  C   UNL     1       2.018   7.630  19.505  0.00  0.00    +0.000 C 
ATOM      8  C   UNL     1       2.600   6.439  19.697  0.00  0.00    +0.000 C 
ATOM      9  H   UNL     1       0.498  10.241  20.793  0.00  0.00    +0.000 HD
ENDROOT
BRANCH   8  10
ATOM     10  C   UNL     1       3.250   5.643  18.656  0.00  0.00    +0.000 A 
ATOM     11  C   UNL     1       2.561   4.575  18.068  0.00  0.00    +0.000 A 
ATOM     12  C   UNL     1       3.177   3.795  17.089  0.00  0.00    +0.000 A 
ATOM     13  C   UNL     1       4.480   4.081  16.687  0.00  0.00    +0.000 A 
ATOM     14  C   UNL     1       5.168   5.149  17.262  0.00  0.00    +0.000 A 
ATOM     15  C   UNL     1       4.555   5.928  18.246  0.00  0.00    +0.000 A 
ENDBRANCH   8  10
BRANCH   5  16
ATOM     16  C   UNL     1      -0.272  11.687  18.897  0.00  0.00    +0.000 A 
ATOM     17  N   UNL     1      -1.270  11.468  19.731  0.00  0.00    +0.000 NA
ATOM     18  C   UNL     1      -1.698  12.643  20.311  0.00  0.00    +0.000 A 
ATOM     19  C   UNL     1      -1.054  13.774  19.858  0.00  0.00    +0.000 A 
ATOM     20  S   UNL     1       0.164  13.349  18.737  0.00  0.00    +0.000 S 
BRANCH  18  21
ATOM     21  C   UNL     1      -2.708  12.632  21.356  0.00  0.00    +0.000 A 
ATOM     22  C   UNL     1      -4.018  13.055  21.091  0.00  0.00    +0.000 A 
ATOM     23  C   UNL     1      -4.955  13.150  22.118  0.00  0.00    +0.000 A 
ATOM     24  C   UNL     1      -4.593  12.815  23.420  0.00  0.00    +0.000 A 
ATOM     25  C   UNL     1      -3.303  12.365  23.694  0.00  0.00    +0.000 A 
ATOM     26  C   UNL     1      -2.364  12.271  22.667  0.00  0.00    +0.000 A 
ENDBRANCH  18  21
ENDBRANCH   5  16
TORSDOF 3
ENDMDL
MODEL 7
REMARK VINA RESULT:      -7.5      2.252      8.856
REMARK  Name = 
REMARK  3 active torsions:
REMARK  status: ('A' for Active; 'I' for Inactive)
REMARK    1  A    between atoms: N_5  and  C_6
REMARK    2  A    between atoms: C_8  and  C_9
REMARK    3  A    between atoms: C_19  and  C_20
REMARK                            x       y       z     vdW  Elec       q    Type
REMARK                         _______ _______ _______ _____ _____    ______ ____
ROOT
ATOM      1  O   UNL     1       2.264   8.915  17.318  0.00  0.00    +0.000 OA
ATOM      2  C   UNL     1       2.007   8.427  18.410  0.00  0.00    +0.000 C 
ATOM      3  N   UNL     1       1.398   9.080  19.434  0.00  0.00    +0.000 N 
ATOM      4  C   UNL     1       1.266   8.433  20.623  0.00  0.00    +0.000 C 
ATOM      5  N   UNL     1       0.833   8.905  21.742  0.00  0.00    +0.000 NA
ATOM      6  S   UNL     1       1.802   6.778  20.458  0.00  0.00    +0.000 S 
ATOM      7  C   UNL     1       2.319   7.038  18.831  0.00  0.00    +0.000 C 
ATOM      8  C   UNL     1       2.911   6.174  17.997  0.00  0.00    +0.000 C 
ATOM      9  H   UNL     1       1.113  10.050  19.347  0.00  0.00    +0.000 HD
ENDROOT
BRANCH   8  10
ATOM     10  C   UNL     1       3.186   4.769  18.297  0.00  0.00    +0.000 A 
ATOM     11  C   UNL     1       2.367   3.771  17.754  0.00  0.00    +0.000 A 
ATOM     12  C   UNL     1       2.606   2.428  18.049  0.00  0.00    +0.000 A 
ATOM     13  C   UNL     1       3.668   2.075  18.881  0.00  0.00    +0.000 A 
ATOM     14  C   UNL     1       4.492   3.065  19.417  0.00  0.00    +0.000 A 
ATOM     15  C   UNL     1       4.252   4.409  19.126  0.00  0.00    +0.000 A 
ENDBRANCH   8  10
BRANCH   5  16
ATOM     16  C   UNL     1       0.482  10.214  21.767  0.00  0.00    +0.000 A 
ATOM     17  N   UNL     1       1.058  11.202  21.110  0.00  0.00    +0.000 NA
ATOM     18  C   UNL     1       0.414  12.397  21.351  0.00  0.00    +0.000 A 
ATOM     19  C   UNL     1      -0.623  12.319  22.255  0.00  0.00    +0.000 A 
ATOM     20  S   UNL     1      -0.845  10.699  22.756  0.00  0.00    +0.000 S 
BRANCH  18  21
ATOM     21  C   UNL     1       0.798  13.605  20.639  0.00  0.00    +0.000 A 
ATOM     22  C   UNL     1      -0.169  14.415  20.028  0.00  0.00    +0.000 A 
ATOM     23  C   UNL     1       0.209  15.509  19.252  0.00  0.00    +0.000 A 
ATOM     24  C   UNL     1       1.559  15.808  19.085  0.00  0.00    +0.000 A 
ATOM     25  C   UNL     1       2.530  15.030  19.710  0.00  0.00    +0.000 A 
ATOM     26  C   UNL     1       2.153  13.933  20.486  0.00  0.00    +0.000 A 
ENDBRANCH  18  21
ENDBRANCH   5  16
TORSDOF 3
ENDMDL
MODEL 8
REMARK VINA RESULT:      -7.5      1.409      1.707
REMARK  Name = 
REMARK  3 active torsions:
REMARK  status: ('A' for Active; 'I' for Inactive)
REMARK    1  A    between atoms: N_5  and  C_6
REMARK    2  A    between atoms: C_8  and  C_9
REMARK    3  A    between atoms: C_19  and  C_20
REMARK                            x       y       z     vdW  Elec       q    Type
REMARK                         _______ _______ _______ _____ _____    ______ ____
ROOT
ATOM      1  O   UNL     1      -0.386  10.297  18.049  0.00  0.00    +0.000 OA
ATOM      2  C   UNL     1      -0.028   9.959  19.169  0.00  0.00    +0.000 C 
ATOM      3  N   UNL     1       0.725   8.864  19.450  0.00  0.00    +0.000 N 
ATOM      4  C   UNL     1       0.963   8.563  20.755  0.00  0.00    +0.000 C 
ATOM      5  N   UNL     1       1.544   7.518  21.238  0.00  0.00    +0.000 NA
ATOM      6  S   UNL     1       0.335   9.833  21.777  0.00  0.00    +0.000 S 
ATOM      7  C   UNL     1      -0.354  10.667  20.432  0.00  0.00    +0.000 C 
ATOM      8  C   UNL     1      -1.079  11.793  20.432  0.00  0.00    +0.000 C 
ATOM      9  H   UNL     1       1.043   8.238  18.717  0.00  0.00    +0.000 HD
ENDROOT
BRANCH   8  10
ATOM     10  C   UNL     1      -1.383  12.598  21.614  0.00  0.00    +0.000 A 
ATOM     11  C   UNL     1      -0.524  13.640  21.983  0.00  0.00    +0.000 A 
ATOM     12  C   UNL     1      -0.792  14.402  23.121  0.00  0.00    +0.000 A 
ATOM     13  C   UNL     1      -1.921  14.132  23.892  0.00  0.00    +0.000 A 
ATOM     14  C   UNL     1      -2.785  13.101  23.524  0.00  0.00    +0.000 A 
ATOM     15  C   UNL     1      -2.517  12.334  22.388  0.00  0.00    +0.000 A 
ENDBRANCH   8  10
BRANCH   5  16
ATOM     16  C   UNL     1       1.956   6.576  20.355  0.00  0.00    +0.000 A 
ATOM     17  N   UNL     1       2.713   6.763  19.291  0.00  0.00    +0.000 NA
ATOM     18  C   UNL     1       2.957   5.571  18.642  0.00  0.00    +0.000 A 
ATOM     19  C   UNL     1       2.320   4.478  19.190  0.00  0.00    +0.000 A 
ATOM     20  S   UNL     1       1.458   4.941  20.592  0.00  0.00    +0.000 S 
BRANCH  18  21
ATOM     21  C   UNL     1       3.868   5.514  17.511  0.00  0.00    +0.000 A 
ATOM     22  C   UNL     1       4.250   4.283  16.960  0.00  0.00    +0.000 A 
ATOM     23  C   UNL     1       5.209   4.225  15.950  0.00  0.00    +0.000 A 
ATOM     24  C   UNL     1       5.790   5.398  15.476  0.00  0.00    +0.000 A 
ATOM     25  C   UNL     1       5.399   6.631  15.994  0.00  0.00    +0.000 A 
ATOM     26  C   UNL     1       4.440   6.691  17.006  0.00  0.00    +0.000 A 
ENDBRANCH  18  21
ENDBRANCH   5  16
TORSDOF 3
ENDMDL
MODEL 9
REMARK VINA RESULT:      -7.4      1.100      1.234
REMARK  Name = 
REMARK  3 active torsions:
REMARK  status: ('A' for Active; 'I' for Inactive)
REMARK    1  A    between atoms: N_5  and  C_6
REMARK    2  A    between atoms: C_8  and  C_9
REMARK    3  A    between atoms: C_19  and  C_20
REMARK                            x       y       z     vdW  Elec       q    Type
REMARK                         _______ _______ _______ _____ _____    ______ ____
ROOT
ATOM      1  O   UNL     1       1.069  10.393  18.016  0.00  0.00    +0.000 OA
ATOM      2  C   UNL     1       1.005   9.886  19.127  0.00  0.00    +0.000 C 
ATOM      3  N   UNL     1       1.474   8.652  19.451  0.00  0.00    +0.000 N 
ATOM      4  C   UNL     1       1.243   8.184  20.706  0.00  0.00    +0.000 C 
ATOM      5  N   UNL     1       1.493   7.010  21.177  0.00  0.00    +0.000 NA
ATOM      6  S   UNL     1       0.505   9.436  21.676  0.00  0.00    +0.000 S 
ATOM      7  C   UNL     1       0.397  10.509  20.329  0.00  0.00    +0.000 C 
ATOM      8  C   UNL     1      -0.129  11.740  20.284  0.00  0.00    +0.000 C 
ATOM      9  H   UNL     1       1.918   8.057  18.759  0.00  0.00    +0.000 HD
ENDROOT
BRANCH   8  10
ATOM     10  C   UNL     1      -0.678  12.463  21.430  0.00  0.00    +0.000 A 
ATOM     11  C   UNL     1      -0.048  13.629  21.881  0.00  0.00    +0.000 A 
ATOM     12  C   UNL     1      -0.549  14.317  22.987  0.00  0.00    +0.000 A 
ATOM     13  C   UNL     1      -1.686  13.848  23.643  0.00  0.00    +0.000 A 
ATOM     14  C   UNL     1      -2.323  12.691  23.193  0.00  0.00    +0.000 A 
ATOM     15  C   UNL     1      -1.820  11.999  22.090  0.00  0.00    +0.000 A 
ENDBRANCH   8  10
BRANCH   5  16
ATOM     16  C   UNL     1       2.030   6.104  20.325  0.00  0.00    +0.000 A 
ATOM     17  N   UNL     1       2.778   6.355  19.268  0.00  0.00    +0.000 NA
ATOM     18  C   UNL     1       3.174   5.186  18.653  0.00  0.00    +0.000 A 
ATOM     19  C   UNL     1       2.661   4.038  19.218  0.00  0.00    +0.000 A 
ATOM     20  S   UNL     1       1.726   4.427  20.595  0.00  0.00    +0.000 S 
BRANCH  18  21
ATOM     21  C   UNL     1       4.105   5.211  17.537  0.00  0.00    +0.000 A 
ATOM     22  C   UNL     1       4.514   6.428  16.973  0.00  0.00    +0.000 A 
ATOM     23  C   UNL     1       5.318   6.446  15.834  0.00  0.00    +0.000 A 
ATOM     24  C   UNL     1       5.726   5.249  15.253  0.00  0.00    +0.000 A 
ATOM     25  C   UNL     1       5.350   4.033  15.818  0.00  0.00    +0.000 A 
ATOM     26  C   UNL     1       4.545   4.012  16.958  0.00  0.00    +0.000 A 
ENDBRANCH  18  21
ENDBRANCH   5  16
TORSDOF 3
ENDMDL
