MODEL 1
REMARK VINA RESULT:      -7.9      0.000      0.000
REMARK  Name = 
REMARK  6 active torsions:
REMARK  status: ('A' for Active; 'I' for Inactive)
REMARK    1  A    between atoms: C_2  and  C_10
REMARK    2  A    between atoms: N_3  and  C_4
REMARK    3  A    between atoms: C_4  and  C_5
REMARK    4  A    between atoms: C_15  and  N_16
REMARK    5  A    between atoms: N_16  and  S_17
REMARK    6  A    between atoms: S_17  and  C_20
REMARK                            x       y       z     vdW  Elec       q    Type
REMARK                         _______ _______ _______ _____ _____    ______ ____
ROOT
ATOM      1  C   UNL     1       5.662   4.530  17.086  0.00  0.00    +0.000 A 
ATOM      2  C   UNL     1       6.100   3.710  16.029  0.00  0.00    +0.000 A 
ATOM      3  C   UNL     1       6.100   4.173  14.713  0.00  0.00    +0.000 A 
ATOM      4  C   UNL     1       5.628   5.447  14.430  0.00  0.00    +0.000 A 
ATOM      5  C   UNL     1       5.156   6.256  15.461  0.00  0.00    +0.000 A 
ATOM      6  C   UNL     1       5.175   5.820  16.792  0.00  0.00    +0.000 A 
ENDROOT
BRANCH   1   8
ATOM      7  O   UNL     1       6.305   4.436  19.351  0.00  0.00    +0.000 OA
ATOM      8  C   UNL     1       5.601   3.958  18.467  0.00  0.00    +0.000 C 
ATOM      9  N   UNL     1       4.703   2.930  18.672  0.00  0.00    +0.000 N 
ATOM     10  H   UNL     1       4.379   2.385  17.884  0.00  0.00    +0.000 HD
BRANCH   9  11
ATOM     11  C   UNL     1       4.475   2.343  19.974  0.00  0.00    +0.000 C 
BRANCH  11  12
ATOM     12  C   UNL     1       3.079   2.629  20.411  0.00  0.00    +0.000 A 
ATOM     13  C   UNL     1       2.475   2.696  21.653  0.00  0.00    +0.000 A 
ATOM     14  C   UNL     1       1.101   2.930  21.421  0.00  0.00    +0.000 A 
ATOM     15  C   UNL     1       0.948   3.017  20.056  0.00  0.00    +0.000 A 
ATOM     16  O   UNL     1       2.144   2.845  19.434  0.00  0.00    +0.000 OA
ENDBRANCH  11  12
ENDBRANCH   9  11
ENDBRANCH   1   8
BRANCH   6  17
ATOM     17  N   UNL     1       4.707   6.746  17.798  0.00  0.00    +0.000 N 
ATOM     18  H   UNL     1       4.646   7.705  17.421  0.00  0.00    +0.000 HD
BRANCH  17  19
ATOM     19  S   UNL     1       3.199   6.392  18.505  0.00  0.00    +0.000 S 
ATOM     20  O   UNL     1       2.450   5.587  17.563  0.00  0.00    +0.000 OA
ATOM     21  O   UNL     1       3.431   5.938  19.861  0.00  0.00    +0.000 OA
BRANCH  19  22
ATOM     22  C   UNL     1       2.244   7.888  18.701  0.00  0.00    +0.000 A 
ATOM     23  C   UNL     1       1.892   8.886  17.805  0.00  0.00    +0.000 A 
ATOM     24  C   UNL     1       0.998   9.840  18.376  0.00  0.00    +0.000 A 
ATOM     25  C   UNL     1       0.740   9.542  19.689  0.00  0.00    +0.000 A 
ATOM     26 CL   UNL     1      -0.338  10.378  20.732  0.00  0.00    +0.000 Cl
ATOM     27  S   UNL     1       1.607   8.206  20.263  0.00  0.00    +0.000 S 
ENDBRANCH  19  22
ENDBRANCH  17  19
ENDBRANCH   6  17
TORSDOF 6
ENDMDL
MODEL 2
REMARK VINA RESULT:      -7.9      1.632      4.820
REMARK  Name = 
REMARK  6 active torsions:
REMARK  status: ('A' for Active; 'I' for Inactive)
REMARK    1  A    between atoms: C_2  and  C_10
REMARK    2  A    between atoms: N_3  and  C_4
REMARK    3  A    between atoms: C_4  and  C_5
REMARK    4  A    between atoms: C_15  and  N_16
REMARK    5  A    between atoms: N_16  and  S_17
REMARK    6  A    between atoms: S_17  and  C_20
REMARK                            x       y       z     vdW  Elec       q    Type
REMARK                         _______ _______ _______ _____ _____    ______ ____
ROOT
ATOM      1  C   UNL     1       4.356   3.970  19.568  0.00  0.00    +0.000 A 
ATOM      2  C   UNL     1       4.201   2.583  19.754  0.00  0.00    +0.000 A 
ATOM      3  C   UNL     1       3.055   2.064  20.358  0.00  0.00    +0.000 A 
ATOM      4  C   UNL     1       2.067   2.923  20.817  0.00  0.00    +0.000 A 
ATOM      5  C   UNL     1       2.224   4.300  20.674  0.00  0.00    +0.000 A 
ATOM      6  C   UNL     1       3.353   4.840  20.044  0.00  0.00    +0.000 A 
ENDROOT
BRANCH   1   8
ATOM      7  O   UNL     1       6.443   5.054  19.722  0.00  0.00    +0.000 OA
ATOM      8  C   UNL     1       5.638   4.484  18.993  0.00  0.00    +0.000 C 
ATOM      9  N   UNL     1       5.855   4.240  17.651  0.00  0.00    +0.000 N 
ATOM     10  H   UNL     1       5.069   4.048  17.045  0.00  0.00    +0.000 HD
BRANCH   9  11
ATOM     11  C   UNL     1       7.087   4.600  16.984  0.00  0.00    +0.000 C 
BRANCH  11  12
ATOM     12  C   UNL     1       6.898   4.513  15.508  0.00  0.00    +0.000 A 
ATOM     13  C   UNL     1       6.051   3.767  14.709  0.00  0.00    +0.000 A 
ATOM     14  C   UNL     1       6.397   4.061  13.370  0.00  0.00    +0.000 A 
ATOM     15  C   UNL     1       7.415   4.985  13.428  0.00  0.00    +0.000 A 
ATOM     16  O   UNL     1       7.721   5.273  14.721  0.00  0.00    +0.000 OA
ENDBRANCH  11  12
ENDBRANCH   9  11
ENDBRANCH   1   8
BRANCH   6  17
ATOM     17  N   UNL     1       3.407   6.276  19.901  0.00  0.00    +0.000 N 
ATOM     18  H   UNL     1       4.368   6.628  20.036  0.00  0.00    +0.000 HD
BRANCH  17  19
ATOM     19  S   UNL     1       2.848   6.907  18.422  0.00  0.00    +0.000 S 
ATOM     20  O   UNL     1       4.004   7.325  17.657  0.00  0.00    +0.000 OA
ATOM     21  O   UNL     1       1.881   5.979  17.871  0.00  0.00    +0.000 OA
BRANCH  19  22
ATOM     22  C   UNL     1       1.911   8.401  18.704  0.00  0.00    +0.000 A 
ATOM     23  C   UNL     1       1.546   9.438  17.859  0.00  0.00    +0.000 A 
ATOM     24  C   UNL     1       0.673  10.373  18.491  0.00  0.00    +0.000 A 
ATOM     25  C   UNL     1       0.445  10.023  19.796  0.00  0.00    +0.000 A 
ATOM     26 CL   UNL     1      -0.601  10.821  20.900  0.00  0.00    +0.000 Cl
ATOM     27  S   UNL     1       1.314   8.657  20.293  0.00  0.00    +0.000 S 
ENDBRANCH  19  22
ENDBRANCH  17  19
ENDBRANCH   6  17
TORSDOF 6
ENDMDL
MODEL 3
REMARK VINA RESULT:      -7.6      1.962      4.677
REMARK  Name = 
REMARK  6 active torsions:
REMARK  status: ('A' for Active; 'I' for Inactive)
REMARK    1  A    between atoms: C_2  and  C_10
REMARK    2  A    between atoms: N_3  and  C_4
REMARK    3  A    between atoms: C_4  and  C_5
REMARK    4  A    between atoms: C_15  and  N_16
REMARK    5  A    between atoms: N_16  and  S_17
REMARK    6  A    between atoms: S_17  and  C_20
REMARK                            x       y       z     vdW  Elec       q    Type
REMARK                         _______ _______ _______ _____ _____    ______ ____
ROOT
ATOM      1  C   UNL     1       3.460   3.691  19.015  0.00  0.00    +0.000 A 
ATOM      2  C   UNL     1       2.980   2.387  19.239  0.00  0.00    +0.000 A 
ATOM      3  C   UNL     1       2.052   2.127  20.248  0.00  0.00    +0.000 A 
ATOM      4  C   UNL     1       1.618   3.158  21.069  0.00  0.00    +0.000 A 
ATOM      5  C   UNL     1       2.113   4.447  20.883  0.00  0.00    +0.000 A 
ATOM      6  C   UNL     1       3.023   4.734  19.858  0.00  0.00    +0.000 A 
ENDROOT
BRANCH   1   8
ATOM      7  O   UNL     1       4.194   4.040  16.803  0.00  0.00    +0.000 OA
ATOM      8  C   UNL     1       4.517   3.905  17.979  0.00  0.00    +0.000 C 
ATOM      9  N   UNL     1       5.820   3.977  18.430  0.00  0.00    +0.000 N 
ATOM     10  H   UNL     1       6.062   3.572  19.325  0.00  0.00    +0.000 HD
BRANCH   9  11
ATOM     11  C   UNL     1       6.933   4.268  17.554  0.00  0.00    +0.000 C 
BRANCH  11  12
ATOM     12  C   UNL     1       7.389   5.670  17.775  0.00  0.00    +0.000 A 
ATOM     13  C   UNL     1       8.003   6.305  18.839  0.00  0.00    +0.000 A 
ATOM     14  C   UNL     1       8.114   7.668  18.485  0.00  0.00    +0.000 A 
ATOM     15  C   UNL     1       7.584   7.784  17.221  0.00  0.00    +0.000 A 
ATOM     16  O   UNL     1       7.149   6.575  16.777  0.00  0.00    +0.000 OA
ENDBRANCH  11  12
ENDBRANCH   9  11
ENDBRANCH   1   8
BRANCH   6  17
ATOM     17  N   UNL     1       3.445   6.108  19.714  0.00  0.00    +0.000 N 
ATOM     18  H   UNL     1       4.470   6.174  19.605  0.00  0.00    +0.000 HD
BRANCH  17  19
ATOM     19  S   UNL     1       2.751   6.978  18.425  0.00  0.00    +0.000 S 
ATOM     20  O   UNL     1       3.831   7.539  17.641  0.00  0.00    +0.000 OA
ATOM     21  O   UNL     1       1.735   6.146  17.814  0.00  0.00    +0.000 OA
BRANCH  19  22
ATOM     22  C   UNL     1       1.847   8.386  19.048  0.00  0.00    +0.000 A 
ATOM     23  C   UNL     1       1.425   9.559  18.440  0.00  0.00    +0.000 A 
ATOM     24  C   UNL     1       0.609  10.354  19.298  0.00  0.00    +0.000 A 
ATOM     25  C   UNL     1       0.480   9.767  20.530  0.00  0.00    +0.000 A 
ATOM     26 CL   UNL     1      -0.473  10.340  21.839  0.00  0.00    +0.000 Cl
ATOM     27  S   UNL     1       1.376   8.340  20.699  0.00  0.00    +0.000 S 
ENDBRANCH  19  22
ENDBRANCH  17  19
ENDBRANCH   6  17
TORSDOF 6
ENDMDL
MODEL 4
REMARK VINA RESULT:      -7.6      2.081      4.556
REMARK  Name = 
REMARK  6 active torsions:
REMARK  status: ('A' for Active; 'I' for Inactive)
REMARK    1  A    between atoms: C_2  and  C_10
REMARK    2  A    between atoms: N_3  and  C_4
REMARK    3  A    between atoms: C_4  and  C_5
REMARK    4  A    between atoms: C_15  and  N_16
REMARK    5  A    between atoms: N_16  and  S_17
REMARK    6  A    between atoms: S_17  and  C_20
REMARK                            x       y       z     vdW  Elec       q    Type
REMARK                         _______ _______ _______ _____ _____    ______ ____
ROOT
ATOM      1  C   UNL     1       3.454   3.298  17.685  0.00  0.00    +0.000 A 
ATOM      2  C   UNL     1       3.535   1.995  18.214  0.00  0.00    +0.000 A 
ATOM      3  C   UNL     1       2.573   1.523  19.107  0.00  0.00    +0.000 A 
ATOM      4  C   UNL     1       1.539   2.356  19.513  0.00  0.00    +0.000 A 
ATOM      5  C   UNL     1       1.468   3.659  19.026  0.00  0.00    +0.000 A 
ATOM      6  C   UNL     1       2.408   4.143  18.107  0.00  0.00    +0.000 A 
ENDROOT
BRANCH   1   8
ATOM      7  O   UNL     1       4.310   4.073  15.630  0.00  0.00    +0.000 OA
ATOM      8  C   UNL     1       4.555   3.787  16.798  0.00  0.00    +0.000 C 
ATOM      9  N   UNL     1       5.801   3.926  17.377  0.00  0.00    +0.000 N 
ATOM     10  H   UNL     1       6.020   3.411  18.220  0.00  0.00    +0.000 HD
BRANCH   9  11
ATOM     11  C   UNL     1       6.934   4.471  16.664  0.00  0.00    +0.000 C 
BRANCH  11  12
ATOM     12  C   UNL     1       7.410   5.705  17.354  0.00  0.00    +0.000 A 
ATOM     13  C   UNL     1       7.749   5.980  18.665  0.00  0.00    +0.000 A 
ATOM     14  C   UNL     1       8.050   7.360  18.722  0.00  0.00    +0.000 A 
ATOM     15  C   UNL     1       7.902   7.841  17.442  0.00  0.00    +0.000 A 
ATOM     16  O   UNL     1       7.523   6.843  16.601  0.00  0.00    +0.000 OA
ENDBRANCH  11  12
ENDBRANCH   9  11
ENDBRANCH   1   8
BRANCH   6  17
ATOM     17  N   UNL     1       2.226   5.493  17.624  0.00  0.00    +0.000 N 
ATOM     18  H   UNL     1       1.243   5.793  17.718  0.00  0.00    +0.000 HD
BRANCH  17  19
ATOM     19  S   UNL     1       3.185   6.691  18.360  0.00  0.00    +0.000 S 
ATOM     20  O   UNL     1       3.625   6.178  19.640  0.00  0.00    +0.000 OA
ATOM     21  O   UNL     1       4.136   7.175  17.380  0.00  0.00    +0.000 OA
BRANCH  19  22
ATOM     22  C   UNL     1       2.191   8.123  18.749  0.00  0.00    +0.000 A 
ATOM     23  C   UNL     1       1.798   9.212  17.986  0.00  0.00    +0.000 A 
ATOM     24  C   UNL     1       0.885  10.061  18.680  0.00  0.00    +0.000 A 
ATOM     25  C   UNL     1       0.654   9.597  19.948  0.00  0.00    +0.000 A 
ATOM     26 CL   UNL     1      -0.433  10.265  21.098  0.00  0.00    +0.000 Cl
ATOM     27  S   UNL     1       1.566   8.226  20.345  0.00  0.00    +0.000 S 
ENDBRANCH  19  22
ENDBRANCH  17  19
ENDBRANCH   6  17
TORSDOF 6
ENDMDL
MODEL 5
REMARK VINA RESULT:      -7.6      1.864      4.947
REMARK  Name = 
REMARK  6 active torsions:
REMARK  status: ('A' for Active; 'I' for Inactive)
REMARK    1  A    between atoms: C_2  and  C_10
REMARK    2  A    between atoms: N_3  and  C_4
REMARK    3  A    between atoms: C_4  and  C_5
REMARK    4  A    between atoms: C_15  and  N_16
REMARK    5  A    between atoms: N_16  and  S_17
REMARK    6  A    between atoms: S_17  and  C_20
REMARK                            x       y       z     vdW  Elec       q    Type
REMARK                         _______ _______ _______ _____ _____    ______ ____
ROOT
ATOM      1  C   UNL     1       3.839   3.683  19.038  0.00  0.00    +0.000 A 
ATOM      2  C   UNL     1       3.512   2.321  18.900  0.00  0.00    +0.000 A 
ATOM      3  C   UNL     1       2.276   1.833  19.326  0.00  0.00    +0.000 A 
ATOM      4  C   UNL     1       1.366   2.690  19.927  0.00  0.00    +0.000 A 
ATOM      5  C   UNL     1       1.690   4.033  20.105  0.00  0.00    +0.000 A 
ATOM      6  C   UNL     1       2.914   4.549  19.658  0.00  0.00    +0.000 A 
ENDROOT
BRANCH   1   8
ATOM      7  O   UNL     1       6.020   4.439  19.515  0.00  0.00    +0.000 OA
ATOM      8  C   UNL     1       5.208   4.142  18.645  0.00  0.00    +0.000 C 
ATOM      9  N   UNL     1       5.488   4.163  17.293  0.00  0.00    +0.000 N 
ATOM     10  H   UNL     1       4.729   4.204  16.626  0.00  0.00    +0.000 HD
BRANCH   9  11
ATOM     11  C   UNL     1       6.796   4.499  16.774  0.00  0.00    +0.000 C 
BRANCH  11  12
ATOM     12  C   UNL     1       6.763   4.471  15.284  0.00  0.00    +0.000 A 
ATOM     13  C   UNL     1       5.997   3.769  14.371  0.00  0.00    +0.000 A 
ATOM     14  C   UNL     1       6.486   4.108  13.090  0.00  0.00    +0.000 A 
ATOM     15  C   UNL     1       7.503   5.013  13.291  0.00  0.00    +0.000 A 
ATOM     16  O   UNL     1       7.673   5.247  14.619  0.00  0.00    +0.000 OA
ENDBRANCH  11  12
ENDBRANCH   9  11
ENDBRANCH   1   8
BRANCH   6  17
ATOM     17  N   UNL     1       3.144   5.963  19.845  0.00  0.00    +0.000 N 
ATOM     18  H   UNL     1       4.136   6.155  20.052  0.00  0.00    +0.000 HD
BRANCH  17  19
ATOM     19  S   UNL     1       2.700   6.975  18.549  0.00  0.00    +0.000 S 
ATOM     20  O   UNL     1       3.915   7.518  17.979  0.00  0.00    +0.000 OA
ATOM     21  O   UNL     1       1.740   6.265  17.729  0.00  0.00    +0.000 OA
BRANCH  19  22
ATOM     22  C   UNL     1       1.797   8.391  19.155  0.00  0.00    +0.000 A 
ATOM     23  C   UNL     1       1.259   8.683  20.400  0.00  0.00    +0.000 A 
ATOM     24  C   UNL     1       0.729  10.006  20.467  0.00  0.00    +0.000 A 
ATOM     25  C   UNL     1       0.857  10.645  19.261  0.00  0.00    +0.000 A 
ATOM     26 CL   UNL     1       0.424  12.270  18.916  0.00  0.00    +0.000 Cl
ATOM     27  S   UNL     1       1.515   9.669  18.044  0.00  0.00    +0.000 S 
ENDBRANCH  19  22
ENDBRANCH  17  19
ENDBRANCH   6  17
TORSDOF 6
ENDMDL
MODEL 6
REMARK VINA RESULT:      -7.6      2.091      4.770
REMARK  Name = 
REMARK  6 active torsions:
REMARK  status: ('A' for Active; 'I' for Inactive)
REMARK    1  A    between atoms: C_2  and  C_10
REMARK    2  A    between atoms: N_3  and  C_4
REMARK    3  A    between atoms: C_4  and  C_5
REMARK    4  A    between atoms: C_15  and  N_16
REMARK    5  A    between atoms: N_16  and  S_17
REMARK    6  A    between atoms: S_17  and  C_20
REMARK                            x       y       z     vdW  Elec       q    Type
REMARK                         _______ _______ _______ _____ _____    ______ ____
ROOT
ATOM      1  C   UNL     1       3.441   3.608  18.993  0.00  0.00    +0.000 A 
ATOM      2  C   UNL     1       2.917   2.318  19.202  0.00  0.00    +0.000 A 
ATOM      3  C   UNL     1       1.979   2.078  20.206  0.00  0.00    +0.000 A 
ATOM      4  C   UNL     1       1.578   3.114  21.038  0.00  0.00    +0.000 A 
ATOM      5  C   UNL     1       2.117   4.388  20.868  0.00  0.00    +0.000 A 
ATOM      6  C   UNL     1       3.039   4.655  19.847  0.00  0.00    +0.000 A 
ENDROOT
BRANCH   1   8
ATOM      7  O   UNL     1       4.203   3.813  16.772  0.00  0.00    +0.000 OA
ATOM      8  C   UNL     1       4.507   3.797  17.961  0.00  0.00    +0.000 C 
ATOM      9  N   UNL     1       5.793   3.985  18.427  0.00  0.00    +0.000 N 
ATOM     10  H   UNL     1       6.038   3.672  19.357  0.00  0.00    +0.000 HD
BRANCH   9  11
ATOM     11  C   UNL     1       6.906   4.268  17.548  0.00  0.00    +0.000 C 
BRANCH  11  12
ATOM     12  C   UNL     1       7.380   5.663  17.777  0.00  0.00    +0.000 A 
ATOM     13  C   UNL     1       8.010   6.282  18.840  0.00  0.00    +0.000 A 
ATOM     14  C   UNL     1       8.133   7.647  18.497  0.00  0.00    +0.000 A 
ATOM     15  C   UNL     1       7.594   7.779  17.238  0.00  0.00    +0.000 A 
ATOM     16  O   UNL     1       7.142   6.579  16.788  0.00  0.00    +0.000 OA
ENDBRANCH  11  12
ENDBRANCH   9  11
ENDBRANCH   1   8
BRANCH   6  17
ATOM     17  N   UNL     1       3.507   6.016  19.719  0.00  0.00    +0.000 N 
ATOM     18  H   UNL     1       4.528   6.046  19.572  0.00  0.00    +0.000 HD
BRANCH  17  19
ATOM     19  S   UNL     1       2.798   6.943  18.479  0.00  0.00    +0.000 S 
ATOM     20  O   UNL     1       3.866   7.587  17.746  0.00  0.00    +0.000 OA
ATOM     21  O   UNL     1       1.815   6.119  17.805  0.00  0.00    +0.000 OA
BRANCH  19  22
ATOM     22  C   UNL     1       1.842   8.279  19.180  0.00  0.00    +0.000 A 
ATOM     23  C   UNL     1       1.342   8.490  20.456  0.00  0.00    +0.000 A 
ATOM     24  C   UNL     1       0.741   9.777  20.599  0.00  0.00    +0.000 A 
ATOM     25  C   UNL     1       0.782  10.469  19.417  0.00  0.00    +0.000 A 
ATOM     26 CL   UNL     1       0.245  12.079  19.158  0.00  0.00    +0.000 Cl
ATOM     27  S   UNL     1       1.443   9.582  18.135  0.00  0.00    +0.000 S 
ENDBRANCH  19  22
ENDBRANCH  17  19
ENDBRANCH   6  17
TORSDOF 6
ENDMDL
MODEL 7
REMARK VINA RESULT:      -7.5      0.856      1.021
REMARK  Name = 
REMARK  6 active torsions:
REMARK  status: ('A' for Active; 'I' for Inactive)
REMARK    1  A    between atoms: C_2  and  C_10
REMARK    2  A    between atoms: N_3  and  C_4
REMARK    3  A    between atoms: C_4  and  C_5
REMARK    4  A    between atoms: C_15  and  N_16
REMARK    5  A    between atoms: N_16  and  S_17
REMARK    6  A    between atoms: S_17  and  C_20
REMARK                            x       y       z     vdW  Elec       q    Type
REMARK                         _______ _______ _______ _____ _____    ______ ____
ROOT
ATOM      1  C   UNL     1       5.604   4.669  17.136  0.00  0.00    +0.000 A 
ATOM      2  C   UNL     1       6.063   3.938  16.023  0.00  0.00    +0.000 A 
ATOM      3  C   UNL     1       6.028   4.486  14.741  0.00  0.00    +0.000 A 
ATOM      4  C   UNL     1       5.502   5.755  14.546  0.00  0.00    +0.000 A 
ATOM      5  C   UNL     1       5.009   6.475  15.632  0.00  0.00    +0.000 A 
ATOM      6  C   UNL     1       5.061   5.954  16.932  0.00  0.00    +0.000 A 
ENDROOT
BRANCH   1   8
ATOM      7  O   UNL     1       6.309   4.429  19.372  0.00  0.00    +0.000 OA
ATOM      8  C   UNL     1       5.583   4.007  18.477  0.00  0.00    +0.000 C 
ATOM      9  N   UNL     1       4.695   2.962  18.637  0.00  0.00    +0.000 N 
ATOM     10  H   UNL     1       4.353   2.469  17.823  0.00  0.00    +0.000 HD
BRANCH   9  11
ATOM     11  C   UNL     1       4.504   2.289  19.903  0.00  0.00    +0.000 C 
BRANCH  11  12
ATOM     12  C   UNL     1       3.123   2.548  20.401  0.00  0.00    +0.000 A 
ATOM     13  C   UNL     1       2.579   2.631  21.669  0.00  0.00    +0.000 A 
ATOM     14  C   UNL     1       1.189   2.821  21.500  0.00  0.00    +0.000 A 
ATOM     15  C   UNL     1       0.968   2.867  20.143  0.00  0.00    +0.000 A 
ATOM     16  O   UNL     1       2.137   2.712  19.467  0.00  0.00    +0.000 OA
ENDBRANCH  11  12
ENDBRANCH   9  11
ENDBRANCH   1   8
BRANCH   6  17
ATOM     17  N   UNL     1       4.568   6.793  18.000  0.00  0.00    +0.000 N 
ATOM     18  H   UNL     1       4.443   7.766  17.681  0.00  0.00    +0.000 HD
BRANCH  17  19
ATOM     19  S   UNL     1       3.102   6.311  18.720  0.00  0.00    +0.000 S 
ATOM     20  O   UNL     1       2.317   5.634  17.709  0.00  0.00    +0.000 OA
ATOM     21  O   UNL     1       3.407   5.674  19.984  0.00  0.00    +0.000 OA
BRANCH  19  22
ATOM     22  C   UNL     1       2.139   7.745  19.174  0.00  0.00    +0.000 A 
ATOM     23  C   UNL     1       1.524   8.109  20.362  0.00  0.00    +0.000 A 
ATOM     24  C   UNL     1       0.967   9.422  20.307  0.00  0.00    +0.000 A 
ATOM     25  C   UNL     1       1.154   9.980  19.070  0.00  0.00    +0.000 A 
ATOM     26 CL   UNL     1       0.714  11.568  18.589  0.00  0.00    +0.000 Cl
ATOM     27  S   UNL     1       1.901   8.939  17.963  0.00  0.00    +0.000 S 
ENDBRANCH  19  22
ENDBRANCH  17  19
ENDBRANCH   6  17
TORSDOF 6
ENDMDL
MODEL 8
REMARK VINA RESULT:      -7.5      1.478      1.902
REMARK  Name = 
REMARK  6 active torsions:
REMARK  status: ('A' for Active; 'I' for Inactive)
REMARK    1  A    between atoms: C_2  and  C_10
REMARK    2  A    between atoms: N_3  and  C_4
REMARK    3  A    between atoms: C_4  and  C_5
REMARK    4  A    between atoms: C_15  and  N_16
REMARK    5  A    between atoms: N_16  and  S_17
REMARK    6  A    between atoms: S_17  and  C_20
REMARK                            x       y       z     vdW  Elec       q    Type
REMARK                         _______ _______ _______ _____ _____    ______ ____
ROOT
ATOM      1  C   UNL     1       6.028   5.216  18.135  0.00  0.00    +0.000 A 
ATOM      2  C   UNL     1       7.379   5.171  18.529  0.00  0.00    +0.000 A 
ATOM      3  C   UNL     1       8.193   6.299  18.429  0.00  0.00    +0.000 A 
ATOM      4  C   UNL     1       7.681   7.476  17.901  0.00  0.00    +0.000 A 
ATOM      5  C   UNL     1       6.357   7.525  17.472  0.00  0.00    +0.000 A 
ATOM      6  C   UNL     1       5.514   6.411  17.591  0.00  0.00    +0.000 A 
ENDROOT
BRANCH   1   8
ATOM      7  O   UNL     1       4.762   3.494  17.143  0.00  0.00    +0.000 OA
ATOM      8  C   UNL     1       5.220   3.958  18.182  0.00  0.00    +0.000 C 
ATOM      9  N   UNL     1       5.070   3.365  19.420  0.00  0.00    +0.000 N 
ATOM     10  H   UNL     1       5.196   3.917  20.257  0.00  0.00    +0.000 HD
BRANCH   9  11
ATOM     11  C   UNL     1       4.390   2.101  19.600  0.00  0.00    +0.000 C 
BRANCH  11  12
ATOM     12  C   UNL     1       2.919   2.333  19.665  0.00  0.00    +0.000 A 
ATOM     13  C   UNL     1       1.886   2.089  18.778  0.00  0.00    +0.000 A 
ATOM     14  C   UNL     1       0.713   2.601  19.375  0.00  0.00    +0.000 A 
ATOM     15  C   UNL     1       1.089   3.105  20.599  0.00  0.00    +0.000 A 
ATOM     16  O   UNL     1       2.425   2.939  20.789  0.00  0.00    +0.000 OA
ENDBRANCH  11  12
ENDBRANCH   9  11
ENDBRANCH   1   8
BRANCH   6  17
ATOM     17  N   UNL     1       4.144   6.570  17.162  0.00  0.00    +0.000 N 
ATOM     18  H   UNL     1       3.904   5.889  16.424  0.00  0.00    +0.000 HD
BRANCH  17  19
ATOM     19  S   UNL     1       2.955   6.432  18.373  0.00  0.00    +0.000 S 
ATOM     20  O   UNL     1       1.917   5.556  17.872  0.00  0.00    +0.000 OA
ATOM     21  O   UNL     1       3.620   6.164  19.631  0.00  0.00    +0.000 OA
BRANCH  19  22
ATOM     22  C   UNL     1       2.152   8.007  18.629  0.00  0.00    +0.000 A 
ATOM     23  C   UNL     1       1.929   9.081  17.781  0.00  0.00    +0.000 A 
ATOM     24  C   UNL     1       1.120  10.091  18.384  0.00  0.00    +0.000 A 
ATOM     25  C   UNL     1       0.798   9.753  19.672  0.00  0.00    +0.000 A 
ATOM     26 CL   UNL     1      -0.218  10.640  20.735  0.00  0.00    +0.000 Cl
ATOM     27  S   UNL     1       1.507   8.306  20.192  0.00  0.00    +0.000 S 
ENDBRANCH  19  22
ENDBRANCH  17  19
ENDBRANCH   6  17
TORSDOF 6
ENDMDL
MODEL 9
REMARK VINA RESULT:      -7.4      1.956      4.846
REMARK  Name = 
REMARK  6 active torsions:
REMARK  status: ('A' for Active; 'I' for Inactive)
REMARK    1  A    between atoms: C_2  and  C_10
REMARK    2  A    between atoms: N_3  and  C_4
REMARK    3  A    between atoms: C_4  and  C_5
REMARK    4  A    between atoms: C_15  and  N_16
REMARK    5  A    between atoms: N_16  and  S_17
REMARK    6  A    between atoms: S_17  and  C_20
REMARK                            x       y       z     vdW  Elec       q    Type
REMARK                         _______ _______ _______ _____ _____    ______ ____
ROOT
ATOM      1  C   UNL     1       3.371   3.554  19.028  0.00  0.00    +0.000 A 
ATOM      2  C   UNL     1       3.419   2.550  20.014  0.00  0.00    +0.000 A 
ATOM      3  C   UNL     1       2.409   2.435  20.970  0.00  0.00    +0.000 A 
ATOM      4  C   UNL     1       1.358   3.341  20.977  0.00  0.00    +0.000 A 
ATOM      5  C   UNL     1       1.317   4.363  20.031  0.00  0.00    +0.000 A 
ATOM      6  C   UNL     1       2.307   4.478  19.045  0.00  0.00    +0.000 A 
ENDROOT
BRANCH   1   8
ATOM      7  O   UNL     1       4.342   3.486  16.881  0.00  0.00    +0.000 OA
ATOM      8  C   UNL     1       4.519   3.690  18.078  0.00  0.00    +0.000 C 
ATOM      9  N   UNL     1       5.726   4.085  18.620  0.00  0.00    +0.000 N 
ATOM     10  H   UNL     1       5.898   3.950  19.607  0.00  0.00    +0.000 HD
BRANCH   9  11
ATOM     11  C   UNL     1       6.896   4.342  17.810  0.00  0.00    +0.000 C 
BRANCH  11  12
ATOM     12  C   UNL     1       7.211   5.799  17.838  0.00  0.00    +0.000 A 
ATOM     13  C   UNL     1       6.816   6.864  17.050  0.00  0.00    +0.000 A 
ATOM     14  C   UNL     1       7.515   7.997  17.523  0.00  0.00    +0.000 A 
ATOM     15  C   UNL     1       8.276   7.566  18.585  0.00  0.00    +0.000 A 
ATOM     16  O   UNL     1       8.092   6.235  18.791  0.00  0.00    +0.000 OA
ENDBRANCH  11  12
ENDBRANCH   9  11
ENDBRANCH   1   8
BRANCH   6  17
ATOM     17  N   UNL     1       2.156   5.542  18.079  0.00  0.00    +0.000 N 
ATOM     18  H   UNL     1       1.160   5.765  17.924  0.00  0.00    +0.000 HD
BRANCH  17  19
ATOM     19  S   UNL     1       2.944   7.007  18.442  0.00  0.00    +0.000 S 
ATOM     20  O   UNL     1       4.073   6.699  19.294  0.00  0.00    +0.000 OA
ATOM     21  O   UNL     1       3.116   7.745  17.207  0.00  0.00    +0.000 OA
BRANCH  19  22
ATOM     22  C   UNL     1       1.884   8.048  19.431  0.00  0.00    +0.000 A 
ATOM     23  C   UNL     1       1.458   7.952  20.748  0.00  0.00    +0.000 A 
ATOM     24  C   UNL     1       0.713   9.096  21.164  0.00  0.00    +0.000 A 
ATOM     25  C   UNL     1       0.577   9.990  20.135  0.00  0.00    +0.000 A 
ATOM     26 CL   UNL     1      -0.177  11.531  20.215  0.00  0.00    +0.000 Cl
ATOM     27  S   UNL     1       1.245   9.452  18.675  0.00  0.00    +0.000 S 
ENDBRANCH  19  22
ENDBRANCH  17  19
ENDBRANCH   6  17
TORSDOF 6
ENDMDL
