MODEL 1
REMARK VINA RESULT:      -7.3      0.000      0.000
REMARK  Name = 
REMARK  4 active torsions:
REMARK  status: ('A' for Active; 'I' for Inactive)
REMARK    1  A    between atoms: C_2  and  C_3
REMARK    2  A    between atoms: C_3  and  N_4
REMARK    3  A    between atoms: N_7  and  C_8
REMARK    4  A    between atoms: C_8  and  C_9
REMARK                            x       y       z     vdW  Elec       q    Type
REMARK                         _______ _______ _______ _____ _____    ______ ____
ROOT
ATOM      1  N   UNL     1      -7.420  12.015  20.229  0.00  0.00    +0.000 N 
ATOM      2  C   UNL     1      -7.203  10.585  20.205  0.00  0.00    +0.000 C 
ATOM      3  C   UNL     1      -6.721  10.332  18.783  0.00  0.00    +0.000 C 
ATOM      4  N   UNL     1      -6.265  11.635  18.353  0.00  0.00    +0.000 N 
ATOM      5  C   UNL     1      -6.754  12.640  19.180  0.00  0.00    +0.000 C 
ATOM      6  O   UNL     1      -6.593  13.839  19.037  0.00  0.00    +0.000 OA
ENDROOT
BRANCH   1   7
ATOM      7  C   UNL     1      -7.916  12.710  21.397  0.00  0.00    +0.000 C 
BRANCH   7   9
ATOM      8  O   UNL     1      -7.788  11.355  23.406  0.00  0.00    +0.000 OA
ATOM      9  C   UNL     1      -7.286  12.247  22.720  0.00  0.00    +0.000 C 
ATOM     10  N   UNL     1      -6.094  12.878  23.090  0.00  0.00    +0.000 N 
ATOM     11  C   UNL     1      -5.462  13.961  22.338  0.00  0.00    +0.000 C 
ATOM     12  C   UNL     1      -3.954  13.759  22.270  0.00  0.00    +0.000 C 
ATOM     13  C   UNL     1      -3.362  13.602  23.667  0.00  0.00    +0.000 C 
ATOM     14  C   UNL     1      -4.068  12.494  24.447  0.00  0.00    +0.000 C 
ATOM     15  C   UNL     1      -5.577  12.673  24.443  0.00  0.00    +0.000 C 
ATOM     16  O   UNL     1      -3.479  14.855  24.362  0.00  0.00    +0.000 OA
ATOM     17  C   UNL     1      -2.183  15.095  24.909  0.00  0.00    +0.000 C 
ATOM     18  C   UNL     1      -1.257  14.425  23.933  0.00  0.00    +0.000 C 
ATOM     19  O   UNL     1      -1.971  13.251  23.549  0.00  0.00    +0.000 OA
ENDBRANCH   7   9
ENDBRANCH   1   7
BRANCH   4  20
ATOM     20  C   UNL     1      -5.394  11.852  17.221  0.00  0.00    +0.000 C 
BRANCH  20  21
ATOM     21  C   UNL     1      -4.012  11.301  17.486  0.00  0.00    +0.000 A 
ATOM     22  C   UNL     1      -3.263  11.740  18.587  0.00  0.00    +0.000 A 
ATOM     23  C   UNL     1      -1.961  11.279  18.788  0.00  0.00    +0.000 A 
ATOM     24  C   UNL     1      -1.399  10.372  17.891  0.00  0.00    +0.000 A 
ATOM     25 CL   UNL     1       0.214   9.822  18.129  0.00  0.00    +0.000 Cl
ATOM     26  C   UNL     1      -2.132   9.918  16.797  0.00  0.00    +0.000 A 
ATOM     27  C   UNL     1      -3.432  10.386  16.591  0.00  0.00    +0.000 A 
ENDBRANCH  20  21
ENDBRANCH   4  20
TORSDOF 4
ENDMDL
MODEL 2
REMARK VINA RESULT:      -7.1      6.356      9.594
REMARK  Name = 
REMARK  4 active torsions:
REMARK  status: ('A' for Active; 'I' for Inactive)
REMARK    1  A    between atoms: C_2  and  C_3
REMARK    2  A    between atoms: C_3  and  N_4
REMARK    3  A    between atoms: N_7  and  C_8
REMARK    4  A    between atoms: C_8  and  C_9
REMARK                            x       y       z     vdW  Elec       q    Type
REMARK                         _______ _______ _______ _____ _____    ______ ____
ROOT
ATOM      1  N   UNL     1       0.617   9.938  19.400  0.00  0.00    +0.000 N 
ATOM      2  C   UNL     1      -0.244  10.057  18.244  0.00  0.00    +0.000 C 
ATOM      3  C   UNL     1      -1.275  11.087  18.684  0.00  0.00    +0.000 C 
ATOM      4  N   UNL     1      -0.618  11.762  19.780  0.00  0.00    +0.000 N 
ATOM      5  C   UNL     1       0.464  11.028  20.251  0.00  0.00    +0.000 C 
ATOM      6  O   UNL     1       1.172  11.307  21.203  0.00  0.00    +0.000 OA
ENDROOT
BRANCH   1   7
ATOM      7  C   UNL     1       1.743   9.031  19.445  0.00  0.00    +0.000 C 
BRANCH   7   9
ATOM      8  O   UNL     1       1.020   7.958  21.498  0.00  0.00    +0.000 OA
ATOM      9  C   UNL     1       1.552   7.836  20.394  0.00  0.00    +0.000 C 
ATOM     10  N   UNL     1       1.993   6.596  19.921  0.00  0.00    +0.000 N 
ATOM     11  C   UNL     1       2.657   6.388  18.635  0.00  0.00    +0.000 C 
ATOM     12  C   UNL     1       2.127   5.134  17.953  0.00  0.00    +0.000 C 
ATOM     13  C   UNL     1       2.252   3.921  18.871  0.00  0.00    +0.000 C 
ATOM     14  C   UNL     1       1.587   4.180  20.223  0.00  0.00    +0.000 C 
ATOM     15  C   UNL     1       2.075   5.473  20.855  0.00  0.00    +0.000 C 
ATOM     16  O   UNL     1       3.645   3.617  19.049  0.00  0.00    +0.000 OA
ATOM     17  C   UNL     1       3.749   2.213  18.810  0.00  0.00    +0.000 C 
ATOM     18  C   UNL     1       2.648   1.940  17.824  0.00  0.00    +0.000 C 
ATOM     19  O   UNL     1       1.593   2.798  18.256  0.00  0.00    +0.000 OA
ENDBRANCH   7   9
ENDBRANCH   1   7
BRANCH   4  20
ATOM     20  C   UNL     1      -1.028  13.047  20.299  0.00  0.00    +0.000 C 
BRANCH  20  21
ATOM     21  C   UNL     1      -2.190  12.901  21.254  0.00  0.00    +0.000 A 
ATOM     22  C   UNL     1      -3.493  13.232  20.853  0.00  0.00    +0.000 A 
ATOM     23  C   UNL     1      -4.553  13.160  21.760  0.00  0.00    +0.000 A 
ATOM     24  C   UNL     1      -4.317  12.755  23.073  0.00  0.00    +0.000 A 
ATOM     25 CL   UNL     1      -5.622  12.689  24.193  0.00  0.00    +0.000 Cl
ATOM     26  C   UNL     1      -3.031  12.413  23.484  0.00  0.00    +0.000 A 
ATOM     27  C   UNL     1      -1.970  12.493  22.579  0.00  0.00    +0.000 A 
ENDBRANCH  20  21
ENDBRANCH   4  20
TORSDOF 4
ENDMDL
MODEL 3
REMARK VINA RESULT:      -7.1      6.653      8.693
REMARK  Name = 
REMARK  4 active torsions:
REMARK  status: ('A' for Active; 'I' for Inactive)
REMARK    1  A    between atoms: C_2  and  C_3
REMARK    2  A    between atoms: C_3  and  N_4
REMARK    3  A    between atoms: N_7  and  C_8
REMARK    4  A    between atoms: C_8  and  C_9
REMARK                            x       y       z     vdW  Elec       q    Type
REMARK                         _______ _______ _______ _____ _____    ______ ____
ROOT
ATOM      1  N   UNL     1       0.766   9.258  19.763  0.00  0.00    +0.000 N 
ATOM      2  C   UNL     1       1.230   8.495  20.901  0.00  0.00    +0.000 C 
ATOM      3  C   UNL     1       1.988   7.342  20.258  0.00  0.00    +0.000 C 
ATOM      4  N   UNL     1       2.278   7.837  18.931  0.00  0.00    +0.000 N 
ATOM      5  C   UNL     1       1.486   8.935  18.617  0.00  0.00    +0.000 C 
ATOM      6  O   UNL     1       1.458   9.529  17.553  0.00  0.00    +0.000 OA
ENDROOT
BRANCH   1   7
ATOM      7  C   UNL     1      -0.039  10.453  19.899  0.00  0.00    +0.000 C 
BRANCH   7   9
ATOM      8  O   UNL     1       0.494  11.461  22.040  0.00  0.00    +0.000 OA
ATOM      9  C   UNL     1       0.576  11.525  20.814  0.00  0.00    +0.000 C 
ATOM     10  N   UNL     1       1.256  12.566  20.173  0.00  0.00    +0.000 N 
ATOM     11  C   UNL     1       1.365  12.716  18.723  0.00  0.00    +0.000 C 
ATOM     12  C   UNL     1       2.776  13.132  18.330  0.00  0.00    +0.000 C 
ATOM     13  C   UNL     1       3.200  14.394  19.076  0.00  0.00    +0.000 C 
ATOM     14  C   UNL     1       3.036  14.225  20.586  0.00  0.00    +0.000 C 
ATOM     15  C   UNL     1       1.643  13.741  20.953  0.00  0.00    +0.000 C 
ATOM     16  O   UNL     1       2.406  15.496  18.606  0.00  0.00    +0.000 OA
ATOM     17  C   UNL     1       3.346  16.533  18.323  0.00  0.00    +0.000 C 
ATOM     18  C   UNL     1       4.589  15.785  17.930  0.00  0.00    +0.000 C 
ATOM     19  O   UNL     1       4.588  14.656  18.802  0.00  0.00    +0.000 OA
ENDBRANCH   7   9
ENDBRANCH   1   7
BRANCH   4  20
ATOM     20  C   UNL     1       3.282   7.270  18.059  0.00  0.00    +0.000 C 
BRANCH  20  21
ATOM     21  C   UNL     1       3.346   5.768  18.210  0.00  0.00    +0.000 A 
ATOM     22  C   UNL     1       4.492   5.147  18.727  0.00  0.00    +0.000 A 
ATOM     23  C   UNL     1       4.572   3.755  18.801  0.00  0.00    +0.000 A 
ATOM     24  C   UNL     1       3.505   2.974  18.359  0.00  0.00    +0.000 A 
ATOM     25 CL   UNL     1       3.616   1.258  18.431  0.00  0.00    +0.000 Cl
ATOM     26  C   UNL     1       2.355   3.575  17.852  0.00  0.00    +0.000 A 
ATOM     27  C   UNL     1       2.278   4.967  17.771  0.00  0.00    +0.000 A 
ENDBRANCH  20  21
ENDBRANCH   4  20
TORSDOF 4
ENDMDL
MODEL 4
REMARK VINA RESULT:      -6.9      4.852      7.206
REMARK  Name = 
REMARK  4 active torsions:
REMARK  status: ('A' for Active; 'I' for Inactive)
REMARK    1  A    between atoms: C_2  and  C_3
REMARK    2  A    between atoms: C_3  and  N_4
REMARK    3  A    between atoms: N_7  and  C_8
REMARK    4  A    between atoms: C_8  and  C_9
REMARK                            x       y       z     vdW  Elec       q    Type
REMARK                         _______ _______ _______ _____ _____    ______ ____
ROOT
ATOM      1  N   UNL     1       0.040  10.179  19.502  0.00  0.00    +0.000 N 
ATOM      2  C   UNL     1       0.038  10.034  20.941  0.00  0.00    +0.000 C 
ATOM      3  C   UNL     1       0.748   8.704  21.155  0.00  0.00    +0.000 C 
ATOM      4  N   UNL     1       1.473   8.515  19.920  0.00  0.00    +0.000 N 
ATOM      5  C   UNL     1       0.989   9.347  18.916  0.00  0.00    +0.000 C 
ATOM      6  O   UNL     1       1.357   9.373  17.755  0.00  0.00    +0.000 OA
ENDROOT
BRANCH   1   7
ATOM      7  C   UNL     1      -0.566  11.309  18.830  0.00  0.00    +0.000 C 
BRANCH   7   9
ATOM      8  O   UNL     1      -2.001  10.188  17.227  0.00  0.00    +0.000 OA
ATOM      9  C   UNL     1      -1.911  10.992  18.155  0.00  0.00    +0.000 C 
ATOM     10  N   UNL     1      -3.031  11.650  18.672  0.00  0.00    +0.000 N 
ATOM     11  C   UNL     1      -2.988  12.636  19.752  0.00  0.00    +0.000 C 
ATOM     12  C   UNL     1      -4.135  12.414  20.728  0.00  0.00    +0.000 C 
ATOM     13  C   UNL     1      -5.476  12.411  20.001  0.00  0.00    +0.000 C 
ATOM     14  C   UNL     1      -5.480  11.403  18.851  0.00  0.00    +0.000 C 
ATOM     15  C   UNL     1      -4.288  11.594  17.928  0.00  0.00    +0.000 C 
ATOM     16  O   UNL     1      -5.737  13.734  19.506  0.00  0.00    +0.000 OA
ATOM     17  C   UNL     1      -7.074  14.024  19.915  0.00  0.00    +0.000 C 
ATOM     18  C   UNL     1      -7.232  13.239  21.187  0.00  0.00    +0.000 C 
ATOM     19  O   UNL     1      -6.511  12.036  20.929  0.00  0.00    +0.000 OA
ENDBRANCH   7   9
ENDBRANCH   1   7
BRANCH   4  20
ATOM     20  C   UNL     1       2.575   7.593  19.763  0.00  0.00    +0.000 C 
BRANCH  20  21
ATOM     21  C   UNL     1       2.076   6.193  19.489  0.00  0.00    +0.000 A 
ATOM     22  C   UNL     1       1.630   5.373  20.535  0.00  0.00    +0.000 A 
ATOM     23  C   UNL     1       1.234   4.057  20.286  0.00  0.00    +0.000 A 
ATOM     24  C   UNL     1       1.279   3.554  18.986  0.00  0.00    +0.000 A 
ATOM     25 CL   UNL     1       0.811   1.925  18.685  0.00  0.00    +0.000 Cl
ATOM     26  C   UNL     1       1.709   4.358  17.934  0.00  0.00    +0.000 A 
ATOM     27  C   UNL     1       2.113   5.671  18.185  0.00  0.00    +0.000 A 
ENDBRANCH  20  21
ENDBRANCH   4  20
TORSDOF 4
ENDMDL
MODEL 5
REMARK VINA RESULT:      -6.9      6.787      9.003
REMARK  Name = 
REMARK  4 active torsions:
REMARK  status: ('A' for Active; 'I' for Inactive)
REMARK    1  A    between atoms: C_2  and  C_3
REMARK    2  A    between atoms: C_3  and  N_4
REMARK    3  A    between atoms: N_7  and  C_8
REMARK    4  A    between atoms: C_8  and  C_9
REMARK                            x       y       z     vdW  Elec       q    Type
REMARK                         _______ _______ _______ _____ _____    ______ ____
ROOT
ATOM      1  N   UNL     1       1.316   8.997  19.343  0.00  0.00    +0.000 N 
ATOM      2  C   UNL     1       1.719   8.850  17.962  0.00  0.00    +0.000 C 
ATOM      3  C   UNL     1       2.793   7.774  18.027  0.00  0.00    +0.000 C 
ATOM      4  N   UNL     1       2.527   7.119  19.287  0.00  0.00    +0.000 N 
ATOM      5  C   UNL     1       1.705   7.895  20.097  0.00  0.00    +0.000 C 
ATOM      6  O   UNL     1       1.358   7.638  21.237  0.00  0.00    +0.000 OA
ENDROOT
BRANCH   1   7
ATOM      7  C   UNL     1       0.313   9.951  19.767  0.00  0.00    +0.000 C 
BRANCH   7   9
ATOM      8  O   UNL     1       0.904  10.893  21.923  0.00  0.00    +0.000 OA
ATOM      9  C   UNL     1       0.846  11.048  20.703  0.00  0.00    +0.000 C 
ATOM     10  N   UNL     1       1.284  12.225  20.087  0.00  0.00    +0.000 N 
ATOM     11  C   UNL     1       1.215  12.483  18.649  0.00  0.00    +0.000 C 
ATOM     12  C   UNL     1       2.495  13.148  18.161  0.00  0.00    +0.000 C 
ATOM     13  C   UNL     1       2.792  14.412  18.962  0.00  0.00    +0.000 C 
ATOM     14  C   UNL     1       2.816  14.123  20.463  0.00  0.00    +0.000 C 
ATOM     15  C   UNL     1       1.562  13.395  20.919  0.00  0.00    +0.000 C 
ATOM     16  O   UNL     1       1.791  15.398  18.659  0.00  0.00    +0.000 OA
ATOM     17  C   UNL     1       2.523  16.589  18.373  0.00  0.00    +0.000 C 
ATOM     18  C   UNL     1       3.819  16.081  17.807  0.00  0.00    +0.000 C 
ATOM     19  O   UNL     1       4.086  14.914  18.582  0.00  0.00    +0.000 OA
ENDBRANCH   7   9
ENDBRANCH   1   7
BRANCH   4  20
ATOM     20  C   UNL     1       3.035   5.813  19.642  0.00  0.00    +0.000 C 
BRANCH  20  21
ATOM     21  C   UNL     1       3.927   5.264  18.553  0.00  0.00    +0.000 A 
ATOM     22  C   UNL     1       5.282   5.617  18.489  0.00  0.00    +0.000 A 
ATOM     23  C   UNL     1       6.085   5.161  17.441  0.00  0.00    +0.000 A 
ATOM     24  C   UNL     1       5.538   4.346  16.452  0.00  0.00    +0.000 A 
ATOM     25 CL   UNL     1       6.525   3.804  15.150  0.00  0.00    +0.000 Cl
ATOM     26  C   UNL     1       4.196   3.977  16.506  0.00  0.00    +0.000 A 
ATOM     27  C   UNL     1       3.391   4.440  17.549  0.00  0.00    +0.000 A 
ENDBRANCH  20  21
ENDBRANCH   4  20
TORSDOF 4
ENDMDL
MODEL 6
REMARK VINA RESULT:      -6.9      3.872      5.961
REMARK  Name = 
REMARK  4 active torsions:
REMARK  status: ('A' for Active; 'I' for Inactive)
REMARK    1  A    between atoms: C_2  and  C_3
REMARK    2  A    between atoms: C_3  and  N_4
REMARK    3  A    between atoms: N_7  and  C_8
REMARK    4  A    between atoms: C_8  and  C_9
REMARK                            x       y       z     vdW  Elec       q    Type
REMARK                         _______ _______ _______ _____ _____    ______ ____
ROOT
ATOM      1  N   UNL     1      -0.462  11.870  19.266  0.00  0.00    +0.000 N 
ATOM      2  C   UNL     1      -1.351  10.785  18.913  0.00  0.00    +0.000 C 
ATOM      3  C   UNL     1      -0.501   9.930  17.982  0.00  0.00    +0.000 C 
ATOM      4  N   UNL     1       0.849  10.335  18.304  0.00  0.00    +0.000 N 
ATOM      5  C   UNL     1       0.863  11.537  19.004  0.00  0.00    +0.000 C 
ATOM      6  O   UNL     1       1.849  12.159  19.358  0.00  0.00    +0.000 OA
ENDROOT
BRANCH   1   7
ATOM      7  C   UNL     1      -0.864  12.959  20.130  0.00  0.00    +0.000 C 
BRANCH   7   9
ATOM      8  O   UNL     1      -0.252  12.145  22.332  0.00  0.00    +0.000 OA
ATOM      9  C   UNL     1      -1.146  12.539  21.582  0.00  0.00    +0.000 C 
ATOM     10  N   UNL     1      -2.471  12.654  22.011  0.00  0.00    +0.000 N 
ATOM     11  C   UNL     1      -3.582  13.087  21.164  0.00  0.00    +0.000 C 
ATOM     12  C   UNL     1      -4.494  14.043  21.920  0.00  0.00    +0.000 C 
ATOM     13  C   UNL     1      -4.973  13.419  23.228  0.00  0.00    +0.000 C 
ATOM     14  C   UNL     1      -3.795  12.937  24.075  0.00  0.00    +0.000 C 
ATOM     15  C   UNL     1      -2.858  12.042  23.282  0.00  0.00    +0.000 C 
ATOM     16  O   UNL     1      -5.851  12.323  22.923  0.00  0.00    +0.000 OA
ATOM     17  C   UNL     1      -6.999  12.531  23.745  0.00  0.00    +0.000 C 
ATOM     18  C   UNL     1      -7.063  14.026  23.892  0.00  0.00    +0.000 C 
ATOM     19  O   UNL     1      -5.693  14.410  23.984  0.00  0.00    +0.000 OA
ENDBRANCH   7   9
ENDBRANCH   1   7
BRANCH   4  20
ATOM     20  C   UNL     1       2.025   9.571  17.959  0.00  0.00    +0.000 C 
BRANCH  20  21
ATOM     21  C   UNL     1       2.080   8.277  18.738  0.00  0.00    +0.000 A 
ATOM     22  C   UNL     1       2.473   7.083  18.118  0.00  0.00    +0.000 A 
ATOM     23  C   UNL     1       2.456   5.878  18.825  0.00  0.00    +0.000 A 
ATOM     24  C   UNL     1       2.049   5.861  20.158  0.00  0.00    +0.000 A 
ATOM     25 CL   UNL     1       2.009   4.372  21.020  0.00  0.00    +0.000 Cl
ATOM     26  C   UNL     1       1.665   7.040  20.792  0.00  0.00    +0.000 A 
ATOM     27  C   UNL     1       1.674   8.244  20.082  0.00  0.00    +0.000 A 
ENDBRANCH  20  21
ENDBRANCH   4  20
TORSDOF 4
ENDMDL
MODEL 7
REMARK VINA RESULT:      -6.9      7.729     10.061
REMARK  Name = 
REMARK  4 active torsions:
REMARK  status: ('A' for Active; 'I' for Inactive)
REMARK    1  A    between atoms: C_2  and  C_3
REMARK    2  A    between atoms: C_3  and  N_4
REMARK    3  A    between atoms: N_7  and  C_8
REMARK    4  A    between atoms: C_8  and  C_9
REMARK                            x       y       z     vdW  Elec       q    Type
REMARK                         _______ _______ _______ _____ _____    ______ ____
ROOT
ATOM      1  N   UNL     1       2.566   5.924  18.855  0.00  0.00    +0.000 N 
ATOM      2  C   UNL     1       1.602   4.906  18.499  0.00  0.00    +0.000 C 
ATOM      3  C   UNL     1       2.391   3.990  17.575  0.00  0.00    +0.000 C 
ATOM      4  N   UNL     1       3.765   4.295  17.904  0.00  0.00    +0.000 N 
ATOM      5  C   UNL     1       3.864   5.494  18.601  0.00  0.00    +0.000 C 
ATOM      6  O   UNL     1       4.891   6.042  18.960  0.00  0.00    +0.000 OA
ENDROOT
BRANCH   1   7
ATOM      7  C   UNL     1       2.240   7.042  19.715  0.00  0.00    +0.000 C 
BRANCH   7   9
ATOM      8  O   UNL     1       1.956   8.423  17.741  0.00  0.00    +0.000 OA
ATOM      9  C   UNL     1       1.827   8.316  18.961  0.00  0.00    +0.000 C 
ATOM     10  N   UNL     1       1.273   9.339  19.736  0.00  0.00    +0.000 N 
ATOM     11  C   UNL     1       1.120   9.288  21.190  0.00  0.00    +0.000 C 
ATOM     12  C   UNL     1      -0.235   9.844  21.608  0.00  0.00    +0.000 C 
ATOM     13  C   UNL     1      -0.440  11.252  21.054  0.00  0.00    +0.000 C 
ATOM     14  C   UNL     1      -0.232  11.286  19.540  0.00  0.00    +0.000 C 
ATOM     15  C   UNL     1       1.093  10.661  19.137  0.00  0.00    +0.000 C 
ATOM     16  O   UNL     1       0.480  12.143  21.705  0.00  0.00    +0.000 OA
ATOM     17  C   UNL     1      -0.315  13.253  22.121  0.00  0.00    +0.000 C 
ATOM     18  C   UNL     1      -1.669  12.647  22.366  0.00  0.00    +0.000 C 
ATOM     19  O   UNL     1      -1.788  11.672  21.331  0.00  0.00    +0.000 OA
ENDBRANCH   7   9
ENDBRANCH   1   7
BRANCH   4  20
ATOM     20  C   UNL     1       4.884   3.445  17.567  0.00  0.00    +0.000 C 
BRANCH  20  21
ATOM     21  C   UNL     1       5.608   3.961  16.344  0.00  0.00    +0.000 A 
ATOM     22  C   UNL     1       5.110   3.710  15.057  0.00  0.00    +0.000 A 
ATOM     23  C   UNL     1       5.818   4.130  13.929  0.00  0.00    +0.000 A 
ATOM     24  C   UNL     1       7.028   4.806  14.080  0.00  0.00    +0.000 A 
ATOM     25 CL   UNL     1       7.908   5.302  12.688  0.00  0.00    +0.000 Cl
ATOM     26  C   UNL     1       7.531   5.072  15.351  0.00  0.00    +0.000 A 
ATOM     27  C   UNL     1       6.827   4.645  16.480  0.00  0.00    +0.000 A 
ENDBRANCH  20  21
ENDBRANCH   4  20
TORSDOF 4
ENDMDL
MODEL 8
REMARK VINA RESULT:      -6.7      5.564      7.445
REMARK  Name = 
REMARK  4 active torsions:
REMARK  status: ('A' for Active; 'I' for Inactive)
REMARK    1  A    between atoms: C_2  and  C_3
REMARK    2  A    between atoms: C_3  and  N_4
REMARK    3  A    between atoms: N_7  and  C_8
REMARK    4  A    between atoms: C_8  and  C_9
REMARK                            x       y       z     vdW  Elec       q    Type
REMARK                         _______ _______ _______ _____ _____    ______ ____
ROOT
ATOM      1  N   UNL     1       1.092   9.621  19.706  0.00  0.00    +0.000 N 
ATOM      2  C   UNL     1       1.315   8.648  20.753  0.00  0.00    +0.000 C 
ATOM      3  C   UNL     1       1.856   7.443  19.995  0.00  0.00    +0.000 C 
ATOM      4  N   UNL     1       2.325   8.017  18.755  0.00  0.00    +0.000 N 
ATOM      5  C   UNL     1       1.799   9.289  18.555  0.00  0.00    +0.000 C 
ATOM      6  O   UNL     1       1.962   9.996  17.576  0.00  0.00    +0.000 OA
ENDROOT
BRANCH   1   7
ATOM      7  C   UNL     1       0.546  10.935  19.966  0.00  0.00    +0.000 C 
BRANCH   7   9
ATOM      8  O   UNL     1      -1.245  10.656  18.353  0.00  0.00    +0.000 OA
ATOM      9  C   UNL     1      -0.878  11.144  19.423  0.00  0.00    +0.000 C 
ATOM     10  N   UNL     1      -1.739  11.899  20.224  0.00  0.00    +0.000 N 
ATOM     11  C   UNL     1      -1.357  12.529  21.487  0.00  0.00    +0.000 C 
ATOM     12  C   UNL     1      -2.452  12.350  22.530  0.00  0.00    +0.000 C 
ATOM     13  C   UNL     1      -3.791  12.864  22.008  0.00  0.00    +0.000 C 
ATOM     14  C   UNL     1      -4.146  12.222  20.668  0.00  0.00    +0.000 C 
ATOM     15  C   UNL     1      -3.013  12.348  19.662  0.00  0.00    +0.000 C 
ATOM     16  O   UNL     1      -3.717  14.293  21.875  0.00  0.00    +0.000 OA
ATOM     17  C   UNL     1      -4.894  14.784  22.515  0.00  0.00    +0.000 C 
ATOM     18  C   UNL     1      -5.171  13.760  23.579  0.00  0.00    +0.000 C 
ATOM     19  O   UNL     1      -4.823  12.527  22.954  0.00  0.00    +0.000 OA
ENDBRANCH   7   9
ENDBRANCH   1   7
BRANCH   4  20
ATOM     20  C   UNL     1       3.242   7.356  17.854  0.00  0.00    +0.000 C 
BRANCH  20  21
ATOM     21  C   UNL     1       3.268   5.866  18.104  0.00  0.00    +0.000 A 
ATOM     22  C   UNL     1       4.422   5.242  18.599  0.00  0.00    +0.000 A 
ATOM     23  C   UNL     1       4.464   3.856  18.764  0.00  0.00    +0.000 A 
ATOM     24  C   UNL     1       3.350   3.084  18.438  0.00  0.00    +0.000 A 
ATOM     25 CL   UNL     1       3.411   1.374  18.621  0.00  0.00    +0.000 Cl
ATOM     26  C   UNL     1       2.192   3.689  17.955  0.00  0.00    +0.000 A 
ATOM     27  C   UNL     1       2.153   5.075  17.782  0.00  0.00    +0.000 A 
ENDBRANCH  20  21
ENDBRANCH   4  20
TORSDOF 4
ENDMDL
MODEL 9
REMARK VINA RESULT:      -6.7      4.915      6.933
REMARK  Name = 
REMARK  4 active torsions:
REMARK  status: ('A' for Active; 'I' for Inactive)
REMARK    1  A    between atoms: C_2  and  C_3
REMARK    2  A    between atoms: C_3  and  N_4
REMARK    3  A    between atoms: N_7  and  C_8
REMARK    4  A    between atoms: C_8  and  C_9
REMARK                            x       y       z     vdW  Elec       q    Type
REMARK                         _______ _______ _______ _____ _____    ______ ____
ROOT
ATOM      1  N   UNL     1       0.301   9.810  19.315  0.00  0.00    +0.000 N 
ATOM      2  C   UNL     1       0.522   9.659  17.894  0.00  0.00    +0.000 C 
ATOM      3  C   UNL     1       1.867   8.948  17.827  0.00  0.00    +0.000 C 
ATOM      4  N   UNL     1       1.995   8.363  19.142  0.00  0.00    +0.000 N 
ATOM      5  C   UNL     1       1.108   8.941  20.043  0.00  0.00    +0.000 C 
ATOM      6  O   UNL     1       1.023   8.701  21.234  0.00  0.00    +0.000 OA
ENDROOT
BRANCH   1   7
ATOM      7  C   UNL     1      -0.867  10.470  19.858  0.00  0.00    +0.000 C 
BRANCH   7   9
ATOM      8  O   UNL     1      -0.582  12.630  18.792  0.00  0.00    +0.000 OA
ATOM      9  C   UNL     1      -0.791  12.006  19.832  0.00  0.00    +0.000 C 
ATOM     10  N   UNL     1      -0.997  12.654  21.053  0.00  0.00    +0.000 N 
ATOM     11  C   UNL     1      -1.221  11.972  22.327  0.00  0.00    +0.000 C 
ATOM     12  C   UNL     1      -2.322  12.661  23.121  0.00  0.00    +0.000 C 
ATOM     13  C   UNL     1      -2.013  14.145  23.306  0.00  0.00    +0.000 C 
ATOM     14  C   UNL     1      -1.742  14.824  21.964  0.00  0.00    +0.000 C 
ATOM     15  C   UNL     1      -0.692  14.081  21.155  0.00  0.00    +0.000 C 
ATOM     16  O   UNL     1      -0.875  14.275  24.172  0.00  0.00    +0.000 OA
ATOM     17  C   UNL     1      -1.263  15.242  25.147  0.00  0.00    +0.000 C 
ATOM     18  C   UNL     1      -2.751  15.059  25.254  0.00  0.00    +0.000 C 
ATOM     19  O   UNL     1      -3.150  14.787  23.912  0.00  0.00    +0.000 OA
ENDBRANCH   7   9
ENDBRANCH   1   7
BRANCH   4  20
ATOM     20  C   UNL     1       2.917   7.297  19.465  0.00  0.00    +0.000 C 
BRANCH  20  21
ATOM     21  C   UNL     1       2.265   5.945  19.290  0.00  0.00    +0.000 A 
ATOM     22  C   UNL     1       1.723   5.262  20.388  0.00  0.00    +0.000 A 
ATOM     23  C   UNL     1       1.184   3.983  20.232  0.00  0.00    +0.000 A 
ATOM     24  C   UNL     1       1.180   3.380  18.975  0.00  0.00    +0.000 A 
ATOM     25 CL   UNL     1       0.535   1.795  18.789  0.00  0.00    +0.000 Cl
ATOM     26  C   UNL     1       1.706   4.049  17.872  0.00  0.00    +0.000 A 
ATOM     27  C   UNL     1       2.253   5.324  18.030  0.00  0.00    +0.000 A 
ENDBRANCH  20  21
ENDBRANCH   4  20
TORSDOF 4
ENDMDL
