MODEL 1
REMARK VINA RESULT:      -8.7      0.000      0.000
REMARK  Name = 
REMARK  8 active torsions:
REMARK  status: ('A' for Active; 'I' for Inactive)
REMARK    1  A    between atoms: C_1  and  O_2
REMARK    2  A    between atoms: O_2  and  C_3
REMARK    3  A    between atoms: C_7  and  O_8
REMARK    4  A    between atoms: O_8  and  C_9
REMARK    5  A    between atoms: C_13  and  C_15
REMARK    6  A    between atoms: C_18  and  C_19
REMARK    7  A    between atoms: C_22  and  N_23
REMARK    8  A    between atoms: C_30  and  C_31
REMARK                            x       y       z     vdW  Elec       q    Type
REMARK                         _______ _______ _______ _____ _____    ______ ____
ROOT
ATOM      1  C   UNL     1       2.170   7.021  19.991  0.00  0.00    +0.000 A 
ATOM      2  C   UNL     1       2.227   8.010  19.007  0.00  0.00    +0.000 A 
ATOM      3  C   UNL     1       1.476   9.179  19.151  0.00  0.00    +0.000 A 
ATOM      4  C   UNL     1       0.632   9.383  20.264  0.00  0.00    +0.000 A 
ATOM      5  C   UNL     1       0.535   8.339  21.194  0.00  0.00    +0.000 A 
ATOM      6  C   UNL     1       1.277   7.165  21.053  0.00  0.00    +0.000 A 
ENDROOT
BRANCH   1  11
ATOM      7  C   UNL     1       5.841   5.279  16.578  0.00  0.00    +0.000 C 
ATOM      8  C   UNL     1       5.909   4.467  17.876  0.00  0.00    +0.000 C 
ATOM      9  C   UNL     1       4.604   4.427  18.659  0.00  0.00    +0.000 C 
ATOM     10  N   UNL     1       3.959   5.730  18.795  0.00  0.00    +0.000 N 
ATOM     11  C   UNL     1       3.013   5.813  19.837  0.00  0.00    +0.000 C 
ATOM     12  O   UNL     1       2.832   4.902  20.645  0.00  0.00    +0.000 OA
ATOM     13  C   UNL     1       3.846   6.491  17.547  0.00  0.00    +0.000 C 
ATOM     14  C   UNL     1       5.197   6.638  16.858  0.00  0.00    +0.000 C 
BRANCH   7  15
ATOM     15  O   UNL     1       5.111   4.554  15.576  0.00  0.00    +0.000 OA
BRANCH  15  20
ATOM     16  C   UNL     1       5.994   3.291  12.180  0.00  0.00    +0.000 A 
ATOM     17  C   UNL     1       7.170   4.015  11.974  0.00  0.00    +0.000 A 
ATOM     18  C   UNL     1       7.631   4.882  12.964  0.00  0.00    +0.000 A 
ATOM     19  C   UNL     1       6.921   5.029  14.161  0.00  0.00    +0.000 A 
ATOM     20  C   UNL     1       5.726   4.331  14.365  0.00  0.00    +0.000 A 
ATOM     21  C   UNL     1       5.265   3.476  13.361  0.00  0.00    +0.000 A 
BRANCH  16  23
ATOM     22  C   UNL     1       6.197   1.135  11.250  0.00  0.00    +0.000 C 
ATOM     23  O   UNL     1       5.640   2.443  11.168  0.00  0.00    +0.000 OA
ENDBRANCH  16  23
ENDBRANCH  15  20
ENDBRANCH   7  15
ENDBRANCH   1  11
BRANCH   4  24
ATOM     24  C   UNL     1      -0.175  10.622  20.385  0.00  0.00    +0.000 A 
ATOM     25  C   UNL     1       0.084  11.466  21.481  0.00  0.00    +0.000 A 
ATOM     26  C   UNL     1      -0.642  12.635  21.712  0.00  0.00    +0.000 A 
ATOM     27  C   UNL     1      -1.659  13.027  20.849  0.00  0.00    +0.000 A 
ATOM     28  C   UNL     1      -1.900  12.223  19.728  0.00  0.00    +0.000 A 
ATOM     29  C   UNL     1      -1.189  11.021  19.485  0.00  0.00    +0.000 A 
ATOM     30  C   UNL     1      -1.568  10.254  18.242  0.00  0.00    +0.000 C 
BRANCH  27  31
ATOM     31  N   UNL     1      -2.424  14.197  21.086  0.00  0.00    +0.000 N 
ATOM     32  C   UNL     1      -2.072  15.481  20.532  0.00  0.00    +0.000 C 
ATOM     33  C   UNL     1      -2.931  16.464  21.296  0.00  0.00    +0.000 C 
ATOM     34  C   UNL     1      -4.181  15.669  21.613  0.00  0.00    +0.000 C 
ATOM     35  C   UNL     1      -3.673  14.253  21.725  0.00  0.00    +0.000 C 
ATOM     36  O   UNL     1      -4.329  13.358  22.236  0.00  0.00    +0.000 OA
ENDBRANCH  27  31
ENDBRANCH   4  24
TORSDOF 6
ENDMDL
MODEL 2
REMARK VINA RESULT:      -8.6      2.847     12.806
REMARK  Name = 
REMARK  8 active torsions:
REMARK  status: ('A' for Active; 'I' for Inactive)
REMARK    1  A    between atoms: C_1  and  O_2
REMARK    2  A    between atoms: O_2  and  C_3
REMARK    3  A    between atoms: C_7  and  O_8
REMARK    4  A    between atoms: O_8  and  C_9
REMARK    5  A    between atoms: C_13  and  C_15
REMARK    6  A    between atoms: C_18  and  C_19
REMARK    7  A    between atoms: C_22  and  N_23
REMARK    8  A    between atoms: C_30  and  C_31
REMARK                            x       y       z     vdW  Elec       q    Type
REMARK                         _______ _______ _______ _____ _____    ______ ____
ROOT
ATOM      1  C   UNL     1      -0.381  13.365  19.749  0.00  0.00    +0.000 A 
ATOM      2  C   UNL     1       0.993  13.198  19.933  0.00  0.00    +0.000 A 
ATOM      3  C   UNL     1       1.579  11.951  19.701  0.00  0.00    +0.000 A 
ATOM      4  C   UNL     1       0.810  10.834  19.307  0.00  0.00    +0.000 A 
ATOM      5  C   UNL     1      -0.576  11.014  19.208  0.00  0.00    +0.000 A 
ATOM      6  C   UNL     1      -1.170  12.256  19.444  0.00  0.00    +0.000 A 
ENDROOT
BRANCH   1  11
ATOM      7  C   UNL     1      -4.018  15.550  22.937  0.00  0.00    +0.000 C 
ATOM      8  C   UNL     1      -3.157  16.646  22.301  0.00  0.00    +0.000 C 
ATOM      9  C   UNL     1      -2.524  16.253  20.973  0.00  0.00    +0.000 C 
ATOM     10  N   UNL     1      -1.906  14.930  20.984  0.00  0.00    +0.000 N 
ATOM     11  C   UNL     1      -0.969  14.710  19.955  0.00  0.00    +0.000 C 
ATOM     12  O   UNL     1      -0.607  15.598  19.182  0.00  0.00    +0.000 OA
ATOM     13  C   UNL     1      -2.743  13.867  21.548  0.00  0.00    +0.000 C 
ATOM     14  C   UNL     1      -3.246  14.229  22.939  0.00  0.00    +0.000 C 
BRANCH   7  15
ATOM     15  O   UNL     1      -5.263  15.423  22.233  0.00  0.00    +0.000 OA
BRANCH  15  20
ATOM     16  C   UNL     1      -7.271  12.282  22.317  0.00  0.00    +0.000 A 
ATOM     17  C   UNL     1      -7.914  12.463  23.543  0.00  0.00    +0.000 A 
ATOM     18  C   UNL     1      -7.668  13.615  24.289  0.00  0.00    +0.000 A 
ATOM     19  C   UNL     1      -6.783  14.588  23.814  0.00  0.00    +0.000 A 
ATOM     20  C   UNL     1      -6.111  14.404  22.601  0.00  0.00    +0.000 A 
ATOM     21  C   UNL     1      -6.353  13.238  21.868  0.00  0.00    +0.000 A 
BRANCH  16  23
ATOM     22  C   UNL     1      -7.024  11.009  20.348  0.00  0.00    +0.000 C 
ATOM     23  O   UNL     1      -7.601  11.139  21.643  0.00  0.00    +0.000 OA
ENDBRANCH  16  23
ENDBRANCH  15  20
ENDBRANCH   7  15
ENDBRANCH   1  11
BRANCH   4  24
ATOM     24  C   UNL     1       1.449   9.514  19.089  0.00  0.00    +0.000 A 
ATOM     25  C   UNL     1       2.037   9.270  17.834  0.00  0.00    +0.000 A 
ATOM     26  C   UNL     1       2.631   8.050  17.510  0.00  0.00    +0.000 A 
ATOM     27  C   UNL     1       2.677   7.011  18.432  0.00  0.00    +0.000 A 
ATOM     28  C   UNL     1       2.137   7.251  19.703  0.00  0.00    +0.000 A 
ATOM     29  C   UNL     1       1.513   8.476  20.046  0.00  0.00    +0.000 A 
ATOM     30  C   UNL     1       0.967   8.583  21.449  0.00  0.00    +0.000 C 
BRANCH  27  31
ATOM     31  N   UNL     1       3.251   5.756  18.109  0.00  0.00    +0.000 N 
ATOM     32  C   UNL     1       2.680   4.505  18.545  0.00  0.00    +0.000 C 
ATOM     33  C   UNL     1       3.766   3.487  18.276  0.00  0.00    +0.000 C 
ATOM     34  C   UNL     1       4.484   4.046  17.065  0.00  0.00    +0.000 C 
ATOM     35  C   UNL     1       4.315   5.537  17.219  0.00  0.00    +0.000 C 
ATOM     36  O   UNL     1       4.982   6.343  16.588  0.00  0.00    +0.000 OA
ENDBRANCH  27  31
ENDBRANCH   4  24
TORSDOF 6
ENDMDL
MODEL 3
REMARK VINA RESULT:      -8.6      1.242      1.615
REMARK  Name = 
REMARK  8 active torsions:
REMARK  status: ('A' for Active; 'I' for Inactive)
REMARK    1  A    between atoms: C_1  and  O_2
REMARK    2  A    between atoms: O_2  and  C_3
REMARK    3  A    between atoms: C_7  and  O_8
REMARK    4  A    between atoms: O_8  and  C_9
REMARK    5  A    between atoms: C_13  and  C_15
REMARK    6  A    between atoms: C_18  and  C_19
REMARK    7  A    between atoms: C_22  and  N_23
REMARK    8  A    between atoms: C_30  and  C_31
REMARK                            x       y       z     vdW  Elec       q    Type
REMARK                         _______ _______ _______ _____ _____    ______ ____
ROOT
ATOM      1  C   UNL     1       2.026   7.549  19.803  0.00  0.00    +0.000 A 
ATOM      2  C   UNL     1       1.508   7.980  21.026  0.00  0.00    +0.000 A 
ATOM      3  C   UNL     1       0.866   9.218  21.112  0.00  0.00    +0.000 A 
ATOM      4  C   UNL     1       0.746  10.068  19.991  0.00  0.00    +0.000 A 
ATOM      5  C   UNL     1       1.345   9.642  18.797  0.00  0.00    +0.000 A 
ATOM      6  C   UNL     1       1.994   8.409  18.705  0.00  0.00    +0.000 A 
ENDROOT
BRANCH   1  11
ATOM      7  C   UNL     1       5.678   5.158  16.785  0.00  0.00    +0.000 C 
ATOM      8  C   UNL     1       5.467   4.362  18.077  0.00  0.00    +0.000 C 
ATOM      9  C   UNL     1       4.099   4.557  18.717  0.00  0.00    +0.000 C 
ATOM     10  N   UNL     1       3.679   5.954  18.793  0.00  0.00    +0.000 N 
ATOM     11  C   UNL     1       2.658   6.211  19.730  0.00  0.00    +0.000 C 
ATOM     12  O   UNL     1       2.238   5.354  20.508  0.00  0.00    +0.000 OA
ATOM     13  C   UNL     1       3.833   6.709  17.546  0.00  0.00    +0.000 C 
ATOM     14  C   UNL     1       5.253   6.611  17.004  0.00  0.00    +0.000 C 
BRANCH   7  15
ATOM     15  O   UNL     1       4.943   4.560  15.706  0.00  0.00    +0.000 OA
BRANCH  15  20
ATOM     16  C   UNL     1       5.945   3.330  12.331  0.00  0.00    +0.000 A 
ATOM     17  C   UNL     1       7.136   4.043  12.180  0.00  0.00    +0.000 A 
ATOM     18  C   UNL     1       7.567   4.892  13.199  0.00  0.00    +0.000 A 
ATOM     19  C   UNL     1       6.812   5.032  14.368  0.00  0.00    +0.000 A 
ATOM     20  C   UNL     1       5.603   4.345  14.518  0.00  0.00    +0.000 A 
ATOM     21  C   UNL     1       5.172   3.507  13.485  0.00  0.00    +0.000 A 
BRANCH  16  23
ATOM     22  C   UNL     1       6.463   1.358  11.148  0.00  0.00    +0.000 C 
ATOM     23  O   UNL     1       5.623   2.498  11.295  0.00  0.00    +0.000 OA
ENDBRANCH  16  23
ENDBRANCH  15  20
ENDBRANCH   7  15
ENDBRANCH   1  11
BRANCH   4  24
ATOM     24  C   UNL     1       0.082  11.389  20.110  0.00  0.00    +0.000 A 
ATOM     25  C   UNL     1       0.704  12.364  20.913  0.00  0.00    +0.000 A 
ATOM     26  C   UNL     1       0.146  13.625  21.125  0.00  0.00    +0.000 A 
ATOM     27  C   UNL     1      -1.060  13.982  20.533  0.00  0.00    +0.000 A 
ATOM     28  C   UNL     1      -1.670  13.040  19.694  0.00  0.00    +0.000 A 
ATOM     29  C   UNL     1      -1.131  11.747  19.481  0.00  0.00    +0.000 A 
ATOM     30  C   UNL     1      -1.908  10.838  18.559  0.00  0.00    +0.000 C 
BRANCH  27  31
ATOM     31  N   UNL     1      -1.653  15.248  20.761  0.00  0.00    +0.000 N 
ATOM     32  C   UNL     1      -2.459  15.531  21.923  0.00  0.00    +0.000 C 
ATOM     33  C   UNL     1      -3.142  16.840  21.593  0.00  0.00    +0.000 C 
ATOM     34  C   UNL     1      -2.138  17.550  20.709  0.00  0.00    +0.000 C 
ATOM     35  C   UNL     1      -1.422  16.416  20.016  0.00  0.00    +0.000 C 
ATOM     36  O   UNL     1      -0.728  16.585  19.025  0.00  0.00    +0.000 OA
ENDBRANCH  27  31
ENDBRANCH   4  24
TORSDOF 6
ENDMDL
MODEL 4
REMARK VINA RESULT:      -8.6      1.543      1.760
REMARK  Name = 
REMARK  8 active torsions:
REMARK  status: ('A' for Active; 'I' for Inactive)
REMARK    1  A    between atoms: C_1  and  O_2
REMARK    2  A    between atoms: O_2  and  C_3
REMARK    3  A    between atoms: C_7  and  O_8
REMARK    4  A    between atoms: O_8  and  C_9
REMARK    5  A    between atoms: C_13  and  C_15
REMARK    6  A    between atoms: C_18  and  C_19
REMARK    7  A    between atoms: C_22  and  N_23
REMARK    8  A    between atoms: C_30  and  C_31
REMARK                            x       y       z     vdW  Elec       q    Type
REMARK                         _______ _______ _______ _____ _____    ______ ____
ROOT
ATOM      1  C   UNL     1       2.010   7.454  19.996  0.00  0.00    +0.000 A 
ATOM      2  C   UNL     1       2.036   8.197  18.814  0.00  0.00    +0.000 A 
ATOM      3  C   UNL     1       1.473   9.476  18.784  0.00  0.00    +0.000 A 
ATOM      4  C   UNL     1       0.850  10.037  19.919  0.00  0.00    +0.000 A 
ATOM      5  C   UNL     1       0.770   9.236  21.067  0.00  0.00    +0.000 A 
ATOM      6  C   UNL     1       1.324   7.954  21.103  0.00  0.00    +0.000 A 
ENDROOT
BRANCH   1  11
ATOM      7  C   UNL     1       5.754   4.937  17.203  0.00  0.00    +0.000 C 
ATOM      8  C   UNL     1       5.521   4.212  18.532  0.00  0.00    +0.000 C 
ATOM      9  C   UNL     1       4.137   4.429  19.129  0.00  0.00    +0.000 C 
ATOM     10  N   UNL     1       3.702   5.823  19.116  0.00  0.00    +0.000 N 
ATOM     11  C   UNL     1       2.656   6.121  20.013  0.00  0.00    +0.000 C 
ATOM     12  O   UNL     1       2.226   5.305  20.829  0.00  0.00    +0.000 OA
ATOM     13  C   UNL     1       3.878   6.508  17.832  0.00  0.00    +0.000 C 
ATOM     14  C   UNL     1       5.311   6.395  17.330  0.00  0.00    +0.000 C 
BRANCH   7  15
ATOM     15  O   UNL     1       5.050   4.270  16.143  0.00  0.00    +0.000 OA
BRANCH  15  20
ATOM     16  C   UNL     1       5.839   3.566  12.567  0.00  0.00    +0.000 A 
ATOM     17  C   UNL     1       7.057   4.242  12.471  0.00  0.00    +0.000 A 
ATOM     18  C   UNL     1       7.575   4.895  13.590  0.00  0.00    +0.000 A 
ATOM     19  C   UNL     1       6.880   4.874  14.804  0.00  0.00    +0.000 A 
ATOM     20  C   UNL     1       5.645   4.225  14.903  0.00  0.00    +0.000 A 
ATOM     21  C   UNL     1       5.128   3.586  13.772  0.00  0.00    +0.000 A 
BRANCH  16  23
ATOM     22  C   UNL     1       4.065   3.129  11.078  0.00  0.00    +0.000 C 
ATOM     23  O   UNL     1       5.430   2.928  11.429  0.00  0.00    +0.000 OA
ENDBRANCH  16  23
ENDBRANCH  15  20
ENDBRANCH   7  15
ENDBRANCH   1  11
BRANCH   4  24
ATOM     24  C   UNL     1       0.238  11.386  19.858  0.00  0.00    +0.000 A 
ATOM     25  C   UNL     1       0.948  12.454  20.439  0.00  0.00    +0.000 A 
ATOM     26  C   UNL     1       0.448  13.755  20.472  0.00  0.00    +0.000 A 
ATOM     27  C   UNL     1      -0.788  14.060  19.914  0.00  0.00    +0.000 A 
ATOM     28  C   UNL     1      -1.490  13.019  19.291  0.00  0.00    +0.000 A 
ATOM     29  C   UNL     1      -1.009  11.686  19.264  0.00  0.00    +0.000 A 
ATOM     30  C   UNL     1      -1.880  10.670  18.566  0.00  0.00    +0.000 C 
BRANCH  27  31
ATOM     31  N   UNL     1      -1.324  15.371  19.964  0.00  0.00    +0.000 N 
ATOM     32  C   UNL     1      -2.296  15.777  20.950  0.00  0.00    +0.000 C 
ATOM     33  C   UNL     1      -2.820  17.098  20.433  0.00  0.00    +0.000 C 
ATOM     34  C   UNL     1      -1.633  17.688  19.701  0.00  0.00    +0.000 C 
ATOM     35  C   UNL     1      -0.889  16.472  19.208  0.00  0.00    +0.000 C 
ATOM     36  O   UNL     1      -0.025  16.534  18.347  0.00  0.00    +0.000 OA
ENDBRANCH  27  31
ENDBRANCH   4  24
TORSDOF 6
ENDMDL
MODEL 5
REMARK VINA RESULT:      -8.5      3.238     12.290
REMARK  Name = 
REMARK  8 active torsions:
REMARK  status: ('A' for Active; 'I' for Inactive)
REMARK    1  A    between atoms: C_1  and  O_2
REMARK    2  A    between atoms: O_2  and  C_3
REMARK    3  A    between atoms: C_7  and  O_8
REMARK    4  A    between atoms: O_8  and  C_9
REMARK    5  A    between atoms: C_13  and  C_15
REMARK    6  A    between atoms: C_18  and  C_19
REMARK    7  A    between atoms: C_22  and  N_23
REMARK    8  A    between atoms: C_30  and  C_31
REMARK                            x       y       z     vdW  Elec       q    Type
REMARK                         _______ _______ _______ _____ _____    ______ ____
ROOT
ATOM      1  C   UNL     1      -0.123  12.071  21.978  0.00  0.00    +0.000 A 
ATOM      2  C   UNL     1       0.335  12.136  20.660  0.00  0.00    +0.000 A 
ATOM      3  C   UNL     1       0.798  10.979  20.027  0.00  0.00    +0.000 A 
ATOM      4  C   UNL     1       0.839   9.736  20.695  0.00  0.00    +0.000 A 
ATOM      5  C   UNL     1       0.447   9.719  22.041  0.00  0.00    +0.000 A 
ATOM      6  C   UNL     1      -0.010  10.873  22.683  0.00  0.00    +0.000 A 
ENDROOT
BRANCH   1  11
ATOM      7  C   UNL     1      -4.603  13.550  24.409  0.00  0.00    +0.000 C 
ATOM      8  C   UNL     1      -3.486  14.551  24.720  0.00  0.00    +0.000 C 
ATOM      9  C   UNL     1      -2.386  14.610  23.669  0.00  0.00    +0.000 C 
ATOM     10  N   UNL     1      -1.917  13.298  23.234  0.00  0.00    +0.000 N 
ATOM     11  C   UNL     1      -0.653  13.302  22.608  0.00  0.00    +0.000 C 
ATOM     12  O   UNL     1       0.053  14.309  22.542  0.00  0.00    +0.000 OA
ATOM     13  C   UNL     1      -2.980  12.350  22.887  0.00  0.00    +0.000 C 
ATOM     14  C   UNL     1      -3.989  12.204  24.018  0.00  0.00    +0.000 C 
BRANCH   7  15
ATOM     15  O   UNL     1      -5.449  14.058  23.365  0.00  0.00    +0.000 OA
BRANCH  15  20
ATOM     16  C   UNL     1      -6.685  11.974  20.530  0.00  0.00    +0.000 A 
ATOM     17  C   UNL     1      -7.680  11.258  21.200  0.00  0.00    +0.000 A 
ATOM     18  C   UNL     1      -7.911  11.497  22.554  0.00  0.00    +0.000 A 
ATOM     19  C   UNL     1      -7.151  12.448  23.243  0.00  0.00    +0.000 A 
ATOM     20  C   UNL     1      -6.132  13.149  22.590  0.00  0.00    +0.000 A 
ATOM     21  C   UNL     1      -5.899  12.893  21.236  0.00  0.00    +0.000 A 
BRANCH  16  23
ATOM     22  C   UNL     1      -6.858  10.355  18.826  0.00  0.00    +0.000 C 
ATOM     23  O   UNL     1      -6.555  11.695  19.198  0.00  0.00    +0.000 OA
ENDBRANCH  16  23
ENDBRANCH  15  20
ENDBRANCH   7  15
ENDBRANCH   1  11
BRANCH   4  24
ATOM     24  C   UNL     1       1.357   8.526  20.012  0.00  0.00    +0.000 A 
ATOM     25  C   UNL     1       1.336   7.313  20.726  0.00  0.00    +0.000 A 
ATOM     26  C   UNL     1       1.833   6.123  20.193  0.00  0.00    +0.000 A 
ATOM     27  C   UNL     1       2.368   6.083  18.910  0.00  0.00    +0.000 A 
ATOM     28  C   UNL     1       2.355   7.272  18.168  0.00  0.00    +0.000 A 
ATOM     29  C   UNL     1       1.873   8.495  18.697  0.00  0.00    +0.000 A 
ATOM     30  C   UNL     1       1.934   9.694  17.783  0.00  0.00    +0.000 C 
BRANCH  27  31
ATOM     31  N   UNL     1       2.903   4.889  18.366  0.00  0.00    +0.000 N 
ATOM     32  C   UNL     1       2.083   3.891  17.724  0.00  0.00    +0.000 C 
ATOM     33  C   UNL     1       2.986   2.684  17.611  0.00  0.00    +0.000 C 
ATOM     34  C   UNL     1       4.367   3.288  17.456  0.00  0.00    +0.000 C 
ATOM     35  C   UNL     1       4.266   4.584  18.222  0.00  0.00    +0.000 C 
ATOM     36  O   UNL     1       5.250   5.226  18.559  0.00  0.00    +0.000 OA
ENDBRANCH  27  31
ENDBRANCH   4  24
TORSDOF 6
ENDMDL
MODEL 6
REMARK VINA RESULT:      -8.4      2.969     12.324
REMARK  Name = 
REMARK  8 active torsions:
REMARK  status: ('A' for Active; 'I' for Inactive)
REMARK    1  A    between atoms: C_1  and  O_2
REMARK    2  A    between atoms: O_2  and  C_3
REMARK    3  A    between atoms: C_7  and  O_8
REMARK    4  A    between atoms: O_8  and  C_9
REMARK    5  A    between atoms: C_13  and  C_15
REMARK    6  A    between atoms: C_18  and  C_19
REMARK    7  A    between atoms: C_22  and  N_23
REMARK    8  A    between atoms: C_30  and  C_31
REMARK                            x       y       z     vdW  Elec       q    Type
REMARK                         _______ _______ _______ _____ _____    ______ ____
ROOT
ATOM      1  C   UNL     1      -0.704  11.978  22.362  0.00  0.00    +0.000 A 
ATOM      2  C   UNL     1       0.142  12.290  21.296  0.00  0.00    +0.000 A 
ATOM      3  C   UNL     1       0.749  11.264  20.567  0.00  0.00    +0.000 A 
ATOM      4  C   UNL     1       0.551   9.906  20.895  0.00  0.00    +0.000 A 
ATOM      5  C   UNL     1      -0.240   9.627  22.018  0.00  0.00    +0.000 A 
ATOM      6  C   UNL     1      -0.845  10.647  22.757  0.00  0.00    +0.000 A 
ENDROOT
BRANCH   1  11
ATOM      7  C   UNL     1      -5.465  14.321  22.300  0.00  0.00    +0.000 C 
ATOM      8  C   UNL     1      -4.726  14.676  23.595  0.00  0.00    +0.000 C 
ATOM      9  C   UNL     1      -3.209  14.600  23.492  0.00  0.00    +0.000 C 
ATOM     10  N   UNL     1      -2.723  13.392  22.831  0.00  0.00    +0.000 N 
ATOM     11  C   UNL     1      -1.372  13.083  23.088  0.00  0.00    +0.000 C 
ATOM     12  O   UNL     1      -0.689  13.710  23.899  0.00  0.00    +0.000 OA
ATOM     13  C   UNL     1      -3.393  13.073  21.567  0.00  0.00    +0.000 C 
ATOM     14  C   UNL     1      -4.906  13.015  21.734  0.00  0.00    +0.000 C 
BRANCH   7  15
ATOM     15  O   UNL     1      -5.346  15.392  21.351  0.00  0.00    +0.000 OA
BRANCH  15  20
ATOM     16  C   UNL     1      -7.118  14.018  18.371  0.00  0.00    +0.000 A 
ATOM     17  C   UNL     1      -7.159  15.172  17.586  0.00  0.00    +0.000 A 
ATOM     18  C   UNL     1      -6.594  16.354  18.064  0.00  0.00    +0.000 A 
ATOM     19  C   UNL     1      -5.987  16.387  19.324  0.00  0.00    +0.000 A 
ATOM     20  C   UNL     1      -5.966  15.244  20.131  0.00  0.00    +0.000 A 
ATOM     21  C   UNL     1      -6.548  14.068  19.649  0.00  0.00    +0.000 A 
BRANCH  16  23
ATOM     22  C   UNL     1      -6.949  11.692  18.026  0.00  0.00    +0.000 C 
ATOM     23  O   UNL     1      -7.667  12.901  17.805  0.00  0.00    +0.000 OA
ENDBRANCH  16  23
ENDBRANCH  15  20
ENDBRANCH   7  15
ENDBRANCH   1  11
BRANCH   4  24
ATOM     24  C   UNL     1       1.224   8.834  20.122  0.00  0.00    +0.000 A 
ATOM     25  C   UNL     1       1.488   7.619  20.782  0.00  0.00    +0.000 A 
ATOM     26  C   UNL     1       2.151   6.559  20.162  0.00  0.00    +0.000 A 
ATOM     27  C   UNL     1       2.574   6.657  18.842  0.00  0.00    +0.000 A 
ATOM     28  C   UNL     1       2.280   7.842  18.154  0.00  0.00    +0.000 A 
ATOM     29  C   UNL     1       1.626   8.938  18.771  0.00  0.00    +0.000 A 
ATOM     30  C   UNL     1       1.388  10.152  17.907  0.00  0.00    +0.000 C 
BRANCH  27  31
ATOM     31  N   UNL     1       3.274   5.600  18.206  0.00  0.00    +0.000 N 
ATOM     32  C   UNL     1       2.671   4.317  17.941  0.00  0.00    +0.000 C 
ATOM     33  C   UNL     1       3.838   3.424  17.583  0.00  0.00    +0.000 C 
ATOM     34  C   UNL     1       4.821   4.373  16.927  0.00  0.00    +0.000 C 
ATOM     35  C   UNL     1       4.544   5.688  17.614  0.00  0.00    +0.000 C 
ATOM     36  O   UNL     1       5.314   6.635  17.554  0.00  0.00    +0.000 OA
ENDBRANCH  27  31
ENDBRANCH   4  24
TORSDOF 6
ENDMDL
MODEL 7
REMARK VINA RESULT:      -8.4      3.655     12.218
REMARK  Name = 
REMARK  8 active torsions:
REMARK  status: ('A' for Active; 'I' for Inactive)
REMARK    1  A    between atoms: C_1  and  O_2
REMARK    2  A    between atoms: O_2  and  C_3
REMARK    3  A    between atoms: C_7  and  O_8
REMARK    4  A    between atoms: O_8  and  C_9
REMARK    5  A    between atoms: C_13  and  C_15
REMARK    6  A    between atoms: C_18  and  C_19
REMARK    7  A    between atoms: C_22  and  N_23
REMARK    8  A    between atoms: C_30  and  C_31
REMARK                            x       y       z     vdW  Elec       q    Type
REMARK                         _______ _______ _______ _____ _____    ______ ____
ROOT
ATOM      1  C   UNL     1       0.313  11.852  20.942  0.00  0.00    +0.000 A 
ATOM      2  C   UNL     1       0.456  11.502  19.597  0.00  0.00    +0.000 A 
ATOM      3  C   UNL     1       0.862  10.209  19.255  0.00  0.00    +0.000 A 
ATOM      4  C   UNL     1       1.158   9.242  20.239  0.00  0.00    +0.000 A 
ATOM      5  C   UNL     1       1.080   9.647  21.579  0.00  0.00    +0.000 A 
ATOM      6  C   UNL     1       0.682  10.939  21.929  0.00  0.00    +0.000 A 
ENDROOT
BRANCH   1  11
ATOM      7  C   UNL     1      -3.927  13.990  23.312  0.00  0.00    +0.000 C 
ATOM      8  C   UNL     1      -2.793  15.019  23.244  0.00  0.00    +0.000 C 
ATOM      9  C   UNL     1      -1.799  14.783  22.115  0.00  0.00    +0.000 C 
ATOM     10  N   UNL     1      -1.363  13.395  21.996  0.00  0.00    +0.000 N 
ATOM     11  C   UNL     1      -0.165  13.214  21.275  0.00  0.00    +0.000 C 
ATOM     12  O   UNL     1       0.524  14.156  20.882  0.00  0.00    +0.000 OA
ATOM     13  C   UNL     1      -2.446  12.408  22.011  0.00  0.00    +0.000 C 
ATOM     14  C   UNL     1      -3.342  12.579  23.231  0.00  0.00    +0.000 C 
BRANCH   7  15
ATOM     15  O   UNL     1      -4.873  14.222  22.256  0.00  0.00    +0.000 OA
BRANCH  15  20
ATOM     16  C   UNL     1      -6.719  11.358  20.743  0.00  0.00    +0.000 A 
ATOM     17  C   UNL     1      -7.814  11.318  21.609  0.00  0.00    +0.000 A 
ATOM     18  C   UNL     1      -7.906  12.242  22.650  0.00  0.00    +0.000 A 
ATOM     19  C   UNL     1      -6.908  13.205  22.829  0.00  0.00    +0.000 A 
ATOM     20  C   UNL     1      -5.792  13.235  21.986  0.00  0.00    +0.000 A 
ATOM     21  C   UNL     1      -5.702  12.296  20.954  0.00  0.00    +0.000 A 
BRANCH  16  23
ATOM     22  C   UNL     1      -6.233  10.895  18.483  0.00  0.00    +0.000 C 
ATOM     23  O   UNL     1      -6.734  10.435  19.734  0.00  0.00    +0.000 OA
ENDBRANCH  16  23
ENDBRANCH  15  20
ENDBRANCH   7  15
ENDBRANCH   1  11
BRANCH   4  24
ATOM     24  C   UNL     1       1.610   7.883  19.854  0.00  0.00    +0.000 A 
ATOM     25  C   UNL     1       1.430   6.845  20.787  0.00  0.00    +0.000 A 
ATOM     26  C   UNL     1       1.854   5.538  20.543  0.00  0.00    +0.000 A 
ATOM     27  C   UNL     1       2.470   5.199  19.344  0.00  0.00    +0.000 A 
ATOM     28  C   UNL     1       2.616   6.210  18.384  0.00  0.00    +0.000 A 
ATOM     29  C   UNL     1       2.211   7.547  18.620  0.00  0.00    +0.000 A 
ATOM     30  C   UNL     1       2.443   8.528  17.496  0.00  0.00    +0.000 C 
BRANCH  27  31
ATOM     31  N   UNL     1       2.931   3.883  19.092  0.00  0.00    +0.000 N 
ATOM     32  C   UNL     1       3.724   3.142  20.042  0.00  0.00    +0.000 C 
ATOM     33  C   UNL     1       4.260   1.972  19.247  0.00  0.00    +0.000 C 
ATOM     34  C   UNL     1       3.171   1.707  18.229  0.00  0.00    +0.000 C 
ATOM     35  C   UNL     1       2.565   3.072  18.006  0.00  0.00    +0.000 C 
ATOM     36  O   UNL     1       1.839   3.321  17.055  0.00  0.00    +0.000 OA
ENDBRANCH  27  31
ENDBRANCH   4  24
TORSDOF 6
ENDMDL
MODEL 8
REMARK VINA RESULT:      -8.3      2.971     12.442
REMARK  Name = 
REMARK  8 active torsions:
REMARK  status: ('A' for Active; 'I' for Inactive)
REMARK    1  A    between atoms: C_1  and  O_2
REMARK    2  A    between atoms: O_2  and  C_3
REMARK    3  A    between atoms: C_7  and  O_8
REMARK    4  A    between atoms: O_8  and  C_9
REMARK    5  A    between atoms: C_13  and  C_15
REMARK    6  A    between atoms: C_18  and  C_19
REMARK    7  A    between atoms: C_22  and  N_23
REMARK    8  A    between atoms: C_30  and  C_31
REMARK                            x       y       z     vdW  Elec       q    Type
REMARK                         _______ _______ _______ _____ _____    ______ ____
ROOT
ATOM      1  C   UNL     1      -0.554  13.155  19.910  0.00  0.00    +0.000 A 
ATOM      2  C   UNL     1       0.378  12.657  20.823  0.00  0.00    +0.000 A 
ATOM      3  C   UNL     1       1.013  11.438  20.572  0.00  0.00    +0.000 A 
ATOM      4  C   UNL     1       0.719  10.673  19.423  0.00  0.00    +0.000 A 
ATOM      5  C   UNL     1      -0.279  11.161  18.567  0.00  0.00    +0.000 A 
ATOM      6  C   UNL     1      -0.923  12.376  18.814  0.00  0.00    +0.000 A 
ENDROOT
BRANCH   1  11
ATOM      7  C   UNL     1      -4.600  15.007  22.803  0.00  0.00    +0.000 C 
ATOM      8  C   UNL     1      -3.674  16.161  22.404  0.00  0.00    +0.000 C 
ATOM      9  C   UNL     1      -2.868  15.907  21.137  0.00  0.00    +0.000 C 
ATOM     10  N   UNL     1      -2.244  14.588  21.091  0.00  0.00    +0.000 N 
ATOM     11  C   UNL     1      -1.177  14.473  20.177  0.00  0.00    +0.000 C 
ATOM     12  O   UNL     1      -0.726  15.436  19.556  0.00  0.00    +0.000 OA
ATOM     13  C   UNL     1      -3.137  13.475  21.425  0.00  0.00    +0.000 C 
ATOM     14  C   UNL     1      -3.822  13.691  22.768  0.00  0.00    +0.000 C 
BRANCH   7  15
ATOM     15  O   UNL     1      -5.740  14.960  21.931  0.00  0.00    +0.000 OA
BRANCH  15  20
ATOM     16  C   UNL     1      -7.407  11.868  20.679  0.00  0.00    +0.000 A 
ATOM     17  C   UNL     1      -7.907  11.381  21.889  0.00  0.00    +0.000 A 
ATOM     18  C   UNL     1      -7.683  12.094  23.067  0.00  0.00    +0.000 A 
ATOM     19  C   UNL     1      -6.963  13.293  23.040  0.00  0.00    +0.000 A 
ATOM     20  C   UNL     1      -6.433  13.775  21.839  0.00  0.00    +0.000 A 
ATOM     21  C   UNL     1      -6.650  13.045  20.666  0.00  0.00    +0.000 A 
BRANCH  16  23
ATOM     22  C   UNL     1      -6.601  10.443  18.984  0.00  0.00    +0.000 C 
ATOM     23  O   UNL     1      -7.706  11.119  19.576  0.00  0.00    +0.000 OA
ENDBRANCH  16  23
ENDBRANCH  15  20
ENDBRANCH   7  15
ENDBRANCH   1  11
BRANCH   4  24
ATOM     24  C   UNL     1       1.387   9.370  19.189  0.00  0.00    +0.000 A 
ATOM     25  C   UNL     1       2.004   9.166  17.940  0.00  0.00    +0.000 A 
ATOM     26  C   UNL     1       2.626   7.965  17.600  0.00  0.00    +0.000 A 
ATOM     27  C   UNL     1       2.675   6.906  18.500  0.00  0.00    +0.000 A 
ATOM     28  C   UNL     1       2.107   7.107  19.765  0.00  0.00    +0.000 A 
ATOM     29  C   UNL     1       1.452   8.312  20.123  0.00  0.00    +0.000 A 
ATOM     30  C   UNL     1       0.878   8.377  21.518  0.00  0.00    +0.000 C 
BRANCH  27  31
ATOM     31  N   UNL     1       3.279   5.670  18.160  0.00  0.00    +0.000 N 
ATOM     32  C   UNL     1       4.410   5.576  17.269  0.00  0.00    +0.000 C 
ATOM     33  C   UNL     1       4.498   4.103  16.934  0.00  0.00    +0.000 C 
ATOM     34  C   UNL     1       3.980   3.424  18.185  0.00  0.00    +0.000 C 
ATOM     35  C   UNL     1       2.994   4.423  18.739  0.00  0.00    +0.000 C 
ATOM     36  O   UNL     1       2.170   4.129  19.592  0.00  0.00    +0.000 OA
ENDBRANCH  27  31
ENDBRANCH   4  24
TORSDOF 6
ENDMDL
MODEL 9
REMARK VINA RESULT:      -8.3      2.269      2.919
REMARK  Name = 
REMARK  8 active torsions:
REMARK  status: ('A' for Active; 'I' for Inactive)
REMARK    1  A    between atoms: C_1  and  O_2
REMARK    2  A    between atoms: O_2  and  C_3
REMARK    3  A    between atoms: C_7  and  O_8
REMARK    4  A    between atoms: O_8  and  C_9
REMARK    5  A    between atoms: C_13  and  C_15
REMARK    6  A    between atoms: C_18  and  C_19
REMARK    7  A    between atoms: C_22  and  N_23
REMARK    8  A    between atoms: C_30  and  C_31
REMARK                            x       y       z     vdW  Elec       q    Type
REMARK                         _______ _______ _______ _____ _____    ______ ____
ROOT
ATOM      1  C   UNL     1       2.055   7.696  19.367  0.00  0.00    +0.000 A 
ATOM      2  C   UNL     1       1.524   8.332  20.492  0.00  0.00    +0.000 A 
ATOM      3  C   UNL     1       1.066   9.648  20.395  0.00  0.00    +0.000 A 
ATOM      4  C   UNL     1       1.148  10.373  19.186  0.00  0.00    +0.000 A 
ATOM      5  C   UNL     1       1.758   9.735  18.097  0.00  0.00    +0.000 A 
ATOM      6  C   UNL     1       2.224   8.421  18.188  0.00  0.00    +0.000 A 
ENDROOT
BRANCH   1  11
ATOM      7  C   UNL     1       5.811   4.611  17.238  0.00  0.00    +0.000 C 
ATOM      8  C   UNL     1       5.252   3.953  18.504  0.00  0.00    +0.000 C 
ATOM      9  C   UNL     1       3.833   4.379  18.857  0.00  0.00    +0.000 C 
ATOM     10  N   UNL     1       3.615   5.820  18.779  0.00  0.00    +0.000 N 
ATOM     11  C   UNL     1       2.487   6.284  19.486  0.00  0.00    +0.000 C 
ATOM     12  O   UNL     1       1.810   5.554  20.212  0.00  0.00    +0.000 OA
ATOM     13  C   UNL     1       4.104   6.449  17.549  0.00  0.00    +0.000 C 
ATOM     14  C   UNL     1       5.570   6.120  17.297  0.00  0.00    +0.000 C 
BRANCH   7  15
ATOM     15  O   UNL     1       5.208   4.033  16.070  0.00  0.00    +0.000 OA
BRANCH  15  20
ATOM     16  C   UNL     1       7.602   4.998  13.379  0.00  0.00    +0.000 A 
ATOM     17  C   UNL     1       7.076   4.238  12.332  0.00  0.00    +0.000 A 
ATOM     18  C   UNL     1       5.949   3.447  12.550  0.00  0.00    +0.000 A 
ATOM     19  C   UNL     1       5.345   3.411  13.812  0.00  0.00    +0.000 A 
ATOM     20  C   UNL     1       5.881   4.145  14.875  0.00  0.00    +0.000 A 
ATOM     21  C   UNL     1       7.020   4.924  14.649  0.00  0.00    +0.000 A 
BRANCH  16  23
ATOM     22  C   UNL     1       8.570   6.509  11.850  0.00  0.00    +0.000 C 
ATOM     23  O   UNL     1       8.687   5.767  13.060  0.00  0.00    +0.000 OA
ENDBRANCH  16  23
ENDBRANCH  15  20
ENDBRANCH   7  15
ENDBRANCH   1  11
BRANCH   4  24
ATOM     24  C   UNL     1       0.679  11.777  19.112  0.00  0.00    +0.000 A 
ATOM     25  C   UNL     1       1.626  12.796  19.326  0.00  0.00    +0.000 A 
ATOM     26  C   UNL     1       1.285  14.149  19.317  0.00  0.00    +0.000 A 
ATOM     27  C   UNL     1      -0.023  14.554  19.081  0.00  0.00    +0.000 A 
ATOM     28  C   UNL     1      -0.972  13.556  18.821  0.00  0.00    +0.000 A 
ATOM     29  C   UNL     1      -0.650  12.176  18.844  0.00  0.00    +0.000 A 
ATOM     30  C   UNL     1      -1.780  11.217  18.556  0.00  0.00    +0.000 C 
BRANCH  27  31
ATOM     31  N   UNL     1      -0.391  15.923  19.097  0.00  0.00    +0.000 N 
ATOM     32  C   UNL     1      -1.539  16.411  19.822  0.00  0.00    +0.000 C 
ATOM     33  C   UNL     1      -1.741  17.815  19.297  0.00  0.00    +0.000 C 
ATOM     34  C   UNL     1      -0.338  18.271  18.954  0.00  0.00    +0.000 C 
ATOM     35  C   UNL     1       0.361  16.988  18.575  0.00  0.00    +0.000 C 
ATOM     36  O   UNL     1       1.427  16.972  17.979  0.00  0.00    +0.000 OA
ENDBRANCH  27  31
ENDBRANCH   4  24
TORSDOF 6
ENDMDL
