MODEL 1
REMARK VINA RESULT:      -7.6      0.000      0.000
REMARK  Name = 
REMARK  9 active torsions:
REMARK  status: ('A' for Active; 'I' for Inactive)
REMARK    1  A    between atoms: C_4  and  N_5
REMARK    2  A    between atoms: N_5  and  C_6
REMARK    3  A    between atoms: C_6  and  C_7
REMARK    4  A    between atoms: C_7  and  C_8
REMARK    5  A    between atoms: C_8  and  O_9
REMARK    6  A    between atoms: O_9  and  C_10
REMARK    7  A    between atoms: C_13  and  C_14
REMARK    8  A    between atoms: C_14  and  O_16
REMARK    9  A    between atoms: C_19  and  N_20
REMARK                            x       y       z     vdW  Elec       q    Type
REMARK                         _______ _______ _______ _____ _____    ______ ____
ROOT
ATOM      1  N   UNL     1       5.609   3.856  17.023  0.00  0.00    +0.000 N 
ATOM      2  H   UNL     1       6.064   3.211  16.378  0.00  0.00    +0.000 HD
ENDROOT
BRANCH   1   6
ATOM      3  N   UNL     1       8.538   5.201  20.395  0.00  0.00    +0.000 N 
ATOM      4  C   UNL     1       7.870   5.471  19.250  0.00  0.00    +0.000 A 
ATOM      5  N   UNL     1       7.135   4.569  18.693  0.00  0.00    +0.000 NA
ATOM      6  C   UNL     1       6.453   4.854  17.525  0.00  0.00    +0.000 A 
ATOM      7  C   UNL     1       6.578   6.057  16.896  0.00  0.00    +0.000 A 
ATOM      8  C   UNL     1       7.423   7.091  17.565  0.00  0.00    +0.000 A 
ATOM      9  O   UNL     1       7.606   8.225  17.123  0.00  0.00    +0.000 OA
ATOM     10  N   UNL     1       8.009   6.715  18.737  0.00  0.00    +0.000 N 
ATOM     11  H   UNL     1       8.211   4.349  20.841  0.00  0.00    +0.000 HD
ATOM     12  H   UNL     1       8.688   5.959  21.047  0.00  0.00    +0.000 HD
ATOM     13  H   UNL     1       8.605   7.396  19.179  0.00  0.00    +0.000 HD
BRANCH   7  14
ATOM     14  N   UNL     1       5.957   6.453  15.774  0.00  0.00    +0.000 NA
ATOM     15  O   UNL     1       5.954   5.638  14.843  0.00  0.00    +0.000 OA
ENDBRANCH   7  14
ENDBRANCH   1   6
BRANCH   1  16
ATOM     16  C   UNL     1       4.401   3.390  17.677  0.00  0.00    +0.000 C 
BRANCH  16  17
ATOM     17  C   UNL     1       3.275   4.388  17.420  0.00  0.00    +0.000 C 
BRANCH  17  18
ATOM     18  C   UNL     1       3.177   5.443  18.516  0.00  0.00    +0.000 C 
BRANCH  18  19
ATOM     19  O   UNL     1       2.923   6.715  17.918  0.00  0.00    +0.000 OA
BRANCH  19  20
ATOM     20  C   UNL     1       2.296   7.639  18.705  0.00  0.00    +0.000 A 
ATOM     21  C   UNL     1       1.830   8.774  18.039  0.00  0.00    +0.000 A 
ATOM     22  C   UNL     1       1.143   9.772  18.734  0.00  0.00    +0.000 A 
ATOM     23  C   UNL     1       0.907   9.632  20.108  0.00  0.00    +0.000 A 
ATOM     24  C   UNL     1       1.343   8.480  20.769  0.00  0.00    +0.000 A 
ATOM     25  C   UNL     1       2.045   7.490  20.070  0.00  0.00    +0.000 A 
BRANCH  23  26
ATOM     26  C   UNL     1       0.135  10.701  20.796  0.00  0.00    +0.000 C 
ATOM     27  O   UNL     1       0.393  11.076  21.928  0.00  0.00    +0.000 OA
BRANCH  26  28
ATOM     28  O   UNL     1      -0.893  11.195  20.078  0.00  0.00    +0.000 OA
ATOM     29  H   UNL     1      -0.669  11.519  19.188  0.00  0.00    +0.000 HD
ENDBRANCH  26  28
ENDBRANCH  23  26
ENDBRANCH  19  20
ENDBRANCH  18  19
ENDBRANCH  17  18
ENDBRANCH  16  17
ENDBRANCH   1  16
TORSDOF 9
ENDMDL
MODEL 2
REMARK VINA RESULT:      -7.6      1.009      1.529
REMARK  Name = 
REMARK  9 active torsions:
REMARK  status: ('A' for Active; 'I' for Inactive)
REMARK    1  A    between atoms: C_4  and  N_5
REMARK    2  A    between atoms: N_5  and  C_6
REMARK    3  A    between atoms: C_6  and  C_7
REMARK    4  A    between atoms: C_7  and  C_8
REMARK    5  A    between atoms: C_8  and  O_9
REMARK    6  A    between atoms: O_9  and  C_10
REMARK    7  A    between atoms: C_13  and  C_14
REMARK    8  A    between atoms: C_14  and  O_16
REMARK    9  A    between atoms: C_19  and  N_20
REMARK                            x       y       z     vdW  Elec       q    Type
REMARK                         _______ _______ _______ _____ _____    ______ ____
ROOT
ATOM      1  N   UNL     1       5.562   3.814  17.141  0.00  0.00    +0.000 N 
ATOM      2  H   UNL     1       5.900   2.864  17.288  0.00  0.00    +0.000 HD
ENDROOT
BRANCH   1   6
ATOM      3  N   UNL     1       8.423   5.272  20.524  0.00  0.00    +0.000 N 
ATOM      4  C   UNL     1       7.810   5.488  19.338  0.00  0.00    +0.000 A 
ATOM      5  N   UNL     1       7.056   4.580  18.817  0.00  0.00    +0.000 NA
ATOM      6  C   UNL     1       6.431   4.809  17.605  0.00  0.00    +0.000 A 
ATOM      7  C   UNL     1       6.631   5.958  16.900  0.00  0.00    +0.000 A 
ATOM      8  C   UNL     1       7.497   7.001  17.527  0.00  0.00    +0.000 A 
ATOM      9  O   UNL     1       7.745   8.092  17.016  0.00  0.00    +0.000 OA
ATOM     10  N   UNL     1       8.022   6.685  18.746  0.00  0.00    +0.000 N 
ATOM     11  H   UNL     1       8.043   4.468  21.015  0.00  0.00    +0.000 HD
ATOM     12  H   UNL     1       8.583   6.068  21.127  0.00  0.00    +0.000 HD
ATOM     13  H   UNL     1       8.631   7.370  19.162  0.00  0.00    +0.000 HD
BRANCH   7  14
ATOM     14  N   UNL     1       6.070   6.298  15.729  0.00  0.00    +0.000 NA
ATOM     15  O   UNL     1       6.422   5.633  14.748  0.00  0.00    +0.000 OA
ENDBRANCH   7  14
ENDBRANCH   1   6
BRANCH   1  16
ATOM     16  C   UNL     1       4.132   3.983  16.963  0.00  0.00    +0.000 C 
BRANCH  16  17
ATOM     17  C   UNL     1       3.402   3.354  18.146  0.00  0.00    +0.000 C 
BRANCH  17  18
ATOM     18  C   UNL     1       2.728   4.398  19.030  0.00  0.00    +0.000 C 
BRANCH  18  19
ATOM     19  O   UNL     1       3.509   5.595  19.017  0.00  0.00    +0.000 OA
BRANCH  19  20
ATOM     20  C   UNL     1       2.815   6.767  18.913  0.00  0.00    +0.000 A 
ATOM     21  C   UNL     1       2.138   7.165  20.067  0.00  0.00    +0.000 A 
ATOM     22  C   UNL     1       1.422   8.364  20.091  0.00  0.00    +0.000 A 
ATOM     23  C   UNL     1       1.390   9.184  18.956  0.00  0.00    +0.000 A 
ATOM     24  C   UNL     1       2.095   8.803  17.810  0.00  0.00    +0.000 A 
ATOM     25  C   UNL     1       2.799   7.592  17.787  0.00  0.00    +0.000 A 
BRANCH  23  26
ATOM     26  C   UNL     1       0.649  10.470  19.044  0.00  0.00    +0.000 C 
ATOM     27  O   UNL     1      -0.557  10.549  18.873  0.00  0.00    +0.000 OA
BRANCH  26  28
ATOM     28  O   UNL     1       1.424  11.543  19.293  0.00  0.00    +0.000 OA
ATOM     29  H   UNL     1       1.398  12.247  18.621  0.00  0.00    +0.000 HD
ENDBRANCH  26  28
ENDBRANCH  23  26
ENDBRANCH  19  20
ENDBRANCH  18  19
ENDBRANCH  17  18
ENDBRANCH  16  17
ENDBRANCH   1  16
TORSDOF 9
ENDMDL
MODEL 3
REMARK VINA RESULT:      -7.5      1.971      2.962
REMARK  Name = 
REMARK  9 active torsions:
REMARK  status: ('A' for Active; 'I' for Inactive)
REMARK    1  A    between atoms: C_4  and  N_5
REMARK    2  A    between atoms: N_5  and  C_6
REMARK    3  A    between atoms: C_6  and  C_7
REMARK    4  A    between atoms: C_7  and  C_8
REMARK    5  A    between atoms: C_8  and  O_9
REMARK    6  A    between atoms: O_9  and  C_10
REMARK    7  A    between atoms: C_13  and  C_14
REMARK    8  A    between atoms: C_14  and  O_16
REMARK    9  A    between atoms: C_19  and  N_20
REMARK                            x       y       z     vdW  Elec       q    Type
REMARK                         _______ _______ _______ _____ _____    ______ ____
ROOT
ATOM      1  N   UNL     1       3.959   5.293  17.386  0.00  0.00    +0.000 N 
ATOM      2  H   UNL     1       3.634   6.254  17.289  0.00  0.00    +0.000 HD
ENDROOT
BRANCH   1   6
ATOM      3  N   UNL     1       7.010   5.142  13.861  0.00  0.00    +0.000 N 
ATOM      4  C   UNL     1       6.738   4.999  15.178  0.00  0.00    +0.000 A 
ATOM      5  N   UNL     1       5.555   5.243  15.631  0.00  0.00    +0.000 NA
ATOM      6  C   UNL     1       5.283   5.092  16.979  0.00  0.00    +0.000 A 
ATOM      7  C   UNL     1       6.253   4.744  17.872  0.00  0.00    +0.000 A 
ATOM      8  C   UNL     1       7.612   4.454  17.323  0.00  0.00    +0.000 A 
ATOM      9  O   UNL     1       8.573   4.107  18.008  0.00  0.00    +0.000 OA
ATOM     10  N   UNL     1       7.751   4.589  15.973  0.00  0.00    +0.000 N 
ATOM     11  H   UNL     1       6.168   5.222  13.299  0.00  0.00    +0.000 HD
ATOM     12  H   UNL     1       7.706   4.534  13.451  0.00  0.00    +0.000 HD
ATOM     13  H   UNL     1       8.672   4.424  15.599  0.00  0.00    +0.000 HD
BRANCH   7  14
ATOM     14  N   UNL     1       6.107   4.551  19.191  0.00  0.00    +0.000 NA
ATOM     15  O   UNL     1       5.427   3.573  19.522  0.00  0.00    +0.000 OA
ENDBRANCH   7  14
ENDBRANCH   1   6
BRANCH   1  16
ATOM     16  C   UNL     1       2.944   4.258  17.434  0.00  0.00    +0.000 C 
BRANCH  16  17
ATOM     17  C   UNL     1       1.757   4.759  18.252  0.00  0.00    +0.000 C 
BRANCH  17  18
ATOM     18  C   UNL     1       2.166   5.202  19.653  0.00  0.00    +0.000 C 
BRANCH  18  19
ATOM     19  O   UNL     1       2.907   6.419  19.560  0.00  0.00    +0.000 OA
BRANCH  19  20
ATOM     20  C   UNL     1       2.177   7.559  19.378  0.00  0.00    +0.000 A 
ATOM     21  C   UNL     1       1.541   8.050  20.520  0.00  0.00    +0.000 A 
ATOM     22  C   UNL     1       0.793   9.228  20.464  0.00  0.00    +0.000 A 
ATOM     23  C   UNL     1       0.687   9.934  19.259  0.00  0.00    +0.000 A 
ATOM     24  C   UNL     1       1.351   9.462  18.123  0.00  0.00    +0.000 A 
ATOM     25  C   UNL     1       2.087   8.272  18.181  0.00  0.00    +0.000 A 
BRANCH  23  26
ATOM     26  C   UNL     1      -0.086  11.205  19.260  0.00  0.00    +0.000 C 
ATOM     27  O   UNL     1      -0.434  11.763  20.288  0.00  0.00    +0.000 OA
BRANCH  26  28
ATOM     28  O   UNL     1      -0.398  11.668  18.034  0.00  0.00    +0.000 OA
ATOM     29  H   UNL     1      -0.599  10.989  17.366  0.00  0.00    +0.000 HD
ENDBRANCH  26  28
ENDBRANCH  23  26
ENDBRANCH  19  20
ENDBRANCH  18  19
ENDBRANCH  17  18
ENDBRANCH  16  17
ENDBRANCH   1  16
TORSDOF 9
ENDMDL
MODEL 4
REMARK VINA RESULT:      -7.4      3.754      7.932
REMARK  Name = 
REMARK  9 active torsions:
REMARK  status: ('A' for Active; 'I' for Inactive)
REMARK    1  A    between atoms: C_4  and  N_5
REMARK    2  A    between atoms: N_5  and  C_6
REMARK    3  A    between atoms: C_6  and  C_7
REMARK    4  A    between atoms: C_7  and  C_8
REMARK    5  A    between atoms: C_8  and  O_9
REMARK    6  A    between atoms: O_9  and  C_10
REMARK    7  A    between atoms: C_13  and  C_14
REMARK    8  A    between atoms: C_14  and  O_16
REMARK    9  A    between atoms: C_19  and  N_20
REMARK                            x       y       z     vdW  Elec       q    Type
REMARK                         _______ _______ _______ _____ _____    ______ ____
ROOT
ATOM      1  N   UNL     1       6.074   4.655  19.576  0.00  0.00    +0.000 N 
ATOM      2  H   UNL     1       6.373   3.752  19.943  0.00  0.00    +0.000 HD
ENDROOT
BRANCH   1   6
ATOM      3  N   UNL     1       2.405   7.282  18.398  0.00  0.00    +0.000 N 
ATOM      4  C   UNL     1       2.941   6.063  18.641  0.00  0.00    +0.000 A 
ATOM      5  N   UNL     1       4.191   5.946  18.933  0.00  0.00    +0.000 NA
ATOM      6  C   UNL     1       4.732   4.698  19.183  0.00  0.00    +0.000 A 
ATOM      7  C   UNL     1       3.991   3.560  19.071  0.00  0.00    +0.000 A 
ATOM      8  C   UNL     1       2.542   3.720  18.744  0.00  0.00    +0.000 A 
ATOM      9  O   UNL     1       1.751   2.783  18.635  0.00  0.00    +0.000 OA
ATOM     10  N   UNL     1       2.109   5.001  18.566  0.00  0.00    +0.000 N 
ATOM     11  H   UNL     1       3.014   8.038  18.695  0.00  0.00    +0.000 HD
ATOM     12  H   UNL     1       1.435   7.431  18.645  0.00  0.00    +0.000 HD
ATOM     13  H   UNL     1       1.140   5.115  18.316  0.00  0.00    +0.000 HD
BRANCH   7  14
ATOM     14  N   UNL     1       4.397   2.302  19.303  0.00  0.00    +0.000 NA
ATOM     15  O   UNL     1       4.842   2.079  20.435  0.00  0.00    +0.000 OA
ENDBRANCH   7  14
ENDBRANCH   1   6
BRANCH   1  16
ATOM     16  C   UNL     1       7.112   5.535  19.072  0.00  0.00    +0.000 C 
BRANCH  16  17
ATOM     17  C   UNL     1       7.502   5.095  17.664  0.00  0.00    +0.000 C 
BRANCH  17  18
ATOM     18  C   UNL     1       6.899   5.993  16.590  0.00  0.00    +0.000 C 
BRANCH  18  19
ATOM     19  O   UNL     1       7.677   5.881  15.397  0.00  0.00    +0.000 OA
BRANCH  19  20
ATOM     20  C   UNL     1       7.167   5.080  14.415  0.00  0.00    +0.000 A 
ATOM     21  C   UNL     1       5.948   4.468  14.716  0.00  0.00    +0.000 A 
ATOM     22  C   UNL     1       5.314   3.652  13.777  0.00  0.00    +0.000 A 
ATOM     23  C   UNL     1       5.894   3.452  12.517  0.00  0.00    +0.000 A 
ATOM     24  C   UNL     1       7.097   4.092  12.202  0.00  0.00    +0.000 A 
ATOM     25  C   UNL     1       7.736   4.896  13.154  0.00  0.00    +0.000 A 
BRANCH  23  26
ATOM     26  C   UNL     1       5.159   2.610  11.536  0.00  0.00    +0.000 C 
ATOM     27  O   UNL     1       4.102   2.954  11.033  0.00  0.00    +0.000 OA
BRANCH  26  28
ATOM     28  O   UNL     1       5.739   1.422  11.278  0.00  0.00    +0.000 OA
ATOM     29  H   UNL     1       5.305   0.645  11.674  0.00  0.00    +0.000 HD
ENDBRANCH  26  28
ENDBRANCH  23  26
ENDBRANCH  19  20
ENDBRANCH  18  19
ENDBRANCH  17  18
ENDBRANCH  16  17
ENDBRANCH   1  16
TORSDOF 9
ENDMDL
MODEL 5
REMARK VINA RESULT:      -7.3      3.768      7.789
REMARK  Name = 
REMARK  9 active torsions:
REMARK  status: ('A' for Active; 'I' for Inactive)
REMARK    1  A    between atoms: C_4  and  N_5
REMARK    2  A    between atoms: N_5  and  C_6
REMARK    3  A    between atoms: C_6  and  C_7
REMARK    4  A    between atoms: C_7  and  C_8
REMARK    5  A    between atoms: C_8  and  O_9
REMARK    6  A    between atoms: O_9  and  C_10
REMARK    7  A    between atoms: C_13  and  C_14
REMARK    8  A    between atoms: C_14  and  O_16
REMARK    9  A    between atoms: C_19  and  N_20
REMARK                            x       y       z     vdW  Elec       q    Type
REMARK                         _______ _______ _______ _____ _____    ______ ____
ROOT
ATOM      1  N   UNL     1       5.563   4.646  18.687  0.00  0.00    +0.000 N 
ATOM      2  H   UNL     1       5.526   4.620  17.668  0.00  0.00    +0.000 HD
ENDROOT
BRANCH   1   6
ATOM      3  N   UNL     1       1.972   7.147  20.302  0.00  0.00    +0.000 N 
ATOM      4  C   UNL     1       2.575   5.949  20.119  0.00  0.00    +0.000 A 
ATOM      5  N   UNL     1       3.697   5.872  19.487  0.00  0.00    +0.000 NA
ATOM      6  C   UNL     1       4.308   4.645  19.306  0.00  0.00    +0.000 A 
ATOM      7  C   UNL     1       3.727   3.485  19.727  0.00  0.00    +0.000 A 
ATOM      8  C   UNL     1       2.435   3.599  20.466  0.00  0.00    +0.000 A 
ATOM      9  O   UNL     1       1.813   2.640  20.922  0.00  0.00    +0.000 OA
ATOM     10  N   UNL     1       1.950   4.864  20.628  0.00  0.00    +0.000 N 
ATOM     11  H   UNL     1       2.595   7.926  20.107  0.00  0.00    +0.000 HD
ATOM     12  H   UNL     1       1.422   7.278  21.140  0.00  0.00    +0.000 HD
ATOM     13  H   UNL     1       1.064   4.947  21.099  0.00  0.00    +0.000 HD
BRANCH   7  14
ATOM     14  N   UNL     1       4.228   2.245  19.623  0.00  0.00    +0.000 NA
ATOM     15  O   UNL     1       5.150   1.968  20.399  0.00  0.00    +0.000 OA
ENDBRANCH   7  14
ENDBRANCH   1   6
BRANCH   1  16
ATOM     16  C   UNL     1       6.780   5.158  19.287  0.00  0.00    +0.000 C 
BRANCH  16  17
ATOM     17  C   UNL     1       7.484   6.072  18.289  0.00  0.00    +0.000 C 
BRANCH  17  18
ATOM     18  C   UNL     1       6.665   6.284  17.021  0.00  0.00    +0.000 C 
BRANCH  18  19
ATOM     19  O   UNL     1       7.446   5.895  15.890  0.00  0.00    +0.000 OA
BRANCH  19  20
ATOM     20  C   UNL     1       6.804   5.154  14.938  0.00  0.00    +0.000 A 
ATOM     21  C   UNL     1       7.511   4.969  13.747  0.00  0.00    +0.000 A 
ATOM     22  C   UNL     1       6.969   4.202  12.714  0.00  0.00    +0.000 A 
ATOM     23  C   UNL     1       5.714   3.600  12.871  0.00  0.00    +0.000 A 
ATOM     24  C   UNL     1       5.021   3.756  14.075  0.00  0.00    +0.000 A 
ATOM     25  C   UNL     1       5.562   4.540  15.102  0.00  0.00    +0.000 A 
BRANCH  23  26
ATOM     26  C   UNL     1       5.199   2.758  11.759  0.00  0.00    +0.000 C 
ATOM     27  O   UNL     1       5.778   1.757  11.368  0.00  0.00    +0.000 OA
BRANCH  26  28
ATOM     28  O   UNL     1       4.062   3.212  11.197  0.00  0.00    +0.000 OA
ATOM     29  H   UNL     1       3.829   2.816  10.339  0.00  0.00    +0.000 HD
ENDBRANCH  26  28
ENDBRANCH  23  26
ENDBRANCH  19  20
ENDBRANCH  18  19
ENDBRANCH  17  18
ENDBRANCH  16  17
ENDBRANCH   1  16
TORSDOF 9
ENDMDL
MODEL 6
REMARK VINA RESULT:      -7.3      3.996      7.979
REMARK  Name = 
REMARK  9 active torsions:
REMARK  status: ('A' for Active; 'I' for Inactive)
REMARK    1  A    between atoms: C_4  and  N_5
REMARK    2  A    between atoms: N_5  and  C_6
REMARK    3  A    between atoms: C_6  and  C_7
REMARK    4  A    between atoms: C_7  and  C_8
REMARK    5  A    between atoms: C_8  and  O_9
REMARK    6  A    between atoms: O_9  and  C_10
REMARK    7  A    between atoms: C_13  and  C_14
REMARK    8  A    between atoms: C_14  and  O_16
REMARK    9  A    between atoms: C_19  and  N_20
REMARK                            x       y       z     vdW  Elec       q    Type
REMARK                         _______ _______ _______ _____ _____    ______ ____
ROOT
ATOM      1  N   UNL     1       4.297   5.096  19.401  0.00  0.00    +0.000 N 
ATOM      2  H   UNL     1       3.821   5.822  19.935  0.00  0.00    +0.000 HD
ENDROOT
BRANCH   1   6
ATOM      3  N   UNL     1       4.252   0.563  18.302  0.00  0.00    +0.000 N 
ATOM      4  C   UNL     1       3.584   1.696  18.620  0.00  0.00    +0.000 A 
ATOM      5  N   UNL     1       4.228   2.781  18.885  0.00  0.00    +0.000 NA
ATOM      6  C   UNL     1       3.538   3.936  19.208  0.00  0.00    +0.000 A 
ATOM      7  C   UNL     1       2.179   3.954  19.314  0.00  0.00    +0.000 A 
ATOM      8  C   UNL     1       1.454   2.689  18.991  0.00  0.00    +0.000 A 
ATOM      9  O   UNL     1       0.230   2.567  19.022  0.00  0.00    +0.000 OA
ATOM     10  N   UNL     1       2.234   1.627  18.639  0.00  0.00    +0.000 N 
ATOM     11  H   UNL     1       5.228   0.740  18.081  0.00  0.00    +0.000 HD
ATOM     12  H   UNL     1       3.811  -0.085  17.664  0.00  0.00    +0.000 HD
ATOM     13  H   UNL     1       1.755   0.762  18.448  0.00  0.00    +0.000 HD
BRANCH   7  14
ATOM     14  N   UNL     1       1.403   5.010  19.602  0.00  0.00    +0.000 NA
ATOM     15  O   UNL     1       1.355   5.336  20.793  0.00  0.00    +0.000 OA
ENDBRANCH   7  14
ENDBRANCH   1   6
BRANCH   1  16
ATOM     16  C   UNL     1       5.746   5.151  19.362  0.00  0.00    +0.000 C 
BRANCH  16  17
ATOM     17  C   UNL     1       6.185   5.953  18.140  0.00  0.00    +0.000 C 
BRANCH  17  18
ATOM     18  C   UNL     1       7.258   5.233  17.332  0.00  0.00    +0.000 C 
BRANCH  18  19
ATOM     19  O   UNL     1       7.308   5.795  16.019  0.00  0.00    +0.000 OA
BRANCH  19  20
ATOM     20  C   UNL     1       6.717   5.065  15.027  0.00  0.00    +0.000 A 
ATOM     21  C   UNL     1       7.445   4.971  13.839  0.00  0.00    +0.000 A 
ATOM     22  C   UNL     1       6.955   4.224  12.765  0.00  0.00    +0.000 A 
ATOM     23  C   UNL     1       5.731   3.551  12.879  0.00  0.00    +0.000 A 
ATOM     24  C   UNL     1       5.018   3.618  14.080  0.00  0.00    +0.000 A 
ATOM     25  C   UNL     1       5.506   4.381  15.148  0.00  0.00    +0.000 A 
BRANCH  23  26
ATOM     26  C   UNL     1       5.273   2.735  11.724  0.00  0.00    +0.000 C 
ATOM     27  O   UNL     1       4.272   3.006  11.081  0.00  0.00    +0.000 OA
BRANCH  26  28
ATOM     28  O   UNL     1       6.034   1.652  11.471  0.00  0.00    +0.000 OA
ATOM     29  H   UNL     1       5.957   0.924  12.112  0.00  0.00    +0.000 HD
ENDBRANCH  26  28
ENDBRANCH  23  26
ENDBRANCH  19  20
ENDBRANCH  18  19
ENDBRANCH  17  18
ENDBRANCH  16  17
ENDBRANCH   1  16
TORSDOF 9
ENDMDL
MODEL 7
REMARK VINA RESULT:      -7.2      1.031      1.102
REMARK  Name = 
REMARK  9 active torsions:
REMARK  status: ('A' for Active; 'I' for Inactive)
REMARK    1  A    between atoms: C_4  and  N_5
REMARK    2  A    between atoms: N_5  and  C_6
REMARK    3  A    between atoms: C_6  and  C_7
REMARK    4  A    between atoms: C_7  and  C_8
REMARK    5  A    between atoms: C_8  and  O_9
REMARK    6  A    between atoms: O_9  and  C_10
REMARK    7  A    between atoms: C_13  and  C_14
REMARK    8  A    between atoms: C_14  and  O_16
REMARK    9  A    between atoms: C_19  and  N_20
REMARK                            x       y       z     vdW  Elec       q    Type
REMARK                         _______ _______ _______ _____ _____    ______ ____
ROOT
ATOM      1  N   UNL     1       5.294   4.019  17.399  0.00  0.00    +0.000 N 
ATOM      2  H   UNL     1       5.409   3.088  17.797  0.00  0.00    +0.000 HD
ENDROOT
BRANCH   1   6
ATOM      3  N   UNL     1       8.465   5.248  20.590  0.00  0.00    +0.000 N 
ATOM      4  C   UNL     1       7.803   5.508  19.439  0.00  0.00    +0.000 A 
ATOM      5  N   UNL     1       6.945   4.665  18.974  0.00  0.00    +0.000 NA
ATOM      6  C   UNL     1       6.270   4.938  17.799  0.00  0.00    +0.000 A 
ATOM      7  C   UNL     1       6.527   6.061  17.069  0.00  0.00    +0.000 A 
ATOM      8  C   UNL     1       7.515   7.029  17.632  0.00  0.00    +0.000 A 
ATOM      9  O   UNL     1       7.826   8.091  17.093  0.00  0.00    +0.000 OA
ATOM     10  N   UNL     1       8.083   6.678  18.821  0.00  0.00    +0.000 N 
ATOM     11  H   UNL     1       8.047   4.484  21.112  0.00  0.00    +0.000 HD
ATOM     12  H   UNL     1       8.729   6.031  21.174  0.00  0.00    +0.000 HD
ATOM     13  H   UNL     1       8.772   7.311  19.193  0.00  0.00    +0.000 HD
BRANCH   7  14
ATOM     14  N   UNL     1       5.928   6.440  15.929  0.00  0.00    +0.000 NA
ATOM     15  O   UNL     1       6.268   5.826  14.911  0.00  0.00    +0.000 OA
ENDBRANCH   7  14
ENDBRANCH   1   6
BRANCH   1  16
ATOM     16  C   UNL     1       3.967   4.374  16.931  0.00  0.00    +0.000 C 
BRANCH  16  17
ATOM     17  C   UNL     1       2.939   3.961  17.980  0.00  0.00    +0.000 C 
BRANCH  17  18
ATOM     18  C   UNL     1       3.071   4.767  19.267  0.00  0.00    +0.000 C 
BRANCH  18  19
ATOM     19  O   UNL     1       3.659   6.034  18.966  0.00  0.00    +0.000 OA
BRANCH  19  20
ATOM     20  C   UNL     1       2.835   7.120  19.056  0.00  0.00    +0.000 A 
ATOM     21  C   UNL     1       2.759   7.909  17.906  0.00  0.00    +0.000 A 
ATOM     22  C   UNL     1       1.923   9.027  17.868  0.00  0.00    +0.000 A 
ATOM     23  C   UNL     1       1.143   9.357  18.984  0.00  0.00    +0.000 A 
ATOM     24  C   UNL     1       1.193   8.549  20.124  0.00  0.00    +0.000 A 
ATOM     25  C   UNL     1       2.045   7.437  20.161  0.00  0.00    +0.000 A 
BRANCH  23  26
ATOM     26  C   UNL     1       0.238  10.532  18.880  0.00  0.00    +0.000 C 
ATOM     27  O   UNL     1       0.645  11.660  18.651  0.00  0.00    +0.000 OA
BRANCH  26  28
ATOM     28  O   UNL     1      -1.063  10.253  19.094  0.00  0.00    +0.000 OA
ATOM     29  H   UNL     1      -1.263   9.794  19.928  0.00  0.00    +0.000 HD
ENDBRANCH  26  28
ENDBRANCH  23  26
ENDBRANCH  19  20
ENDBRANCH  18  19
ENDBRANCH  17  18
ENDBRANCH  16  17
ENDBRANCH   1  16
TORSDOF 9
ENDMDL
MODEL 8
REMARK VINA RESULT:      -7.2      1.613      2.622
REMARK  Name = 
REMARK  9 active torsions:
REMARK  status: ('A' for Active; 'I' for Inactive)
REMARK    1  A    between atoms: C_4  and  N_5
REMARK    2  A    between atoms: N_5  and  C_6
REMARK    3  A    between atoms: C_6  and  C_7
REMARK    4  A    between atoms: C_7  and  C_8
REMARK    5  A    between atoms: C_8  and  O_9
REMARK    6  A    between atoms: O_9  and  C_10
REMARK    7  A    between atoms: C_13  and  C_14
REMARK    8  A    between atoms: C_14  and  O_16
REMARK    9  A    between atoms: C_19  and  N_20
REMARK                            x       y       z     vdW  Elec       q    Type
REMARK                         _______ _______ _______ _____ _____    ______ ____
ROOT
ATOM      1  N   UNL     1       4.851   3.531  18.141  0.00  0.00    +0.000 N 
ATOM      2  H   UNL     1       4.805   3.984  19.053  0.00  0.00    +0.000 HD
ENDROOT
BRANCH   1   6
ATOM      3  N   UNL     1       6.460   3.727  13.768  0.00  0.00    +0.000 N 
ATOM      4  C   UNL     1       6.407   4.241  15.018  0.00  0.00    +0.000 A 
ATOM      5  N   UNL     1       5.662   3.694  15.918  0.00  0.00    +0.000 NA
ATOM      6  C   UNL     1       5.614   4.224  17.194  0.00  0.00    +0.000 A 
ATOM      7  C   UNL     1       6.292   5.359  17.526  0.00  0.00    +0.000 A 
ATOM      8  C   UNL     1       7.158   5.968  16.472  0.00  0.00    +0.000 A 
ATOM      9  O   UNL     1       7.842   6.978  16.638  0.00  0.00    +0.000 OA
ATOM     10  N   UNL     1       7.164   5.333  15.265  0.00  0.00    +0.000 N 
ATOM     11  H   UNL     1       6.061   2.794  13.716  0.00  0.00    +0.000 HD
ATOM     12  H   UNL     1       7.327   3.818  13.254  0.00  0.00    +0.000 HD
ATOM     13  H   UNL     1       7.722   5.754  14.540  0.00  0.00    +0.000 HD
BRANCH   7  14
ATOM     14  N   UNL     1       6.336   5.955  18.728  0.00  0.00    +0.000 NA
ATOM     15  O   UNL     1       6.725   5.249  19.666  0.00  0.00    +0.000 OA
ENDBRANCH   7  14
ENDBRANCH   1   6
BRANCH   1  16
ATOM     16  C   UNL     1       3.796   2.588  17.822  0.00  0.00    +0.000 C 
BRANCH  16  17
ATOM     17  C   UNL     1       2.498   3.047  18.480  0.00  0.00    +0.000 C 
BRANCH  17  18
ATOM     18  C   UNL     1       2.705   4.259  19.382  0.00  0.00    +0.000 C 
BRANCH  18  19
ATOM     19  O   UNL     1       2.748   5.438  18.578  0.00  0.00    +0.000 OA
BRANCH  19  20
ATOM     20  C   UNL     1       2.293   6.586  19.163  0.00  0.00    +0.000 A 
ATOM     21  C   UNL     1       2.232   7.701  18.325  0.00  0.00    +0.000 A 
ATOM     22  C   UNL     1       1.752   8.922  18.803  0.00  0.00    +0.000 A 
ATOM     23  C   UNL     1       1.315   9.032  20.130  0.00  0.00    +0.000 A 
ATOM     24  C   UNL     1       1.344   7.908  20.960  0.00  0.00    +0.000 A 
ATOM     25  C   UNL     1       1.841   6.690  20.479  0.00  0.00    +0.000 A 
BRANCH  23  26
ATOM     26  C   UNL     1       0.773  10.341  20.580  0.00  0.00    +0.000 C 
ATOM     27  O   UNL     1       0.449  11.223  19.801  0.00  0.00    +0.000 OA
BRANCH  26  28
ATOM     28  O   UNL     1       0.702  10.485  21.917  0.00  0.00    +0.000 OA
ATOM     29  H   UNL     1       1.252   9.871  22.436  0.00  0.00    +0.000 HD
ENDBRANCH  26  28
ENDBRANCH  23  26
ENDBRANCH  19  20
ENDBRANCH  18  19
ENDBRANCH  17  18
ENDBRANCH  16  17
ENDBRANCH   1  16
TORSDOF 9
ENDMDL
MODEL 9
REMARK VINA RESULT:      -7.2      0.883      1.194
REMARK  Name = 
REMARK  9 active torsions:
REMARK  status: ('A' for Active; 'I' for Inactive)
REMARK    1  A    between atoms: C_4  and  N_5
REMARK    2  A    between atoms: N_5  and  C_6
REMARK    3  A    between atoms: C_6  and  C_7
REMARK    4  A    between atoms: C_7  and  C_8
REMARK    5  A    between atoms: C_8  and  O_9
REMARK    6  A    between atoms: O_9  and  C_10
REMARK    7  A    between atoms: C_13  and  C_14
REMARK    8  A    between atoms: C_14  and  O_16
REMARK    9  A    between atoms: C_19  and  N_20
REMARK                            x       y       z     vdW  Elec       q    Type
REMARK                         _______ _______ _______ _____ _____    ______ ____
ROOT
ATOM      1  N   UNL     1       5.935   3.799  16.964  0.00  0.00    +0.000 N 
ATOM      2  H   UNL     1       6.462   2.943  16.796  0.00  0.00    +0.000 HD
ENDROOT
BRANCH   1   6
ATOM      3  N   UNL     1       8.658   5.262  20.456  0.00  0.00    +0.000 N 
ATOM      4  C   UNL     1       8.008   5.513  19.296  0.00  0.00    +0.000 A 
ATOM      5  N   UNL     1       7.355   4.576  18.697  0.00  0.00    +0.000 NA
ATOM      6  C   UNL     1       6.692   4.840  17.513  0.00  0.00    +0.000 A 
ATOM      7  C   UNL     1       6.752   6.063  16.914  0.00  0.00    +0.000 A 
ATOM      8  C   UNL     1       7.504   7.136  17.631  0.00  0.00    +0.000 A 
ATOM      9  O   UNL     1       7.621   8.290  17.220  0.00  0.00    +0.000 OA
ATOM     10  N   UNL     1       8.077   6.774  18.815  0.00  0.00    +0.000 N 
ATOM     11  H   UNL     1       8.377   4.379  20.873  0.00  0.00    +0.000 HD
ATOM     12  H   UNL     1       8.735   6.013  21.129  0.00  0.00    +0.000 HD
ATOM     13  H   UNL     1       8.611   7.484  19.290  0.00  0.00    +0.000 HD
BRANCH   7  14
ATOM     14  N   UNL     1       6.141   6.441  15.781  0.00  0.00    +0.000 NA
ATOM     15  O   UNL     1       6.451   5.810  14.764  0.00  0.00    +0.000 OA
ENDBRANCH   7  14
ENDBRANCH   1   6
BRANCH   1  16
ATOM     16  C   UNL     1       4.495   3.670  17.087  0.00  0.00    +0.000 C 
BRANCH  16  17
ATOM     17  C   UNL     1       4.140   3.385  18.543  0.00  0.00    +0.000 C 
BRANCH  17  18
ATOM     18  C   UNL     1       3.826   4.658  19.321  0.00  0.00    +0.000 C 
BRANCH  18  19
ATOM     19  O   UNL     1       2.461   5.017  19.097  0.00  0.00    +0.000 OA
BRANCH  19  20
ATOM     20  C   UNL     1       2.099   6.280  19.472  0.00  0.00    +0.000 A 
ATOM     21  C   UNL     1       2.259   7.264  18.494  0.00  0.00    +0.000 A 
ATOM     22  C   UNL     1       1.892   8.586  18.752  0.00  0.00    +0.000 A 
ATOM     23  C   UNL     1       1.346   8.932  19.996  0.00  0.00    +0.000 A 
ATOM     24  C   UNL     1       1.153   7.941  20.963  0.00  0.00    +0.000 A 
ATOM     25  C   UNL     1       1.539   6.620  20.704  0.00  0.00    +0.000 A 
BRANCH  23  26
ATOM     26  C   UNL     1       0.931  10.344  20.207  0.00  0.00    +0.000 C 
ATOM     27  O   UNL     1       0.365  11.000  19.347  0.00  0.00    +0.000 OA
BRANCH  26  28
ATOM     28  O   UNL     1       1.262  10.847  21.412  0.00  0.00    +0.000 OA
ATOM     29  H   UNL     1       1.191  11.814  21.499  0.00  0.00    +0.000 HD
ENDBRANCH  26  28
ENDBRANCH  23  26
ENDBRANCH  19  20
ENDBRANCH  18  19
ENDBRANCH  17  18
ENDBRANCH  16  17
ENDBRANCH   1  16
TORSDOF 9
ENDMDL
