MODEL 1
REMARK VINA RESULT:      -8.4      0.000      0.000
REMARK  Name = 
REMARK  6 active torsions:
REMARK  status: ('A' for Active; 'I' for Inactive)
REMARK    1  A    between atoms: C_1  and  C_2
REMARK    2  A    between atoms: C_4  and  C_5
REMARK    3  A    between atoms: C_5  and  N_6
REMARK    4  A    between atoms: C_12  and  O_13
REMARK    5  A    between atoms: O_13  and  C_14
REMARK    6  A    between atoms: C_17  and  C_18
REMARK                            x       y       z     vdW  Elec       q    Type
REMARK                         _______ _______ _______ _____ _____    ______ ____
ROOT
ATOM      1  C   UNL     1       2.271   8.521  17.746  0.00  0.00    +0.000 C 
ATOM      2  C   UNL     1       3.054   7.335  18.226  0.00  0.00    +0.000 A 
ATOM      3  C   UNL     1       2.636   6.590  19.340  0.00  0.00    +0.000 A 
ATOM      4  C   UNL     1       3.352   5.459  19.766  0.00  0.00    +0.000 A 
ATOM      5  C   UNL     1       4.520   5.109  19.074  0.00  0.00    +0.000 A 
ATOM      6  C   UNL     1       4.984   5.882  18.012  0.00  0.00    +0.000 A 
ATOM      7  C   UNL     1       4.230   6.964  17.556  0.00  0.00    +0.000 A 
ENDROOT
BRANCH   4   8
ATOM      8  C   UNL     1       2.860   4.603  20.915  0.00  0.00    +0.000 C 
BRANCH   8   9
ATOM      9  N   UNL     1       2.134   3.370  20.595  0.00  0.00    +0.000 NA
ATOM     10  C   UNL     1       2.881   2.373  19.835  0.00  0.00    +0.000 C 
ATOM     11  C   UNL     1       2.366   2.482  18.414  0.00  0.00    +0.000 C 
ATOM     12  C   UNL     1       0.911   2.873  18.586  0.00  0.00    +0.000 C 
ATOM     13  C   UNL     1       0.831   3.541  19.954  0.00  0.00    +0.000 C 
ENDBRANCH   8   9
ENDBRANCH   4   8
BRANCH   6  14
ATOM     14  O   UNL     1       6.152   5.450  17.433  0.00  0.00    +0.000 OA
BRANCH  14  15
ATOM     15  C   UNL     1       6.155   5.020  16.127  0.00  0.00    +0.000 A 
ATOM     16  C   UNL     1       5.189   4.182  15.578  0.00  0.00    +0.000 A 
ATOM     17  C   UNL     1       5.343   3.757  14.258  0.00  0.00    +0.000 A 
ATOM     18  C   UNL     1       6.425   4.217  13.506  0.00  0.00    +0.000 A 
ATOM     19  C   UNL     1       7.281   5.125  14.110  0.00  0.00    +0.000 A 
ATOM     20  N   UNL     1       7.169   5.526  15.396  0.00  0.00    +0.000 NA
BRANCH  18  21
ATOM     21  C   UNL     1       6.700   3.762  12.109  0.00  0.00    +0.000 C 
ATOM     22  F   UNL     1       7.339   2.561  12.047  0.00  0.00    +0.000 F 
ATOM     23  F   UNL     1       5.568   3.623  11.368  0.00  0.00    +0.000 F 
ATOM     24  F   UNL     1       7.489   4.636  11.426  0.00  0.00    +0.000 F 
ENDBRANCH  18  21
ENDBRANCH  14  15
ENDBRANCH   6  14
TORSDOF 5
ENDMDL
MODEL 2
REMARK VINA RESULT:      -8.2      0.846      1.361
REMARK  Name = 
REMARK  6 active torsions:
REMARK  status: ('A' for Active; 'I' for Inactive)
REMARK    1  A    between atoms: C_1  and  C_2
REMARK    2  A    between atoms: C_4  and  C_5
REMARK    3  A    between atoms: C_5  and  N_6
REMARK    4  A    between atoms: C_12  and  O_13
REMARK    5  A    between atoms: O_13  and  C_14
REMARK    6  A    between atoms: C_17  and  C_18
REMARK                            x       y       z     vdW  Elec       q    Type
REMARK                         _______ _______ _______ _____ _____    ______ ____
ROOT
ATOM      1  C   UNL     1       2.123   8.443  17.678  0.00  0.00    +0.000 C 
ATOM      2  C   UNL     1       2.831   7.274  18.298  0.00  0.00    +0.000 A 
ATOM      3  C   UNL     1       2.302   6.615  19.418  0.00  0.00    +0.000 A 
ATOM      4  C   UNL     1       2.948   5.499  19.975  0.00  0.00    +0.000 A 
ATOM      5  C   UNL     1       4.159   5.077  19.408  0.00  0.00    +0.000 A 
ATOM      6  C   UNL     1       4.730   5.767  18.340  0.00  0.00    +0.000 A 
ATOM      7  C   UNL     1       4.046   6.832  17.754  0.00  0.00    +0.000 A 
ENDROOT
BRANCH   4   8
ATOM      8  C   UNL     1       2.340   4.732  21.131  0.00  0.00    +0.000 C 
BRANCH   8   9
ATOM      9  N   UNL     1       1.659   3.467  20.839  0.00  0.00    +0.000 NA
ATOM     10  C   UNL     1       2.527   2.319  20.600  0.00  0.00    +0.000 C 
ATOM     11  C   UNL     1       2.526   2.120  19.098  0.00  0.00    +0.000 C 
ATOM     12  C   UNL     1       1.136   2.555  18.676  0.00  0.00    +0.000 C 
ATOM     13  C   UNL     1       0.663   3.508  19.769  0.00  0.00    +0.000 C 
ENDBRANCH   8   9
ENDBRANCH   4   8
BRANCH   6  14
ATOM     14  O   UNL     1       5.929   5.272  17.891  0.00  0.00    +0.000 OA
BRANCH  14  15
ATOM     15  C   UNL     1       6.063   4.876  16.580  0.00  0.00    +0.000 A 
ATOM     16  C   UNL     1       7.093   5.291  15.740  0.00  0.00    +0.000 A 
ATOM     17  C   UNL     1       7.078   4.876  14.408  0.00  0.00    +0.000 A 
ATOM     18  C   UNL     1       6.069   4.020  13.963  0.00  0.00    +0.000 A 
ATOM     19  C   UNL     1       5.144   3.585  14.898  0.00  0.00    +0.000 A 
ATOM     20  N   UNL     1       5.120   3.998  16.184  0.00  0.00    +0.000 NA
BRANCH  18  21
ATOM     21  C   UNL     1       5.943   3.580  12.540  0.00  0.00    +0.000 C 
ATOM     22  F   UNL     1       6.758   4.262  11.688  0.00  0.00    +0.000 F 
ATOM     23  F   UNL     1       6.238   2.264  12.367  0.00  0.00    +0.000 F 
ATOM     24  F   UNL     1       4.681   3.748  12.056  0.00  0.00    +0.000 F 
ENDBRANCH  18  21
ENDBRANCH  14  15
ENDBRANCH   6  14
TORSDOF 5
ENDMDL
MODEL 3
REMARK VINA RESULT:      -8.0      5.766      7.589
REMARK  Name = 
REMARK  6 active torsions:
REMARK  status: ('A' for Active; 'I' for Inactive)
REMARK    1  A    between atoms: C_1  and  C_2
REMARK    2  A    between atoms: C_4  and  C_5
REMARK    3  A    between atoms: C_5  and  N_6
REMARK    4  A    between atoms: C_12  and  O_13
REMARK    5  A    between atoms: O_13  and  C_14
REMARK    6  A    between atoms: C_17  and  C_18
REMARK                            x       y       z     vdW  Elec       q    Type
REMARK                         _______ _______ _______ _____ _____    ______ ____
ROOT
ATOM      1  C   UNL     1       6.962   5.296  17.429  0.00  0.00    +0.000 C 
ATOM      2  C   UNL     1       5.464   5.284  17.518  0.00  0.00    +0.000 A 
ATOM      3  C   UNL     1       4.745   4.079  17.499  0.00  0.00    +0.000 A 
ATOM      4  C   UNL     1       3.345   4.068  17.617  0.00  0.00    +0.000 A 
ATOM      5  C   UNL     1       2.674   5.296  17.718  0.00  0.00    +0.000 A 
ATOM      6  C   UNL     1       3.372   6.501  17.665  0.00  0.00    +0.000 A 
ATOM      7  C   UNL     1       4.766   6.497  17.614  0.00  0.00    +0.000 A 
ENDROOT
BRANCH   4   8
ATOM      8  C   UNL     1       2.570   2.768  17.682  0.00  0.00    +0.000 C 
BRANCH   8   9
ATOM      9  N   UNL     1       2.176   2.265  19.001  0.00  0.00    +0.000 NA
ATOM     10  C   UNL     1       0.819   2.594  19.426  0.00  0.00    +0.000 C 
ATOM     11  C   UNL     1       0.973   3.721  20.427  0.00  0.00    +0.000 C 
ATOM     12  C   UNL     1       2.297   3.425  21.104  0.00  0.00    +0.000 C 
ATOM     13  C   UNL     1       3.081   2.581  20.105  0.00  0.00    +0.000 C 
ENDBRANCH   8   9
ENDBRANCH   4   8
BRANCH   6  14
ATOM     14  O   UNL     1       2.600   7.634  17.748  0.00  0.00    +0.000 OA
BRANCH  14  15
ATOM     15  C   UNL     1       2.070   8.019  18.956  0.00  0.00    +0.000 A 
ATOM     16  C   UNL     1       2.174   7.277  20.129  0.00  0.00    +0.000 A 
ATOM     17  C   UNL     1       1.530   7.741  21.275  0.00  0.00    +0.000 A 
ATOM     18  C   UNL     1       0.843   8.955  21.238  0.00  0.00    +0.000 A 
ATOM     19  C   UNL     1       0.877   9.670  20.051  0.00  0.00    +0.000 A 
ATOM     20  N   UNL     1       1.467   9.225  18.919  0.00  0.00    +0.000 NA
BRANCH  18  21
ATOM     21  C   UNL     1       0.073   9.493  22.400  0.00  0.00    +0.000 C 
ATOM     22  F   UNL     1      -0.282  10.801  22.256  0.00  0.00    +0.000 F 
ATOM     23  F   UNL     1      -1.083   8.814  22.627  0.00  0.00    +0.000 F 
ATOM     24  F   UNL     1       0.779   9.429  23.563  0.00  0.00    +0.000 F 
ENDBRANCH  18  21
ENDBRANCH  14  15
ENDBRANCH   6  14
TORSDOF 5
ENDMDL
MODEL 4
REMARK VINA RESULT:      -7.9      5.096      7.397
REMARK  Name = 
REMARK  6 active torsions:
REMARK  status: ('A' for Active; 'I' for Inactive)
REMARK    1  A    between atoms: C_1  and  C_2
REMARK    2  A    between atoms: C_4  and  C_5
REMARK    3  A    between atoms: C_5  and  N_6
REMARK    4  A    between atoms: C_12  and  O_13
REMARK    5  A    between atoms: O_13  and  C_14
REMARK    6  A    between atoms: C_17  and  C_18
REMARK                            x       y       z     vdW  Elec       q    Type
REMARK                         _______ _______ _______ _____ _____    ______ ____
ROOT
ATOM      1  C   UNL     1      -0.502  10.215  23.120  0.00  0.00    +0.000 C 
ATOM      2  C   UNL     1      -0.093   9.877  21.716  0.00  0.00    +0.000 A 
ATOM      3  C   UNL     1      -0.774  10.412  20.612  0.00  0.00    +0.000 A 
ATOM      4  C   UNL     1      -0.368  10.122  19.299  0.00  0.00    +0.000 A 
ATOM      5  C   UNL     1       0.716   9.253  19.112  0.00  0.00    +0.000 A 
ATOM      6  C   UNL     1       1.356   8.660  20.199  0.00  0.00    +0.000 A 
ATOM      7  C   UNL     1       0.986   9.007  21.499  0.00  0.00    +0.000 A 
ENDROOT
BRANCH   4   8
ATOM      8  C   UNL     1      -1.046  10.763  18.105  0.00  0.00    +0.000 C 
BRANCH   8   9
ATOM      9  N   UNL     1      -2.343  10.228  17.679  0.00  0.00    +0.000 NA
ATOM     10  C   UNL     1      -2.447   9.864  16.270  0.00  0.00    +0.000 C 
ATOM     11  C   UNL     1      -3.231  10.987  15.621  0.00  0.00    +0.000 C 
ATOM     12  C   UNL     1      -4.179  11.444  16.713  0.00  0.00    +0.000 C 
ATOM     13  C   UNL     1      -3.514  11.035  18.023  0.00  0.00    +0.000 C 
ENDBRANCH   8   9
ENDBRANCH   4   8
BRANCH   6  14
ATOM     14  O   UNL     1       2.386   7.808  19.885  0.00  0.00    +0.000 OA
BRANCH  14  15
ATOM     15  C   UNL     1       2.132   6.478  19.650  0.00  0.00    +0.000 A 
ATOM     16  C   UNL     1       1.611   5.601  20.597  0.00  0.00    +0.000 A 
ATOM     17  C   UNL     1       1.466   4.257  20.257  0.00  0.00    +0.000 A 
ATOM     18  C   UNL     1       1.794   3.830  18.969  0.00  0.00    +0.000 A 
ATOM     19  C   UNL     1       2.214   4.795  18.067  0.00  0.00    +0.000 A 
ATOM     20  N   UNL     1       2.392   6.097  18.382  0.00  0.00    +0.000 NA
BRANCH  18  21
ATOM     21  C   UNL     1       1.730   2.400  18.542  0.00  0.00    +0.000 C 
ATOM     22  F   UNL     1       2.462   1.565  19.333  0.00  0.00    +0.000 F 
ATOM     23  F   UNL     1       0.463   1.904  18.547  0.00  0.00    +0.000 F 
ATOM     24  F   UNL     1       2.199   2.215  17.278  0.00  0.00    +0.000 F 
ENDBRANCH  18  21
ENDBRANCH  14  15
ENDBRANCH   6  14
TORSDOF 5
ENDMDL
MODEL 5
REMARK VINA RESULT:      -7.9      5.747      7.412
REMARK  Name = 
REMARK  6 active torsions:
REMARK  status: ('A' for Active; 'I' for Inactive)
REMARK    1  A    between atoms: C_1  and  C_2
REMARK    2  A    between atoms: C_4  and  C_5
REMARK    3  A    between atoms: C_5  and  N_6
REMARK    4  A    between atoms: C_12  and  O_13
REMARK    5  A    between atoms: O_13  and  C_14
REMARK    6  A    between atoms: C_17  and  C_18
REMARK                            x       y       z     vdW  Elec       q    Type
REMARK                         _______ _______ _______ _____ _____    ______ ____
ROOT
ATOM      1  C   UNL     1       7.431   5.663  18.698  0.00  0.00    +0.000 C 
ATOM      2  C   UNL     1       5.974   5.497  18.380  0.00  0.00    +0.000 A 
ATOM      3  C   UNL     1       5.391   4.225  18.285  0.00  0.00    +0.000 A 
ATOM      4  C   UNL     1       4.019   4.073  18.022  0.00  0.00    +0.000 A 
ATOM      5  C   UNL     1       3.248   5.226  17.817  0.00  0.00    +0.000 A 
ATOM      6  C   UNL     1       3.830   6.491  17.838  0.00  0.00    +0.000 A 
ATOM      7  C   UNL     1       5.178   6.633  18.166  0.00  0.00    +0.000 A 
ENDROOT
BRANCH   4   8
ATOM      8  C   UNL     1       3.368   2.706  18.002  0.00  0.00    +0.000 C 
BRANCH   8   9
ATOM      9  N   UNL     1       2.663   2.259  19.207  0.00  0.00    +0.000 NA
ATOM     10  C   UNL     1       1.211   2.406  19.184  0.00  0.00    +0.000 C 
ATOM     11  C   UNL     1       0.916   3.623  20.037  0.00  0.00    +0.000 C 
ATOM     12  C   UNL     1       2.003   3.596  21.094  0.00  0.00    +0.000 C 
ATOM     13  C   UNL     1       3.149   2.804  20.474  0.00  0.00    +0.000 C 
ENDBRANCH   8   9
ENDBRANCH   4   8
BRANCH   6  14
ATOM     14  O   UNL     1       2.974   7.539  17.599  0.00  0.00    +0.000 OA
BRANCH  14  15
ATOM     15  C   UNL     1       2.213   8.054  18.621  0.00  0.00    +0.000 A 
ATOM     16  C   UNL     1       1.481   9.235  18.532  0.00  0.00    +0.000 A 
ATOM     17  C   UNL     1       0.805   9.690  19.664  0.00  0.00    +0.000 A 
ATOM     18  C   UNL     1       0.834   8.934  20.837  0.00  0.00    +0.000 A 
ATOM     19  C   UNL     1       1.509   7.724  20.799  0.00  0.00    +0.000 A 
ATOM     20  N   UNL     1       2.197   7.278  19.724  0.00  0.00    +0.000 NA
BRANCH  18  21
ATOM     21  C   UNL     1       0.192   9.380  22.111  0.00  0.00    +0.000 C 
ATOM     22  F   UNL     1      -0.278  10.658  22.062  0.00  0.00    +0.000 F 
ATOM     23  F   UNL     1      -0.868   8.604  22.467  0.00  0.00    +0.000 F 
ATOM     24  F   UNL     1       1.053   9.343  23.165  0.00  0.00    +0.000 F 
ENDBRANCH  18  21
ENDBRANCH  14  15
ENDBRANCH   6  14
TORSDOF 5
ENDMDL
MODEL 6
REMARK VINA RESULT:      -7.7      0.776      1.031
REMARK  Name = 
REMARK  6 active torsions:
REMARK  status: ('A' for Active; 'I' for Inactive)
REMARK    1  A    between atoms: C_1  and  C_2
REMARK    2  A    between atoms: C_4  and  C_5
REMARK    3  A    between atoms: C_5  and  N_6
REMARK    4  A    between atoms: C_12  and  O_13
REMARK    5  A    between atoms: O_13  and  C_14
REMARK    6  A    between atoms: C_17  and  C_18
REMARK                            x       y       z     vdW  Elec       q    Type
REMARK                         _______ _______ _______ _____ _____    ______ ____
ROOT
ATOM      1  C   UNL     1       1.816   8.752  17.875  0.00  0.00    +0.000 C 
ATOM      2  C   UNL     1       2.609   7.578  18.368  0.00  0.00    +0.000 A 
ATOM      3  C   UNL     1       2.188   6.831  19.479  0.00  0.00    +0.000 A 
ATOM      4  C   UNL     1       2.914   5.710  19.917  0.00  0.00    +0.000 A 
ATOM      5  C   UNL     1       4.094   5.374  19.240  0.00  0.00    +0.000 A 
ATOM      6  C   UNL     1       4.560   6.150  18.181  0.00  0.00    +0.000 A 
ATOM      7  C   UNL     1       3.797   7.220  17.713  0.00  0.00    +0.000 A 
ENDROOT
BRANCH   4   8
ATOM      8  C   UNL     1       2.419   4.851  21.062  0.00  0.00    +0.000 C 
BRANCH   8   9
ATOM      9  N   UNL     1       1.384   3.852  20.779  0.00  0.00    +0.000 NA
ATOM     10  C   UNL     1       1.753   2.465  21.040  0.00  0.00    +0.000 C 
ATOM     11  C   UNL     1       2.038   1.862  19.679  0.00  0.00    +0.000 C 
ATOM     12  C   UNL     1       1.084   2.592  18.753  0.00  0.00    +0.000 C 
ATOM     13  C   UNL     1       0.780   3.915  19.449  0.00  0.00    +0.000 C 
ENDBRANCH   8   9
ENDBRANCH   4   8
BRANCH   6  14
ATOM     14  O   UNL     1       5.741   5.732  17.617  0.00  0.00    +0.000 OA
BRANCH  14  15
ATOM     15  C   UNL     1       5.736   5.115  16.388  0.00  0.00    +0.000 A 
ATOM     16  C   UNL     1       5.272   3.822  16.165  0.00  0.00    +0.000 A 
ATOM     17  C   UNL     1       5.388   3.280  14.885  0.00  0.00    +0.000 A 
ATOM     18  C   UNL     1       5.915   4.057  13.851  0.00  0.00    +0.000 A 
ATOM     19  C   UNL     1       6.260   5.365  14.150  0.00  0.00    +0.000 A 
ATOM     20  N   UNL     1       6.187   5.901  15.389  0.00  0.00    +0.000 NA
BRANCH  18  21
ATOM     21  C   UNL     1       6.133   3.535  12.468  0.00  0.00    +0.000 C 
ATOM     22  F   UNL     1       7.247   4.041  11.868  0.00  0.00    +0.000 F 
ATOM     23  F   UNL     1       6.270   2.182  12.431  0.00  0.00    +0.000 F 
ATOM     24  F   UNL     1       5.099   3.829  11.634  0.00  0.00    +0.000 F 
ENDBRANCH  18  21
ENDBRANCH  14  15
ENDBRANCH   6  14
TORSDOF 5
ENDMDL
MODEL 7
REMARK VINA RESULT:      -7.6      4.403      5.393
REMARK  Name = 
REMARK  6 active torsions:
REMARK  status: ('A' for Active; 'I' for Inactive)
REMARK    1  A    between atoms: C_1  and  C_2
REMARK    2  A    between atoms: C_4  and  C_5
REMARK    3  A    between atoms: C_5  and  N_6
REMARK    4  A    between atoms: C_12  and  O_13
REMARK    5  A    between atoms: O_13  and  C_14
REMARK    6  A    between atoms: C_17  and  C_18
REMARK                            x       y       z     vdW  Elec       q    Type
REMARK                         _______ _______ _______ _____ _____    ______ ____
ROOT
ATOM      1  C   UNL     1       2.085   7.956  18.584  0.00  0.00    +0.000 C 
ATOM      2  C   UNL     1       2.915   6.802  18.104  0.00  0.00    +0.000 A 
ATOM      3  C   UNL     1       2.379   5.508  18.017  0.00  0.00    +0.000 A 
ATOM      4  C   UNL     1       3.147   4.435  17.534  0.00  0.00    +0.000 A 
ATOM      5  C   UNL     1       4.480   4.679  17.173  0.00  0.00    +0.000 A 
ATOM      6  C   UNL     1       5.044   5.943  17.322  0.00  0.00    +0.000 A 
ATOM      7  C   UNL     1       4.253   7.014  17.740  0.00  0.00    +0.000 A 
ENDROOT
BRANCH   4   8
ATOM      8  C   UNL     1       2.548   3.055  17.359  0.00  0.00    +0.000 C 
BRANCH   8   9
ATOM      9  N   UNL     1       2.279   2.261  18.561  0.00  0.00    +0.000 NA
ATOM     10  C   UNL     1       0.903   2.290  19.045  0.00  0.00    +0.000 C 
ATOM     11  C   UNL     1       0.917   3.222  20.240  0.00  0.00    +0.000 C 
ATOM     12  C   UNL     1       2.292   3.016  20.844  0.00  0.00    +0.000 C 
ATOM     13  C   UNL     1       3.162   2.504  19.701  0.00  0.00    +0.000 C 
ENDBRANCH   8   9
ENDBRANCH   4   8
BRANCH   6  14
ATOM     14  O   UNL     1       6.364   6.048  16.959  0.00  0.00    +0.000 OA
BRANCH  14  15
ATOM     15  C   UNL     1       7.164   7.006  17.537  0.00  0.00    +0.000 A 
ATOM     16  C   UNL     1       8.012   6.769  18.615  0.00  0.00    +0.000 A 
ATOM     17  C   UNL     1       8.719   7.842  19.159  0.00  0.00    +0.000 A 
ATOM     18  C   UNL     1       8.602   9.109  18.584  0.00  0.00    +0.000 A 
ATOM     19  C   UNL     1       7.808   9.225  17.454  0.00  0.00    +0.000 A 
ATOM     20  N   UNL     1       7.089   8.208  16.929  0.00  0.00    +0.000 NA
BRANCH  18  21
ATOM     21  C   UNL     1       9.272  10.322  19.142  0.00  0.00    +0.000 C 
ATOM     22  F   UNL     1       9.308  10.343  20.504  0.00  0.00    +0.000 F 
ATOM     23  F   UNL     1      10.563  10.447  18.731  0.00  0.00    +0.000 F 
ATOM     24  F   UNL     1       8.649  11.475  18.772  0.00  0.00    +0.000 F 
ENDBRANCH  18  21
ENDBRANCH  14  15
ENDBRANCH   6  14
TORSDOF 5
ENDMDL
MODEL 8
REMARK VINA RESULT:      -7.5      5.328      8.122
REMARK  Name = 
REMARK  6 active torsions:
REMARK  status: ('A' for Active; 'I' for Inactive)
REMARK    1  A    between atoms: C_1  and  C_2
REMARK    2  A    between atoms: C_4  and  C_5
REMARK    3  A    between atoms: C_5  and  N_6
REMARK    4  A    between atoms: C_12  and  O_13
REMARK    5  A    between atoms: O_13  and  C_14
REMARK    6  A    between atoms: C_17  and  C_18
REMARK                            x       y       z     vdW  Elec       q    Type
REMARK                         _______ _______ _______ _____ _____    ______ ____
ROOT
ATOM      1  C   UNL     1       2.089   2.953  18.248  0.00  0.00    +0.000 C 
ATOM      2  C   UNL     1       2.731   4.303  18.126  0.00  0.00    +0.000 A 
ATOM      3  C   UNL     1       3.722   4.553  17.165  0.00  0.00    +0.000 A 
ATOM      4  C   UNL     1       4.297   5.827  17.029  0.00  0.00    +0.000 A 
ATOM      5  C   UNL     1       3.883   6.842  17.904  0.00  0.00    +0.000 A 
ATOM      6  C   UNL     1       2.952   6.588  18.908  0.00  0.00    +0.000 A 
ATOM      7  C   UNL     1       2.341   5.337  18.990  0.00  0.00    +0.000 A 
ENDROOT
BRANCH   4   8
ATOM      8  C   UNL     1       5.306   6.124  15.939  0.00  0.00    +0.000 C 
BRANCH   8   9
ATOM      9  N   UNL     1       6.730   6.088  16.287  0.00  0.00    +0.000 NA
ATOM     10  C   UNL     1       7.280   4.768  16.574  0.00  0.00    +0.000 C 
ATOM     11  C   UNL     1       7.396   4.700  18.083  0.00  0.00    +0.000 C 
ATOM     12  C   UNL     1       7.697   6.130  18.487  0.00  0.00    +0.000 C 
ATOM     13  C   UNL     1       7.151   6.993  17.355  0.00  0.00    +0.000 C 
ENDBRANCH   8   9
ENDBRANCH   4   8
BRANCH   6  14
ATOM     14  O   UNL     1       2.649   7.656  19.716  0.00  0.00    +0.000 OA
BRANCH  14  15
ATOM     15  C   UNL     1       1.619   8.503  19.380  0.00  0.00    +0.000 A 
ATOM     16  C   UNL     1       1.344   8.923  18.082  0.00  0.00    +0.000 A 
ATOM     17  C   UNL     1       0.315   9.842  17.879  0.00  0.00    +0.000 A 
ATOM     18  C   UNL     1      -0.445  10.279  18.965  0.00  0.00    +0.000 A 
ATOM     19  C   UNL     1      -0.158   9.731  20.205  0.00  0.00    +0.000 A 
ATOM     20  N   UNL     1       0.854   8.864  20.431  0.00  0.00    +0.000 NA
BRANCH  18  21
ATOM     21  C   UNL     1      -1.522  11.309  18.846  0.00  0.00    +0.000 C 
ATOM     22  F   UNL     1      -1.268  12.249  17.893  0.00  0.00    +0.000 F 
ATOM     23  F   UNL     1      -2.731  10.773  18.531  0.00  0.00    +0.000 F 
ATOM     24  F   UNL     1      -1.708  11.999  20.004  0.00  0.00    +0.000 F 
ENDBRANCH  18  21
ENDBRANCH  14  15
ENDBRANCH   6  14
TORSDOF 5
ENDMDL
MODEL 9
REMARK VINA RESULT:      -7.5      5.809      7.476
REMARK  Name = 
REMARK  6 active torsions:
REMARK  status: ('A' for Active; 'I' for Inactive)
REMARK    1  A    between atoms: C_1  and  C_2
REMARK    2  A    between atoms: C_4  and  C_5
REMARK    3  A    between atoms: C_5  and  N_6
REMARK    4  A    between atoms: C_12  and  O_13
REMARK    5  A    between atoms: O_13  and  C_14
REMARK    6  A    between atoms: C_17  and  C_18
REMARK                            x       y       z     vdW  Elec       q    Type
REMARK                         _______ _______ _______ _____ _____    ______ ____
ROOT
ATOM      1  C   UNL     1       7.132   5.877  18.509  0.00  0.00    +0.000 C 
ATOM      2  C   UNL     1       5.678   5.611  18.252  0.00  0.00    +0.000 A 
ATOM      3  C   UNL     1       5.174   4.301  18.215  0.00  0.00    +0.000 A 
ATOM      4  C   UNL     1       3.806   4.056  18.010  0.00  0.00    +0.000 A 
ATOM      5  C   UNL     1       2.955   5.151  17.805  0.00  0.00    +0.000 A 
ATOM      6  C   UNL     1       3.455   6.451  17.768  0.00  0.00    +0.000 A 
ATOM      7  C   UNL     1       4.803   6.687  18.039  0.00  0.00    +0.000 A 
ENDROOT
BRANCH   4   8
ATOM      8  C   UNL     1       3.244   2.650  18.052  0.00  0.00    +0.000 C 
BRANCH   8   9
ATOM      9  N   UNL     1       2.600   2.201  19.291  0.00  0.00    +0.000 NA
ATOM     10  C   UNL     1       1.155   2.391  19.360  0.00  0.00    +0.000 C 
ATOM     11  C   UNL     1       0.951   3.600  20.251  0.00  0.00    +0.000 C 
ATOM     12  C   UNL     1       2.100   3.519  21.238  0.00  0.00    +0.000 C 
ATOM     13  C   UNL     1       3.180   2.706  20.534  0.00  0.00    +0.000 C 
ENDBRANCH   8   9
ENDBRANCH   4   8
BRANCH   6  14
ATOM     14  O   UNL     1       2.526   7.434  17.534  0.00  0.00    +0.000 OA
BRANCH  14  15
ATOM     15  C   UNL     1       2.015   8.163  18.582  0.00  0.00    +0.000 A 
ATOM     16  C   UNL     1       1.966   7.711  19.898  0.00  0.00    +0.000 A 
ATOM     17  C   UNL     1       1.356   8.516  20.860  0.00  0.00    +0.000 A 
ATOM     18  C   UNL     1       0.859   9.769  20.498  0.00  0.00    +0.000 A 
ATOM     19  C   UNL     1       1.042  10.172  19.184  0.00  0.00    +0.000 A 
ATOM     20  N   UNL     1       1.600   9.397  18.229  0.00  0.00    +0.000 NA
BRANCH  18  21
ATOM     21  C   UNL     1       0.137  10.666  21.450  0.00  0.00    +0.000 C 
ATOM     22  F   UNL     1       0.098  10.185  22.724  0.00  0.00    +0.000 F 
ATOM     23  F   UNL     1       0.693  11.905  21.534  0.00  0.00    +0.000 F 
ATOM     24  F   UNL     1      -1.162  10.863  21.092  0.00  0.00    +0.000 F 
ENDBRANCH  18  21
ENDBRANCH  14  15
ENDBRANCH   6  14
TORSDOF 5
ENDMDL
