MODEL 1
REMARK VINA RESULT:      -9.2      0.000      0.000
REMARK  Name = 
REMARK  6 active torsions:
REMARK  status: ('A' for Active; 'I' for Inactive)
REMARK    1  A    between atoms: C_1  and  C_2
REMARK    2  A    between atoms: N_10  and  C_11
REMARK    3  A    between atoms: C_11  and  C_12
REMARK    4  A    between atoms: C_12  and  C_13
REMARK    5  A    between atoms: C_13  and  N_14
REMARK    6  A    between atoms: N_14  and  C_26
REMARK                            x       y       z     vdW  Elec       q    Type
REMARK                         _______ _______ _______ _____ _____    ______ ____
ROOT
ATOM      1  N   UNL     1       4.465   5.624  18.289  0.00  0.00    +0.000 N 
ATOM      2  C   UNL     1       4.190   4.399  18.917  0.00  0.00    +0.000 C 
ATOM      3  N   UNL     1       5.054   3.418  18.958  0.00  0.00    +0.000 NA
ATOM      4  S   UNL     1       4.454   2.086  19.701  0.00  0.00    +0.000 S 
ATOM      5  O   UNL     1       5.125   1.872  20.969  0.00  0.00    +0.000 OA
ATOM      6  O   UNL     1       4.237   1.021  18.736  0.00  0.00    +0.000 OA
ATOM      7  C   UNL     1       2.905   2.773  20.054  0.00  0.00    +0.000 A 
ATOM      8  C   UNL     1       1.851   2.156  20.709  0.00  0.00    +0.000 A 
ATOM      9  C   UNL     1       0.695   2.906  20.897  0.00  0.00    +0.000 A 
ATOM     10  C   UNL     1       0.645   4.239  20.480  0.00  0.00    +0.000 A 
ATOM     11  C   UNL     1       1.753   4.838  19.868  0.00  0.00    +0.000 A 
ATOM     12  C   UNL     1       2.882   4.078  19.598  0.00  0.00    +0.000 A 
ENDROOT
BRANCH   1  13
ATOM     13  C   UNL     1       5.790   6.166  18.223  0.00  0.00    +0.000 A 
ATOM     14  C   UNL     1       6.806   5.734  19.097  0.00  0.00    +0.000 A 
ATOM     15  C   UNL     1       8.069   6.342  19.120  0.00  0.00    +0.000 A 
ATOM     16  C   UNL     1       8.358   7.392  18.249  0.00  0.00    +0.000 A 
ATOM     17  C   UNL     1       7.400   7.807  17.344  0.00  0.00    +0.000 A 
ATOM     18  C   UNL     1       6.141   7.204  17.334  0.00  0.00    +0.000 A 
ENDBRANCH   1  13
BRANCH   1  19
ATOM     19  C   UNL     1       3.449   6.452  17.622  0.00  0.00    +0.000 C 
BRANCH  19  20
ATOM     20  C   UNL     1       2.800   7.495  18.527  0.00  0.00    +0.000 C 
BRANCH  20  21
ATOM     21  C   UNL     1       2.509   8.776  17.735  0.00  0.00    +0.000 C 
BRANCH  21  31
ATOM     22  C   UNL     1      -5.484  11.298  17.650  0.00  0.00    +0.000 C 
ATOM     23  C   UNL     1      -4.484  12.004  18.527  0.00  0.00    +0.000 C 
ATOM     24  O   UNL     1      -4.867  12.783  19.397  0.00  0.00    +0.000 OA
ATOM     25  N   UNL     1      -3.150  11.687  18.341  0.00  0.00    +0.000 N 
ATOM     26  C   UNL     1      -2.145  12.203  19.279  0.00  0.00    +0.000 C 
ATOM     27  C   UNL     1      -1.294  11.054  19.841  0.00  0.00    +0.000 C 
ATOM     28  N   UNL     1      -0.727  10.230  18.756  0.00  0.00    +0.000 N 
ATOM     29  C   UNL     1       0.614   9.918  18.815  0.00  0.00    +0.000 C 
ATOM     30  O   UNL     1       1.340  10.291  19.729  0.00  0.00    +0.000 OA
ATOM     31  N   UNL     1       1.102   9.152  17.793  0.00  0.00    +0.000 N 
ATOM     32  C   UNL     1      -1.736   9.720  17.816  0.00  0.00    +0.000 C 
ATOM     33  C   UNL     1      -2.600  10.863  17.259  0.00  0.00    +0.000 C 
ATOM     34  H   UNL     1       0.572   9.065  16.947  0.00  0.00    +0.000 HD
ENDBRANCH  21  31
ENDBRANCH  20  21
ENDBRANCH  19  20
ENDBRANCH   1  19
TORSDOF 5
ENDMDL
MODEL 2
REMARK VINA RESULT:      -9.0      2.675      4.956
REMARK  Name = 
REMARK  6 active torsions:
REMARK  status: ('A' for Active; 'I' for Inactive)
REMARK    1  A    between atoms: C_1  and  C_2
REMARK    2  A    between atoms: N_10  and  C_11
REMARK    3  A    between atoms: C_11  and  C_12
REMARK    4  A    between atoms: C_12  and  C_13
REMARK    5  A    between atoms: C_13  and  N_14
REMARK    6  A    between atoms: N_14  and  C_26
REMARK                            x       y       z     vdW  Elec       q    Type
REMARK                         _______ _______ _______ _____ _____    ______ ____
ROOT
ATOM      1  N   UNL     1       3.663   4.328  18.311  0.00  0.00    +0.000 N 
ATOM      2  C   UNL     1       4.988   4.630  17.962  0.00  0.00    +0.000 C 
ATOM      3  N   UNL     1       5.889   4.974  18.845  0.00  0.00    +0.000 NA
ATOM      4  S   UNL     1       7.336   5.326  18.160  0.00  0.00    +0.000 S 
ATOM      5  O   UNL     1       8.316   4.315  18.507  0.00  0.00    +0.000 OA
ATOM      6  O   UNL     1       7.609   6.751  18.253  0.00  0.00    +0.000 OA
ATOM      7  C   UNL     1       6.833   5.011  16.533  0.00  0.00    +0.000 A 
ATOM      8  C   UNL     1       7.607   5.116  15.389  0.00  0.00    +0.000 A 
ATOM      9  C   UNL     1       6.997   4.801  14.180  0.00  0.00    +0.000 A 
ATOM     10  C   UNL     1       5.674   4.349  14.156  0.00  0.00    +0.000 A 
ATOM     11  C   UNL     1       4.945   4.208  15.344  0.00  0.00    +0.000 A 
ATOM     12  C   UNL     1       5.513   4.600  16.547  0.00  0.00    +0.000 A 
ENDROOT
BRANCH   1  13
ATOM     13  C   UNL     1       3.321   3.749  19.577  0.00  0.00    +0.000 A 
ATOM     14  C   UNL     1       3.918   2.555  20.024  0.00  0.00    +0.000 A 
ATOM     15  C   UNL     1       3.503   1.919  21.203  0.00  0.00    +0.000 A 
ATOM     16  C   UNL     1       2.487   2.474  21.980  0.00  0.00    +0.000 A 
ATOM     17  C   UNL     1       1.915   3.672  21.596  0.00  0.00    +0.000 A 
ATOM     18  C   UNL     1       2.326   4.294  20.416  0.00  0.00    +0.000 A 
ENDBRANCH   1  13
BRANCH   1  19
ATOM     19  C   UNL     1       2.504   4.594  17.445  0.00  0.00    +0.000 C 
BRANCH  19  20
ATOM     20  C   UNL     1       1.718   5.848  17.822  0.00  0.00    +0.000 C 
BRANCH  20  21
ATOM     21  C   UNL     1       2.679   6.996  18.151  0.00  0.00    +0.000 C 
BRANCH  21  31
ATOM     22  C   UNL     1      -1.349  12.509  23.014  0.00  0.00    +0.000 C 
ATOM     23  C   UNL     1      -1.374  12.669  21.517  0.00  0.00    +0.000 C 
ATOM     24  O   UNL     1      -1.775  13.718  21.015  0.00  0.00    +0.000 OA
ATOM     25  N   UNL     1      -0.878  11.621  20.762  0.00  0.00    +0.000 N 
ATOM     26  C   UNL     1      -0.710  11.787  19.313  0.00  0.00    +0.000 C 
ATOM     27  C   UNL     1       0.726  11.436  18.895  0.00  0.00    +0.000 C 
ATOM     28  N   UNL     1       1.116  10.103  19.391  0.00  0.00    +0.000 N 
ATOM     29  C   UNL     1       1.713   9.233  18.503  0.00  0.00    +0.000 C 
ATOM     30  O   UNL     1       1.934   9.529  17.335  0.00  0.00    +0.000 OA
ATOM     31  N   UNL     1       2.061   8.008  18.999  0.00  0.00    +0.000 N 
ATOM     32  C   UNL     1       0.941   9.939  20.842  0.00  0.00    +0.000 C 
ATOM     33  C   UNL     1      -0.491  10.300  21.269  0.00  0.00    +0.000 C 
ATOM     34  H   UNL     1       1.661   7.695  19.864  0.00  0.00    +0.000 HD
ENDBRANCH  21  31
ENDBRANCH  20  21
ENDBRANCH  19  20
ENDBRANCH   1  19
TORSDOF 5
ENDMDL
MODEL 3
REMARK VINA RESULT:      -8.9      2.507      3.909
REMARK  Name = 
REMARK  6 active torsions:
REMARK  status: ('A' for Active; 'I' for Inactive)
REMARK    1  A    between atoms: C_1  and  C_2
REMARK    2  A    between atoms: N_10  and  C_11
REMARK    3  A    between atoms: C_11  and  C_12
REMARK    4  A    between atoms: C_12  and  C_13
REMARK    5  A    between atoms: C_13  and  N_14
REMARK    6  A    between atoms: N_14  and  C_26
REMARK                            x       y       z     vdW  Elec       q    Type
REMARK                         _______ _______ _______ _____ _____    ______ ____
ROOT
ATOM      1  N   UNL     1       2.145   6.800  20.036  0.00  0.00    +0.000 N 
ATOM      2  C   UNL     1       2.130   5.407  20.207  0.00  0.00    +0.000 C 
ATOM      3  N   UNL     1       1.961   4.842  21.375  0.00  0.00    +0.000 NA
ATOM      4  S   UNL     1       2.043   3.207  21.297  0.00  0.00    +0.000 S 
ATOM      5  O   UNL     1       0.738   2.626  21.549  0.00  0.00    +0.000 OA
ATOM      6  O   UNL     1       3.255   2.728  21.942  0.00  0.00    +0.000 OA
ATOM      7  C   UNL     1       2.313   3.132  19.589  0.00  0.00    +0.000 A 
ATOM      8  C   UNL     1       2.479   1.990  18.823  0.00  0.00    +0.000 A 
ATOM      9  C   UNL     1       2.673   2.166  17.457  0.00  0.00    +0.000 A 
ATOM     10  C   UNL     1       2.645   3.448  16.901  0.00  0.00    +0.000 A 
ATOM     11  C   UNL     1       2.422   4.572  17.707  0.00  0.00    +0.000 A 
ATOM     12  C   UNL     1       2.312   4.418  19.081  0.00  0.00    +0.000 A 
ENDROOT
BRANCH   1  13
ATOM     13  C   UNL     1       1.386   7.679  20.875  0.00  0.00    +0.000 A 
ATOM     14  C   UNL     1       2.014   8.556  21.781  0.00  0.00    +0.000 A 
ATOM     15  C   UNL     1       1.278   9.331  22.688  0.00  0.00    +0.000 A 
ATOM     16  C   UNL     1      -0.115   9.265  22.701  0.00  0.00    +0.000 A 
ATOM     17  C   UNL     1      -0.764   8.452  21.791  0.00  0.00    +0.000 A 
ATOM     18  C   UNL     1      -0.025   7.675  20.898  0.00  0.00    +0.000 A 
ENDBRANCH   1  13
BRANCH   1  19
ATOM     19  C   UNL     1       2.946   7.493  19.016  0.00  0.00    +0.000 C 
BRANCH  19  20
ATOM     20  C   UNL     1       2.166   7.873  17.760  0.00  0.00    +0.000 C 
BRANCH  20  21
ATOM     21  C   UNL     1       1.895   9.382  17.742  0.00  0.00    +0.000 C 
BRANCH  21  31
ATOM     22  C   UNL     1      -6.197  11.477  18.369  0.00  0.00    +0.000 C 
ATOM     23  C   UNL     1      -5.149  12.317  19.051  0.00  0.00    +0.000 C 
ATOM     24  O   UNL     1      -5.479  13.160  19.883  0.00  0.00    +0.000 OA
ATOM     25  N   UNL     1      -3.828  12.050  18.739  0.00  0.00    +0.000 N 
ATOM     26  C   UNL     1      -2.758  12.708  19.499  0.00  0.00    +0.000 C 
ATOM     27  C   UNL     1      -1.778  11.666  20.061  0.00  0.00    +0.000 C 
ATOM     28  N   UNL     1      -1.289  10.766  18.998  0.00  0.00    +0.000 N 
ATOM     29  C   UNL     1       0.067  10.530  18.927  0.00  0.00    +0.000 C 
ATOM     30  O   UNL     1       0.868  11.029  19.709  0.00  0.00    +0.000 OA
ATOM     31  N   UNL     1       0.483   9.691  17.931  0.00  0.00    +0.000 N 
ATOM     32  C   UNL     1      -2.364  10.114  18.236  0.00  0.00    +0.000 C 
ATOM     33  C   UNL     1      -3.355  11.151  17.681  0.00  0.00    +0.000 C 
ATOM     34  H   UNL     1      -0.133   9.493  17.165  0.00  0.00    +0.000 HD
ENDBRANCH  21  31
ENDBRANCH  20  21
ENDBRANCH  19  20
ENDBRANCH   1  19
TORSDOF 5
ENDMDL
MODEL 4
REMARK VINA RESULT:      -8.8      2.433      3.210
REMARK  Name = 
REMARK  6 active torsions:
REMARK  status: ('A' for Active; 'I' for Inactive)
REMARK    1  A    between atoms: C_1  and  C_2
REMARK    2  A    between atoms: N_10  and  C_11
REMARK    3  A    between atoms: C_11  and  C_12
REMARK    4  A    between atoms: C_12  and  C_13
REMARK    5  A    between atoms: C_13  and  N_14
REMARK    6  A    between atoms: N_14  and  C_26
REMARK                            x       y       z     vdW  Elec       q    Type
REMARK                         _______ _______ _______ _____ _____    ______ ____
ROOT
ATOM      1  N   UNL     1       4.494   5.610  18.278  0.00  0.00    +0.000 N 
ATOM      2  C   UNL     1       4.212   4.390  18.910  0.00  0.00    +0.000 C 
ATOM      3  N   UNL     1       5.073   3.407  18.961  0.00  0.00    +0.000 NA
ATOM      4  S   UNL     1       4.466   2.080  19.707  0.00  0.00    +0.000 S 
ATOM      5  O   UNL     1       5.130   1.870  20.980  0.00  0.00    +0.000 OA
ATOM      6  O   UNL     1       4.251   1.010  18.747  0.00  0.00    +0.000 OA
ATOM      7  C   UNL     1       2.917   2.773  20.050  0.00  0.00    +0.000 A 
ATOM      8  C   UNL     1       1.858   2.162  20.702  0.00  0.00    +0.000 A 
ATOM      9  C   UNL     1       0.703   2.916  20.880  0.00  0.00    +0.000 A 
ATOM     10  C   UNL     1       0.659   4.247  20.456  0.00  0.00    +0.000 A 
ATOM     11  C   UNL     1       1.772   4.840  19.846  0.00  0.00    +0.000 A 
ATOM     12  C   UNL     1       2.900   4.076  19.586  0.00  0.00    +0.000 A 
ENDROOT
BRANCH   1  13
ATOM     13  C   UNL     1       5.821   6.148  18.216  0.00  0.00    +0.000 A 
ATOM     14  C   UNL     1       6.824   5.738  19.115  0.00  0.00    +0.000 A 
ATOM     15  C   UNL     1       8.088   6.345  19.139  0.00  0.00    +0.000 A 
ATOM     16  C   UNL     1       8.391   7.371  18.245  0.00  0.00    +0.000 A 
ATOM     17  C   UNL     1       7.446   7.763  17.315  0.00  0.00    +0.000 A 
ATOM     18  C   UNL     1       6.187   7.162  17.305  0.00  0.00    +0.000 A 
ENDBRANCH   1  13
BRANCH   1  19
ATOM     19  C   UNL     1       3.484   6.438  17.601  0.00  0.00    +0.000 C 
BRANCH  19  20
ATOM     20  C   UNL     1       3.078   7.688  18.378  0.00  0.00    +0.000 C 
BRANCH  20  21
ATOM     21  C   UNL     1       1.962   8.433  17.635  0.00  0.00    +0.000 C 
BRANCH  21  31
ATOM     22  C   UNL     1       2.725  16.625  19.242  0.00  0.00    +0.000 C 
ATOM     23  C   UNL     1       1.911  15.751  20.161  0.00  0.00    +0.000 C 
ATOM     24  O   UNL     1       1.172  16.261  21.001  0.00  0.00    +0.000 OA
ATOM     25  N   UNL     1       1.996  14.384  19.968  0.00  0.00    +0.000 N 
ATOM     26  C   UNL     1       1.095  13.492  20.709  0.00  0.00    +0.000 C 
ATOM     27  C   UNL     1       0.347  12.560  19.743  0.00  0.00    +0.000 C 
ATOM     28  N   UNL     1       1.285  11.853  18.850  0.00  0.00    +0.000 N 
ATOM     29  C   UNL     1       1.128  10.492  18.696  0.00  0.00    +0.000 C 
ATOM     30  O   UNL     1       0.244   9.860  19.263  0.00  0.00    +0.000 OA
ATOM     31  N   UNL     1       2.015   9.872  17.861  0.00  0.00    +0.000 N 
ATOM     32  C   UNL     1       2.189  12.750  18.115  0.00  0.00    +0.000 C 
ATOM     33  C   UNL     1       2.932  13.694  19.074  0.00  0.00    +0.000 C 
ATOM     34  H   UNL     1       2.863  10.342  17.606  0.00  0.00    +0.000 HD
ENDBRANCH  21  31
ENDBRANCH  20  21
ENDBRANCH  19  20
ENDBRANCH   1  19
TORSDOF 5
ENDMDL
MODEL 5
REMARK VINA RESULT:      -8.7      1.603      2.291
REMARK  Name = 
REMARK  6 active torsions:
REMARK  status: ('A' for Active; 'I' for Inactive)
REMARK    1  A    between atoms: C_1  and  C_2
REMARK    2  A    between atoms: N_10  and  C_11
REMARK    3  A    between atoms: C_11  and  C_12
REMARK    4  A    between atoms: C_12  and  C_13
REMARK    5  A    between atoms: C_13  and  N_14
REMARK    6  A    between atoms: N_14  and  C_26
REMARK                            x       y       z     vdW  Elec       q    Type
REMARK                         _______ _______ _______ _____ _____    ______ ____
ROOT
ATOM      1  N   UNL     1       4.442   5.638  18.262  0.00  0.00    +0.000 N 
ATOM      2  C   UNL     1       4.166   4.393  18.847  0.00  0.00    +0.000 C 
ATOM      3  N   UNL     1       5.018   3.401  18.829  0.00  0.00    +0.000 NA
ATOM      4  S   UNL     1       4.418   2.048  19.533  0.00  0.00    +0.000 S 
ATOM      5  O   UNL     1       5.116   1.775  20.775  0.00  0.00    +0.000 OA
ATOM      6  O   UNL     1       4.165   1.024  18.533  0.00  0.00    +0.000 OA
ATOM      7  C   UNL     1       2.887   2.738  19.950  0.00  0.00    +0.000 A 
ATOM      8  C   UNL     1       1.841   2.108  20.605  0.00  0.00    +0.000 A 
ATOM      9  C   UNL     1       0.699   2.864  20.850  0.00  0.00    +0.000 A 
ATOM     10  C   UNL     1       0.656   4.213  20.487  0.00  0.00    +0.000 A 
ATOM     11  C   UNL     1       1.758   4.823  19.872  0.00  0.00    +0.000 A 
ATOM     12  C   UNL     1       2.870   4.060  19.546  0.00  0.00    +0.000 A 
ENDROOT
BRANCH   1  13
ATOM     13  C   UNL     1       5.772   6.166  18.186  0.00  0.00    +0.000 A 
ATOM     14  C   UNL     1       6.786   5.736  19.063  0.00  0.00    +0.000 A 
ATOM     15  C   UNL     1       8.055   6.332  19.074  0.00  0.00    +0.000 A 
ATOM     16  C   UNL     1       8.352   7.368  18.190  0.00  0.00    +0.000 A 
ATOM     17  C   UNL     1       7.395   7.781  17.281  0.00  0.00    +0.000 A 
ATOM     18  C   UNL     1       6.131   7.190  17.283  0.00  0.00    +0.000 A 
ENDBRANCH   1  13
BRANCH   1  19
ATOM     19  C   UNL     1       3.421   6.504  17.652  0.00  0.00    +0.000 C 
BRANCH  19  20
ATOM     20  C   UNL     1       2.936   7.632  18.558  0.00  0.00    +0.000 C 
BRANCH  20  21
ATOM     21  C   UNL     1       1.865   8.463  17.842  0.00  0.00    +0.000 C 
BRANCH  21  31
ATOM     22  C   UNL     1      -0.612  14.762  22.787  0.00  0.00    +0.000 C 
ATOM     23  C   UNL     1      -1.626  14.004  21.971  0.00  0.00    +0.000 C 
ATOM     24  O   UNL     1      -2.767  14.444  21.842  0.00  0.00    +0.000 OA
ATOM     25  N   UNL     1      -1.194  12.849  21.344  0.00  0.00    +0.000 N 
ATOM     26  C   UNL     1      -2.081  12.165  20.395  0.00  0.00    +0.000 C 
ATOM     27  C   UNL     1      -1.367  11.952  19.051  0.00  0.00    +0.000 C 
ATOM     28  N   UNL     1      -0.065  11.284  19.238  0.00  0.00    +0.000 N 
ATOM     29  C   UNL     1       0.232  10.212  18.424  0.00  0.00    +0.000 C 
ATOM     30  O   UNL     1      -0.534   9.805  17.559  0.00  0.00    +0.000 OA
ATOM     31  N   UNL     1       1.447   9.619  18.627  0.00  0.00    +0.000 N 
ATOM     32  C   UNL     1       0.817  11.969  20.194  0.00  0.00    +0.000 C 
ATOM     33  C   UNL     1       0.105  12.196  21.537  0.00  0.00    +0.000 C 
ATOM     34  H   UNL     1       1.946   9.795  19.478  0.00  0.00    +0.000 HD
ENDBRANCH  21  31
ENDBRANCH  20  21
ENDBRANCH  19  20
ENDBRANCH   1  19
TORSDOF 5
ENDMDL
MODEL 6
REMARK VINA RESULT:      -8.6      1.774      2.048
REMARK  Name = 
REMARK  6 active torsions:
REMARK  status: ('A' for Active; 'I' for Inactive)
REMARK    1  A    between atoms: C_1  and  C_2
REMARK    2  A    between atoms: N_10  and  C_11
REMARK    3  A    between atoms: C_11  and  C_12
REMARK    4  A    between atoms: C_12  and  C_13
REMARK    5  A    between atoms: C_13  and  N_14
REMARK    6  A    between atoms: N_14  and  C_26
REMARK                            x       y       z     vdW  Elec       q    Type
REMARK                         _______ _______ _______ _____ _____    ______ ____
ROOT
ATOM      1  N   UNL     1       4.531   5.572  18.298  0.00  0.00    +0.000 N 
ATOM      2  C   UNL     1       4.235   4.356  18.933  0.00  0.00    +0.000 C 
ATOM      3  N   UNL     1       5.094   3.372  19.007  0.00  0.00    +0.000 NA
ATOM      4  S   UNL     1       4.470   2.051  19.750  0.00  0.00    +0.000 S 
ATOM      5  O   UNL     1       5.109   1.850  21.037  0.00  0.00    +0.000 OA
ATOM      6  O   UNL     1       4.273   0.975  18.793  0.00  0.00    +0.000 OA
ATOM      7  C   UNL     1       2.916   2.748  20.057  0.00  0.00    +0.000 A 
ATOM      8  C   UNL     1       1.844   2.143  20.693  0.00  0.00    +0.000 A 
ATOM      9  C   UNL     1       0.687   2.899  20.843  0.00  0.00    +0.000 A 
ATOM     10  C   UNL     1       0.652   4.227  20.409  0.00  0.00    +0.000 A 
ATOM     11  C   UNL     1       1.778   4.815  19.818  0.00  0.00    +0.000 A 
ATOM     12  C   UNL     1       2.909   4.047  19.585  0.00  0.00    +0.000 A 
ENDROOT
BRANCH   1  13
ATOM     13  C   UNL     1       5.860   6.107  18.258  0.00  0.00    +0.000 A 
ATOM     14  C   UNL     1       6.844   5.702  19.179  0.00  0.00    +0.000 A 
ATOM     15  C   UNL     1       8.108   6.307  19.224  0.00  0.00    +0.000 A 
ATOM     16  C   UNL     1       8.430   7.328  18.329  0.00  0.00    +0.000 A 
ATOM     17  C   UNL     1       7.504   7.715  17.379  0.00  0.00    +0.000 A 
ATOM     18  C   UNL     1       6.244   7.116  17.348  0.00  0.00    +0.000 A 
ENDBRANCH   1  13
BRANCH   1  19
ATOM     19  C   UNL     1       3.535   6.395  17.595  0.00  0.00    +0.000 C 
BRANCH  19  20
ATOM     20  C   UNL     1       2.999   7.564  18.418  0.00  0.00    +0.000 C 
BRANCH  20  21
ATOM     21  C   UNL     1       1.885   8.285  17.650  0.00  0.00    +0.000 C 
BRANCH  21  31
ATOM     22  C   UNL     1      -2.432  13.993  22.015  0.00  0.00    +0.000 C 
ATOM     23  C   UNL     1      -1.591  14.423  20.842  0.00  0.00    +0.000 C 
ATOM     24  O   UNL     1      -1.345  15.614  20.664  0.00  0.00    +0.000 OA
ATOM     25  N   UNL     1      -1.076  13.423  20.036  0.00  0.00    +0.000 N 
ATOM     26  C   UNL     1      -0.107  13.766  18.987  0.00  0.00    +0.000 C 
ATOM     27  C   UNL     1       1.160  12.909  19.127  0.00  0.00    +0.000 C 
ATOM     28  N   UNL     1       0.830  11.472  19.187  0.00  0.00    +0.000 N 
ATOM     29  C   UNL     1       1.546  10.611  18.383  0.00  0.00    +0.000 C 
ATOM     30  O   UNL     1       2.441  10.992  17.637  0.00  0.00    +0.000 OA
ATOM     31  N   UNL     1       1.212   9.288  18.466  0.00  0.00    +0.000 N 
ATOM     32  C   UNL     1      -0.146  11.135  20.234  0.00  0.00    +0.000 C 
ATOM     33  C   UNL     1      -1.412  11.997  20.108  0.00  0.00    +0.000 C 
ATOM     34  H   UNL     1       0.338   9.026  18.881  0.00  0.00    +0.000 HD
ENDBRANCH  21  31
ENDBRANCH  20  21
ENDBRANCH  19  20
ENDBRANCH   1  19
TORSDOF 5
ENDMDL
MODEL 7
REMARK VINA RESULT:      -8.4      5.251      9.954
REMARK  Name = 
REMARK  6 active torsions:
REMARK  status: ('A' for Active; 'I' for Inactive)
REMARK    1  A    between atoms: C_1  and  C_2
REMARK    2  A    between atoms: N_10  and  C_11
REMARK    3  A    between atoms: C_11  and  C_12
REMARK    4  A    between atoms: C_12  and  C_13
REMARK    5  A    between atoms: C_13  and  N_14
REMARK    6  A    between atoms: N_14  and  C_26
REMARK                            x       y       z     vdW  Elec       q    Type
REMARK                         _______ _______ _______ _____ _____    ______ ____
ROOT
ATOM      1  N   UNL     1       0.160  12.408  19.721  0.00  0.00    +0.000 N 
ATOM      2  C   UNL     1       0.445  11.151  20.276  0.00  0.00    +0.000 C 
ATOM      3  N   UNL     1       0.190  10.857  21.525  0.00  0.00    +0.000 NA
ATOM      4  S   UNL     1       0.676   9.344  21.924  0.00  0.00    +0.000 S 
ATOM      5  O   UNL     1      -0.476   8.494  22.164  0.00  0.00    +0.000 OA
ATOM      6  O   UNL     1       1.815   9.396  22.825  0.00  0.00    +0.000 OA
ATOM      7  C   UNL     1       1.287   8.943  20.355  0.00  0.00    +0.000 A 
ATOM      8  C   UNL     1       1.869   7.746  19.970  0.00  0.00    +0.000 A 
ATOM      9  C   UNL     1       2.280   7.638  18.646  0.00  0.00    +0.000 A 
ATOM     10  C   UNL     1       2.055   8.688  17.751  0.00  0.00    +0.000 A 
ATOM     11  C   UNL     1       1.416   9.861  18.172  0.00  0.00    +0.000 A 
ATOM     12  C   UNL     1       1.077  10.016  19.508  0.00  0.00    +0.000 A 
ENDROOT
BRANCH   1  13
ATOM     13  C   UNL     1      -0.938  13.210  20.175  0.00  0.00    +0.000 A 
ATOM     14  C   UNL     1      -2.259  12.724  20.162  0.00  0.00    +0.000 A 
ATOM     15  C   UNL     1      -3.350  13.541  20.489  0.00  0.00    +0.000 A 
ATOM     16  C   UNL     1      -3.145  14.870  20.860  0.00  0.00    +0.000 A 
ATOM     17  C   UNL     1      -1.857  15.365  20.931  0.00  0.00    +0.000 A 
ATOM     18  C   UNL     1      -0.776  14.548  20.594  0.00  0.00    +0.000 A 
ENDBRANCH   1  13
BRANCH   1  19
ATOM     19  C   UNL     1       0.957  13.036  18.656  0.00  0.00    +0.000 C 
BRANCH  19  20
ATOM     20  C   UNL     1       2.375  13.414  19.078  0.00  0.00    +0.000 C 
BRANCH  20  21
ATOM     21  C   UNL     1       2.977  14.408  18.077  0.00  0.00    +0.000 C 
BRANCH  21  31
ATOM     22  C   UNL     1      11.169  12.798  17.321  0.00  0.00    +0.000 C 
ATOM     23  C   UNL     1      10.708  13.996  18.109  0.00  0.00    +0.000 C 
ATOM     24  O   UNL     1      11.514  14.863  18.441  0.00  0.00    +0.000 OA
ATOM     25  N   UNL     1       9.354  14.091  18.378  0.00  0.00    +0.000 N 
ATOM     26  C   UNL     1       8.820  15.318  18.983  0.00  0.00    +0.000 C 
ATOM     27  C   UNL     1       7.661  15.872  18.141  0.00  0.00    +0.000 C 
ATOM     28  N   UNL     1       6.639  14.836  17.892  0.00  0.00    +0.000 N 
ATOM     29  C   UNL     1       5.319  15.168  18.107  0.00  0.00    +0.000 C 
ATOM     30  O   UNL     1       4.969  16.280  18.486  0.00  0.00    +0.000 OA
ATOM     31  N   UNL     1       4.402  14.183  17.866  0.00  0.00    +0.000 N 
ATOM     32  C   UNL     1       7.180  13.608  17.292  0.00  0.00    +0.000 C 
ATOM     33  C   UNL     1       8.348  13.055  18.123  0.00  0.00    +0.000 C 
ATOM     34  H   UNL     1       4.707  13.231  17.799  0.00  0.00    +0.000 HD
ENDBRANCH  21  31
ENDBRANCH  20  21
ENDBRANCH  19  20
ENDBRANCH   1  19
TORSDOF 5
ENDMDL
MODEL 8
REMARK VINA RESULT:      -8.4      3.605     10.092
REMARK  Name = 
REMARK  6 active torsions:
REMARK  status: ('A' for Active; 'I' for Inactive)
REMARK    1  A    between atoms: C_1  and  C_2
REMARK    2  A    between atoms: N_10  and  C_11
REMARK    3  A    between atoms: C_11  and  C_12
REMARK    4  A    between atoms: C_12  and  C_13
REMARK    5  A    between atoms: C_13  and  N_14
REMARK    6  A    between atoms: N_14  and  C_26
REMARK                            x       y       z     vdW  Elec       q    Type
REMARK                         _______ _______ _______ _____ _____    ______ ____
ROOT
ATOM      1  N   UNL     1      -1.420  12.743  19.490  0.00  0.00    +0.000 N 
ATOM      2  C   UNL     1      -2.725  12.786  20.005  0.00  0.00    +0.000 C 
ATOM      3  N   UNL     1      -3.010  13.334  21.157  0.00  0.00    +0.000 NA
ATOM      4  S   UNL     1      -4.598  13.194  21.541  0.00  0.00    +0.000 S 
ATOM      5  O   UNL     1      -5.242  14.494  21.495  0.00  0.00    +0.000 OA
ATOM      6  O   UNL     1      -4.774  12.268  22.647  0.00  0.00    +0.000 OA
ATOM      7  C   UNL     1      -5.047  12.352  20.097  0.00  0.00    +0.000 A 
ATOM      8  C   UNL     1      -6.314  11.908  19.753  0.00  0.00    +0.000 A 
ATOM      9  C   UNL     1      -6.448  11.260  18.530  0.00  0.00    +0.000 A 
ATOM     10  C   UNL     1      -5.346  11.124  17.681  0.00  0.00    +0.000 A 
ATOM     11  C   UNL     1      -4.094  11.634  18.047  0.00  0.00    +0.000 A 
ATOM     12  C   UNL     1      -3.927  12.206  19.300  0.00  0.00    +0.000 A 
ENDROOT
BRANCH   1  13
ATOM     13  C   UNL     1      -0.454  13.763  19.775  0.00  0.00    +0.000 A 
ATOM     14  C   UNL     1      -0.244  14.843  18.896  0.00  0.00    +0.000 A 
ATOM     15  C   UNL     1       0.779  15.778  19.106  0.00  0.00    +0.000 A 
ATOM     16  C   UNL     1       1.613  15.668  20.218  0.00  0.00    +0.000 A 
ATOM     17  C   UNL     1       1.402  14.649  21.128  0.00  0.00    +0.000 A 
ATOM     18  C   UNL     1       0.388  13.716  20.906  0.00  0.00    +0.000 A 
ENDBRANCH   1  13
BRANCH   1  19
ATOM     19  C   UNL     1      -0.906  11.655  18.645  0.00  0.00    +0.000 C 
BRANCH  19  20
ATOM     20  C   UNL     1      -0.602  10.366  19.403  0.00  0.00    +0.000 C 
BRANCH  20  21
ATOM     21  C   UNL     1       0.891  10.294  19.750  0.00  0.00    +0.000 C 
BRANCH  21  31
ATOM     22  C   UNL     1       3.798   2.758  17.510  0.00  0.00    +0.000 C 
ATOM     23  C   UNL     1       2.911   2.892  18.719  0.00  0.00    +0.000 C 
ATOM     24  O   UNL     1       2.800   1.956  19.509  0.00  0.00    +0.000 OA
ATOM     25  N   UNL     1       2.292   4.114  18.915  0.00  0.00    +0.000 N 
ATOM     26  C   UNL     1       1.561   4.364  20.163  0.00  0.00    +0.000 C 
ATOM     27  C   UNL     1       2.063   5.653  20.831  0.00  0.00    +0.000 C 
ATOM     28  N   UNL     1       2.037   6.788  19.888  0.00  0.00    +0.000 N 
ATOM     29  C   UNL     1       1.478   7.972  20.318  0.00  0.00    +0.000 C 
ATOM     30  O   UNL     1       1.015   8.115  21.444  0.00  0.00    +0.000 OA
ATOM     31  N   UNL     1       1.473   9.000  19.417  0.00  0.00    +0.000 N 
ATOM     32  C   UNL     1       2.766   6.531  18.637  0.00  0.00    +0.000 C 
ATOM     33  C   UNL     1       2.277   5.235  17.969  0.00  0.00    +0.000 C 
ATOM     34  H   UNL     1       1.623   8.804  18.446  0.00  0.00    +0.000 HD
ENDBRANCH  21  31
ENDBRANCH  20  21
ENDBRANCH  19  20
ENDBRANCH   1  19
TORSDOF 5
ENDMDL
MODEL 9
REMARK VINA RESULT:      -8.3      1.671      1.923
REMARK  Name = 
REMARK  6 active torsions:
REMARK  status: ('A' for Active; 'I' for Inactive)
REMARK    1  A    between atoms: C_1  and  C_2
REMARK    2  A    between atoms: N_10  and  C_11
REMARK    3  A    between atoms: C_11  and  C_12
REMARK    4  A    between atoms: C_12  and  C_13
REMARK    5  A    between atoms: C_13  and  N_14
REMARK    6  A    between atoms: N_14  and  C_26
REMARK                            x       y       z     vdW  Elec       q    Type
REMARK                         _______ _______ _______ _____ _____    ______ ____
ROOT
ATOM      1  N   UNL     1       4.395   5.634  18.259  0.00  0.00    +0.000 N 
ATOM      2  C   UNL     1       4.119   4.384  18.836  0.00  0.00    +0.000 C 
ATOM      3  N   UNL     1       4.968   3.390  18.803  0.00  0.00    +0.000 NA
ATOM      4  S   UNL     1       4.369   2.033  19.500  0.00  0.00    +0.000 S 
ATOM      5  O   UNL     1       5.077   1.748  20.734  0.00  0.00    +0.000 OA
ATOM      6  O   UNL     1       4.106   1.018  18.493  0.00  0.00    +0.000 OA
ATOM      7  C   UNL     1       2.844   2.725  19.935  0.00  0.00    +0.000 A 
ATOM      8  C   UNL     1       1.801   2.092  20.593  0.00  0.00    +0.000 A 
ATOM      9  C   UNL     1       0.664   2.849  20.853  0.00  0.00    +0.000 A 
ATOM     10  C   UNL     1       0.622   4.201  20.502  0.00  0.00    +0.000 A 
ATOM     11  C   UNL     1       1.721   4.813  19.884  0.00  0.00    +0.000 A 
ATOM     12  C   UNL     1       2.828   4.050  19.542  0.00  0.00    +0.000 A 
ENDROOT
BRANCH   1  13
ATOM     13  C   UNL     1       5.726   6.158  18.176  0.00  0.00    +0.000 A 
ATOM     14  C   UNL     1       6.741   5.730  19.053  0.00  0.00    +0.000 A 
ATOM     15  C   UNL     1       8.011   6.324  19.058  0.00  0.00    +0.000 A 
ATOM     16  C   UNL     1       8.308   7.355  18.167  0.00  0.00    +0.000 A 
ATOM     17  C   UNL     1       7.350   7.764  17.259  0.00  0.00    +0.000 A 
ATOM     18  C   UNL     1       6.084   7.176  17.267  0.00  0.00    +0.000 A 
ENDBRANCH   1  13
BRANCH   1  19
ATOM     19  C   UNL     1       3.372   6.507  17.664  0.00  0.00    +0.000 C 
BRANCH  19  20
ATOM     20  C   UNL     1       2.893   7.626  18.586  0.00  0.00    +0.000 C 
BRANCH  20  21
ATOM     21  C   UNL     1       2.315   8.782  17.761  0.00  0.00    +0.000 C 
BRANCH  21  31
ATOM     22  C   UNL     1      -3.800  13.030  21.611  0.00  0.00    +0.000 C 
ATOM     23  C   UNL     1      -2.714  12.374  22.423  0.00  0.00    +0.000 C 
ATOM     24  O   UNL     1      -2.841  12.256  23.640  0.00  0.00    +0.000 OA
ATOM     25  N   UNL     1      -1.625  11.874  21.732  0.00  0.00    +0.000 N 
ATOM     26  C   UNL     1      -0.624  11.070  22.443  0.00  0.00    +0.000 C 
ATOM     27  C   UNL     1      -0.411   9.725  21.731  0.00  0.00    +0.000 C 
ATOM     28  N   UNL     1      -0.112   9.920  20.299  0.00  0.00    +0.000 N 
ATOM     29  C   UNL     1       0.955   9.232  19.763  0.00  0.00    +0.000 C 
ATOM     30  O   UNL     1       1.650   8.469  20.425  0.00  0.00    +0.000 OA
ATOM     31  N   UNL     1       1.201   9.438  18.434  0.00  0.00    +0.000 N 
ATOM     32  C   UNL     1      -1.115  10.731  19.593  0.00  0.00    +0.000 C 
ATOM     33  C   UNL     1      -1.341  12.073  20.307  0.00  0.00    +0.000 C 
ATOM     34  H   UNL     1       0.794  10.230  17.975  0.00  0.00    +0.000 HD
ENDBRANCH  21  31
ENDBRANCH  20  21
ENDBRANCH  19  20
ENDBRANCH   1  19
TORSDOF 5
ENDMDL
