MODEL 1
REMARK VINA RESULT:      -6.8      0.000      0.000
REMARK  Name = 
REMARK  9 active torsions:
REMARK  status: ('A' for Active; 'I' for Inactive)
REMARK    1  A    between atoms: N_1  and  C_2
REMARK    2  A    between atoms: C_2  and  C_3
REMARK    3  A    between atoms: C_3  and  C_4
REMARK    4  A    between atoms: C_4  and  C_5
REMARK    5  A    between atoms: C_5  and  N_6
REMARK    6  A    between atoms: N_6  and  C_7
REMARK    7  A    between atoms: N_6  and  C_14
REMARK    8  A    between atoms: C_7  and  C_8
REMARK    9  A    between atoms: C_14  and  C_15
REMARK                            x       y       z     vdW  Elec       q    Type
REMARK                         _______ _______ _______ _____ _____    ______ ____
ROOT
ATOM      1  N   UNL     1       4.401   3.861  17.326  0.00  0.00    +0.000 NA
ENDROOT
BRANCH   1   2
ATOM      2  C   UNL     1       5.453   3.667  16.301  0.00  0.00    +0.000 C 
BRANCH   2   3
ATOM      3  C   UNL     1       5.518   4.699  15.165  0.00  0.00    +0.000 C 
BRANCH   3   4
ATOM      4  C   UNL     1       5.838   4.097  13.796  0.00  0.00    +0.000 C 
BRANCH   4   5
ATOM      5  C   UNL     1       7.171   4.644  13.281  0.00  0.00    +0.000 C 
BRANCH   5   6
ATOM      6  N   UNL     1       7.805   5.503  14.274  0.00  0.00    +0.000 NA
ATOM      7  H   UNL     1       7.521   5.204  15.207  0.00  0.00    +0.000 HD
ATOM      8  H   UNL     1       7.469   6.458  14.165  0.00  0.00    +0.000 HD
ENDBRANCH   5   6
ENDBRANCH   4   5
ENDBRANCH   3   4
ENDBRANCH   2   3
ENDBRANCH   1   2
BRANCH   1   9
ATOM      9  C   UNL     1       4.060   2.573  17.970  0.00  0.00    +0.000 C 
BRANCH   9  10
ATOM     10  C   UNL     1       3.042   2.646  19.091  0.00  0.00    +0.000 A 
ATOM     11  C   UNL     1       3.444   2.570  20.436  0.00  0.00    +0.000 A 
ATOM     12  C   UNL     1       2.510   2.723  21.464  0.00  0.00    +0.000 A 
ATOM     13  C   UNL     1       1.168   2.955  21.161  0.00  0.00    +0.000 A 
ATOM     14  C   UNL     1       0.755   3.025  19.833  0.00  0.00    +0.000 A 
ATOM     15  C   UNL     1       1.688   2.872  18.804  0.00  0.00    +0.000 A 
ENDBRANCH   9  10
ENDBRANCH   1   9
BRANCH   1  16
ATOM     16  C   UNL     1       4.863   4.832  18.352  0.00  0.00    +0.000 C 
BRANCH  16  17
ATOM     17  C   UNL     1       3.960   6.045  18.483  0.00  0.00    +0.000 A 
ATOM     18  C   UNL     1       3.066   6.148  19.561  0.00  0.00    +0.000 A 
ATOM     19  C   UNL     1       2.162   7.209  19.632  0.00  0.00    +0.000 A 
ATOM     20  C   UNL     1       2.155   8.179  18.632  0.00  0.00    +0.000 A 
ATOM     21 CL   UNL     1       1.009   9.461  18.693  0.00  0.00    +0.000 Cl
ATOM     22  C   UNL     1       3.057   8.109  17.572  0.00  0.00    +0.000 A 
ATOM     23  C   UNL     1       3.959   7.046  17.499  0.00  0.00    +0.000 A 
ENDBRANCH  16  17
ENDBRANCH   1  16
TORSDOF 9
ENDMDL
MODEL 2
REMARK VINA RESULT:      -6.7      1.802      2.167
REMARK  Name = 
REMARK  9 active torsions:
REMARK  status: ('A' for Active; 'I' for Inactive)
REMARK    1  A    between atoms: N_1  and  C_2
REMARK    2  A    between atoms: C_2  and  C_3
REMARK    3  A    between atoms: C_3  and  C_4
REMARK    4  A    between atoms: C_4  and  C_5
REMARK    5  A    between atoms: C_5  and  N_6
REMARK    6  A    between atoms: N_6  and  C_7
REMARK    7  A    between atoms: N_6  and  C_14
REMARK    8  A    between atoms: C_7  and  C_8
REMARK    9  A    between atoms: C_14  and  C_15
REMARK                            x       y       z     vdW  Elec       q    Type
REMARK                         _______ _______ _______ _____ _____    ______ ____
ROOT
ATOM      1  N   UNL     1       3.649   5.303  17.377  0.00  0.00    +0.000 NA
ENDROOT
BRANCH   1   2
ATOM      2  C   UNL     1       5.014   5.225  16.805  0.00  0.00    +0.000 C 
BRANCH   2   3
ATOM      3  C   UNL     1       5.825   6.529  16.757  0.00  0.00    +0.000 C 
BRANCH   3   4
ATOM      4  C   UNL     1       7.232   6.406  17.344  0.00  0.00    +0.000 C 
BRANCH   4   5
ATOM      5  C   UNL     1       7.317   5.175  18.250  0.00  0.00    +0.000 C 
BRANCH   5   6
ATOM      6  N   UNL     1       8.146   4.137  17.649  0.00  0.00    +0.000 NA
ATOM      7  H   UNL     1       8.133   4.243  16.634  0.00  0.00    +0.000 HD
ATOM      8  H   UNL     1       7.745   3.222  17.846  0.00  0.00    +0.000 HD
ENDBRANCH   5   6
ENDBRANCH   4   5
ENDBRANCH   3   4
ENDBRANCH   2   3
ENDBRANCH   1   2
BRANCH   1   9
ATOM      9  C   UNL     1       3.042   3.956  17.455  0.00  0.00    +0.000 C 
BRANCH   9  10
ATOM     10  C   UNL     1       2.551   3.533  18.825  0.00  0.00    +0.000 A 
ATOM     11  C   UNL     1       3.422   2.932  19.750  0.00  0.00    +0.000 A 
ATOM     12  C   UNL     1       2.982   2.623  21.040  0.00  0.00    +0.000 A 
ATOM     13  C   UNL     1       1.672   2.911  21.420  0.00  0.00    +0.000 A 
ATOM     14  C   UNL     1       0.796   3.500  20.512  0.00  0.00    +0.000 A 
ATOM     15  C   UNL     1       1.234   3.809  19.221  0.00  0.00    +0.000 A 
ENDBRANCH   9  10
ENDBRANCH   1   9
BRANCH   1  16
ATOM     16  C   UNL     1       3.700   5.913  18.731  0.00  0.00    +0.000 C 
BRANCH  16  17
ATOM     17  C   UNL     1       2.843   7.160  18.862  0.00  0.00    +0.000 A 
ATOM     18  C   UNL     1       2.126   7.405  20.043  0.00  0.00    +0.000 A 
ATOM     19  C   UNL     1       1.258   8.494  20.132  0.00  0.00    +0.000 A 
ATOM     20  C   UNL     1       1.110   9.350  19.043  0.00  0.00    +0.000 A 
ATOM     21 CL   UNL     1       0.004  10.665  19.133  0.00  0.00    +0.000 Cl
ATOM     22  C   UNL     1       1.838   9.140  17.874  0.00  0.00    +0.000 A 
ATOM     23  C   UNL     1       2.705   8.049  17.784  0.00  0.00    +0.000 A 
ENDBRANCH  16  17
ENDBRANCH   1  16
TORSDOF 9
ENDMDL
MODEL 3
REMARK VINA RESULT:      -6.7      1.191      1.743
REMARK  Name = 
REMARK  9 active torsions:
REMARK  status: ('A' for Active; 'I' for Inactive)
REMARK    1  A    between atoms: N_1  and  C_2
REMARK    2  A    between atoms: C_2  and  C_3
REMARK    3  A    between atoms: C_3  and  C_4
REMARK    4  A    between atoms: C_4  and  C_5
REMARK    5  A    between atoms: C_5  and  N_6
REMARK    6  A    between atoms: N_6  and  C_7
REMARK    7  A    between atoms: N_6  and  C_14
REMARK    8  A    between atoms: C_7  and  C_8
REMARK    9  A    between atoms: C_14  and  C_15
REMARK                            x       y       z     vdW  Elec       q    Type
REMARK                         _______ _______ _______ _____ _____    ______ ____
ROOT
ATOM      1  N   UNL     1       3.838   5.154  17.260  0.00  0.00    +0.000 NA
ENDROOT
BRANCH   1   2
ATOM      2  C   UNL     1       4.922   5.361  16.271  0.00  0.00    +0.000 C 
BRANCH   2   3
ATOM      3  C   UNL     1       5.977   4.252  16.151  0.00  0.00    +0.000 C 
BRANCH   3   4
ATOM      4  C   UNL     1       6.714   4.238  14.811  0.00  0.00    +0.000 C 
BRANCH   4   5
ATOM      5  C   UNL     1       5.732   3.938  13.676  0.00  0.00    +0.000 C 
BRANCH   5   6
ATOM      6  N   UNL     1       6.389   3.222  12.589  0.00  0.00    +0.000 NA
ATOM      7  H   UNL     1       7.034   2.535  12.981  0.00  0.00    +0.000 HD
ATOM      8  H   UNL     1       6.958   3.870  12.047  0.00  0.00    +0.000 HD
ENDBRANCH   5   6
ENDBRANCH   4   5
ENDBRANCH   3   4
ENDBRANCH   2   3
ENDBRANCH   1   2
BRANCH   1   9
ATOM      9  C   UNL     1       3.731   3.724  17.621  0.00  0.00    +0.000 C 
BRANCH   9  10
ATOM     10  C   UNL     1       2.880   3.414  18.837  0.00  0.00    +0.000 A 
ATOM     11  C   UNL     1       3.468   2.967  20.034  0.00  0.00    +0.000 A 
ATOM     12  C   UNL     1       2.686   2.765  21.175  0.00  0.00    +0.000 A 
ATOM     13  C   UNL     1       1.313   3.008  21.134  0.00  0.00    +0.000 A 
ATOM     14  C   UNL     1       0.717   3.444  19.953  0.00  0.00    +0.000 A 
ATOM     15  C   UNL     1       1.497   3.646  18.812  0.00  0.00    +0.000 A 
ENDBRANCH   9  10
ENDBRANCH   1   9
BRANCH   1  16
ATOM     16  C   UNL     1       4.098   5.966  18.477  0.00  0.00    +0.000 C 
BRANCH  16  17
ATOM     17  C   UNL     1       3.050   7.038  18.721  0.00  0.00    +0.000 A 
ATOM     18  C   UNL     1       2.804   8.020  17.750  0.00  0.00    +0.000 A 
ATOM     19  C   UNL     1       1.917   9.066  18.010  0.00  0.00    +0.000 A 
ATOM     20  C   UNL     1       1.263   9.129  19.238  0.00  0.00    +0.000 A 
ATOM     21 CL   UNL     1       0.207  10.444  19.579  0.00  0.00    +0.000 Cl
ATOM     22  C   UNL     1       1.473   8.145  20.202  0.00  0.00    +0.000 A 
ATOM     23  C   UNL     1       2.362   7.100  19.943  0.00  0.00    +0.000 A 
ENDBRANCH  16  17
ENDBRANCH   1  16
TORSDOF 9
ENDMDL
MODEL 4
REMARK VINA RESULT:      -6.6      2.024      2.876
REMARK  Name = 
REMARK  9 active torsions:
REMARK  status: ('A' for Active; 'I' for Inactive)
REMARK    1  A    between atoms: N_1  and  C_2
REMARK    2  A    between atoms: C_2  and  C_3
REMARK    3  A    between atoms: C_3  and  C_4
REMARK    4  A    between atoms: C_4  and  C_5
REMARK    5  A    between atoms: C_5  and  N_6
REMARK    6  A    between atoms: N_6  and  C_7
REMARK    7  A    between atoms: N_6  and  C_14
REMARK    8  A    between atoms: C_7  and  C_8
REMARK    9  A    between atoms: C_14  and  C_15
REMARK                            x       y       z     vdW  Elec       q    Type
REMARK                         _______ _______ _______ _____ _____    ______ ____
ROOT
ATOM      1  N   UNL     1       3.826   5.948  17.737  0.00  0.00    +0.000 NA
ENDROOT
BRANCH   1   2
ATOM      2  C   UNL     1       5.272   6.216  17.560  0.00  0.00    +0.000 C 
BRANCH   2   3
ATOM      3  C   UNL     1       6.133   5.066  17.018  0.00  0.00    +0.000 C 
BRANCH   3   4
ATOM      4  C   UNL     1       7.346   4.735  17.889  0.00  0.00    +0.000 C 
BRANCH   4   5
ATOM      5  C   UNL     1       7.675   5.919  18.802  0.00  0.00    +0.000 C 
BRANCH   5   6
ATOM      6  N   UNL     1       7.847   5.485  20.183  0.00  0.00    +0.000 NA
ATOM      7  H   UNL     1       8.621   6.001  20.603  0.00  0.00    +0.000 HD
ATOM      8  H   UNL     1       8.115   4.503  20.202  0.00  0.00    +0.000 HD
ENDBRANCH   5   6
ENDBRANCH   4   5
ENDBRANCH   3   4
ENDBRANCH   2   3
ENDBRANCH   1   2
BRANCH   1   9
ATOM      9  C   UNL     1       3.536   4.510  17.540  0.00  0.00    +0.000 C 
BRANCH   9  10
ATOM     10  C   UNL     1       2.831   3.818  18.690  0.00  0.00    +0.000 A 
ATOM     11  C   UNL     1       3.560   3.275  19.762  0.00  0.00    +0.000 A 
ATOM     12  C   UNL     1       2.898   2.714  20.857  0.00  0.00    +0.000 A 
ATOM     13  C   UNL     1       1.504   2.690  20.894  0.00  0.00    +0.000 A 
ATOM     14  C   UNL     1       0.769   3.217  19.836  0.00  0.00    +0.000 A 
ATOM     15  C   UNL     1       1.430   3.779  18.740  0.00  0.00    +0.000 A 
ENDBRANCH   9  10
ENDBRANCH   1   9
BRANCH   1  16
ATOM     16  C   UNL     1       3.393   6.370  19.094  0.00  0.00    +0.000 C 
BRANCH  16  17
ATOM     17  C   UNL     1       2.413   7.531  19.080  0.00  0.00    +0.000 A 
ATOM     18  C   UNL     1       2.191   8.254  17.899  0.00  0.00    +0.000 A 
ATOM     19  C   UNL     1       1.370   9.383  17.904  0.00  0.00    +0.000 A 
ATOM     20  C   UNL     1       0.759   9.788  19.088  0.00  0.00    +0.000 A 
ATOM     21 CL   UNL     1      -0.214  11.207  19.107  0.00  0.00    +0.000 Cl
ATOM     22  C   UNL     1       0.943   9.062  20.264  0.00  0.00    +0.000 A 
ATOM     23  C   UNL     1       1.766   7.934  20.259  0.00  0.00    +0.000 A 
ENDBRANCH  16  17
ENDBRANCH   1  16
TORSDOF 9
ENDMDL
MODEL 5
REMARK VINA RESULT:      -6.6      0.785      1.348
REMARK  Name = 
REMARK  9 active torsions:
REMARK  status: ('A' for Active; 'I' for Inactive)
REMARK    1  A    between atoms: N_1  and  C_2
REMARK    2  A    between atoms: C_2  and  C_3
REMARK    3  A    between atoms: C_3  and  C_4
REMARK    4  A    between atoms: C_4  and  C_5
REMARK    5  A    between atoms: C_5  and  N_6
REMARK    6  A    between atoms: N_6  and  C_7
REMARK    7  A    between atoms: N_6  and  C_14
REMARK    8  A    between atoms: C_7  and  C_8
REMARK    9  A    between atoms: C_14  and  C_15
REMARK                            x       y       z     vdW  Elec       q    Type
REMARK                         _______ _______ _______ _____ _____    ______ ____
ROOT
ATOM      1  N   UNL     1       4.160   4.039  17.166  0.00  0.00    +0.000 NA
ENDROOT
BRANCH   1   2
ATOM      2  C   UNL     1       5.199   3.822  16.133  0.00  0.00    +0.000 C 
BRANCH   2   3
ATOM      3  C   UNL     1       6.025   5.045  15.706  0.00  0.00    +0.000 C 
BRANCH   3   4
ATOM      4  C   UNL     1       6.737   4.875  14.363  0.00  0.00    +0.000 C 
BRANCH   4   5
ATOM      5  C   UNL     1       6.146   3.685  13.603  0.00  0.00    +0.000 C 
BRANCH   5   6
ATOM      6  N   UNL     1       6.614   3.659  12.222  0.00  0.00    +0.000 NA
ATOM      7  H   UNL     1       6.206   4.444  11.715  0.00  0.00    +0.000 HD
ATOM      8  H   UNL     1       6.277   2.815  11.763  0.00  0.00    +0.000 HD
ENDBRANCH   5   6
ENDBRANCH   4   5
ENDBRANCH   3   4
ENDBRANCH   2   3
ENDBRANCH   1   2
BRANCH   1   9
ATOM      9  C   UNL     1       3.732   2.749  17.752  0.00  0.00    +0.000 C 
BRANCH   9  10
ATOM     10  C   UNL     1       2.867   2.844  18.993  0.00  0.00    +0.000 A 
ATOM     11  C   UNL     1       1.480   3.053  18.891  0.00  0.00    +0.000 A 
ATOM     12  C   UNL     1       0.679   3.055  20.036  0.00  0.00    +0.000 A 
ATOM     13  C   UNL     1       1.250   2.846  21.290  0.00  0.00    +0.000 A 
ATOM     14  C   UNL     1       2.623   2.644  21.407  0.00  0.00    +0.000 A 
ATOM     15  C   UNL     1       3.426   2.643  20.263  0.00  0.00    +0.000 A 
ENDBRANCH   9  10
ENDBRANCH   1   9
BRANCH   1  16
ATOM     16  C   UNL     1       4.682   4.931  18.234  0.00  0.00    +0.000 C 
BRANCH  16  17
ATOM     17  C   UNL     1       3.789   6.128  18.509  0.00  0.00    +0.000 A 
ATOM     18  C   UNL     1       3.032   6.189  19.688  0.00  0.00    +0.000 A 
ATOM     19  C   UNL     1       2.134   7.236  19.899  0.00  0.00    +0.000 A 
ATOM     20  C   UNL     1       1.997   8.234  18.936  0.00  0.00    +0.000 A 
ATOM     21 CL   UNL     1       0.854   9.499  19.173  0.00  0.00    +0.000 Cl
ATOM     22  C   UNL     1       2.764   8.205  17.774  0.00  0.00    +0.000 A 
ATOM     23  C   UNL     1       3.660   7.156  17.561  0.00  0.00    +0.000 A 
ENDBRANCH  16  17
ENDBRANCH   1  16
TORSDOF 9
ENDMDL
MODEL 6
REMARK VINA RESULT:      -6.6      1.644      2.434
REMARK  Name = 
REMARK  9 active torsions:
REMARK  status: ('A' for Active; 'I' for Inactive)
REMARK    1  A    between atoms: N_1  and  C_2
REMARK    2  A    between atoms: C_2  and  C_3
REMARK    3  A    between atoms: C_3  and  C_4
REMARK    4  A    between atoms: C_4  and  C_5
REMARK    5  A    between atoms: C_5  and  N_6
REMARK    6  A    between atoms: N_6  and  C_7
REMARK    7  A    between atoms: N_6  and  C_14
REMARK    8  A    between atoms: C_7  and  C_8
REMARK    9  A    between atoms: C_14  and  C_15
REMARK                            x       y       z     vdW  Elec       q    Type
REMARK                         _______ _______ _______ _____ _____    ______ ____
ROOT
ATOM      1  N   UNL     1       3.255   5.767  17.634  0.00  0.00    +0.000 NA
ENDROOT
BRANCH   1   2
ATOM      2  C   UNL     1       4.646   5.491  17.204  0.00  0.00    +0.000 C 
BRANCH   2   3
ATOM      3  C   UNL     1       4.841   4.427  16.114  0.00  0.00    +0.000 C 
BRANCH   3   4
ATOM      4  C   UNL     1       6.290   3.968  15.947  0.00  0.00    +0.000 C 
BRANCH   4   5
ATOM      5  C   UNL     1       7.225   4.884  16.740  0.00  0.00    +0.000 C 
BRANCH   5   6
ATOM      6  N   UNL     1       8.099   4.112  17.615  0.00  0.00    +0.000 NA
ATOM      7  H   UNL     1       7.540   3.679  18.350  0.00  0.00    +0.000 HD
ATOM      8  H   UNL     1       8.753   4.737  18.084  0.00  0.00    +0.000 HD
ENDBRANCH   5   6
ENDBRANCH   4   5
ENDBRANCH   3   4
ENDBRANCH   2   3
ENDBRANCH   1   2
BRANCH   1   9
ATOM      9  C   UNL     1       2.462   4.518  17.659  0.00  0.00    +0.000 C 
BRANCH   9  10
ATOM     10  C   UNL     1       2.387   3.813  19.000  0.00  0.00    +0.000 A 
ATOM     11  C   UNL     1       3.480   3.078  19.491  0.00  0.00    +0.000 A 
ATOM     12  C   UNL     1       3.433   2.503  20.763  0.00  0.00    +0.000 A 
ATOM     13  C   UNL     1       2.298   2.657  21.558  0.00  0.00    +0.000 A 
ATOM     14  C   UNL     1       1.204   3.377  21.082  0.00  0.00    +0.000 A 
ATOM     15  C   UNL     1       1.251   3.952  19.810  0.00  0.00    +0.000 A 
ENDBRANCH   9  10
ENDBRANCH   1   9
BRANCH   1  16
ATOM     16  C   UNL     1       3.254   6.394  18.981  0.00  0.00    +0.000 C 
BRANCH  16  17
ATOM     17  C   UNL     1       2.297   7.568  19.098  0.00  0.00    +0.000 A 
ATOM     18  C   UNL     1       2.049   8.392  17.990  0.00  0.00    +0.000 A 
ATOM     19  C   UNL     1       1.252   9.530  18.118  0.00  0.00    +0.000 A 
ATOM     20  C   UNL     1       0.689   9.844  19.353  0.00  0.00    +0.000 A 
ATOM     21 CL   UNL     1      -0.255  11.272  19.524  0.00  0.00    +0.000 Cl
ATOM     22  C   UNL     1       0.899   9.019  20.457  0.00  0.00    +0.000 A 
ATOM     23  C   UNL     1       1.700   7.882  20.329  0.00  0.00    +0.000 A 
ENDBRANCH  16  17
ENDBRANCH   1  16
TORSDOF 9
ENDMDL
MODEL 7
REMARK VINA RESULT:      -6.6      2.004      5.283
REMARK  Name = 
REMARK  9 active torsions:
REMARK  status: ('A' for Active; 'I' for Inactive)
REMARK    1  A    between atoms: N_1  and  C_2
REMARK    2  A    between atoms: C_2  and  C_3
REMARK    3  A    between atoms: C_3  and  C_4
REMARK    4  A    between atoms: C_4  and  C_5
REMARK    5  A    between atoms: C_5  and  N_6
REMARK    6  A    between atoms: N_6  and  C_7
REMARK    7  A    between atoms: N_6  and  C_14
REMARK    8  A    between atoms: C_7  and  C_8
REMARK    9  A    between atoms: C_14  and  C_15
REMARK                            x       y       z     vdW  Elec       q    Type
REMARK                         _______ _______ _______ _____ _____    ______ ____
ROOT
ATOM      1  N   UNL     1       3.007   5.082  18.861  0.00  0.00    +0.000 NA
ENDROOT
BRANCH   1   2
ATOM      2  C   UNL     1       1.902   4.499  18.064  0.00  0.00    +0.000 C 
BRANCH   2   3
ATOM      3  C   UNL     1       1.130   3.329  18.693  0.00  0.00    +0.000 C 
BRANCH   3   4
ATOM      4  C   UNL     1       0.763   3.545  20.162  0.00  0.00    +0.000 C 
BRANCH   4   5
ATOM      5  C   UNL     1       1.502   2.532  21.040  0.00  0.00    +0.000 C 
BRANCH   5   6
ATOM      6  N   UNL     1       2.231   3.199  22.112  0.00  0.00    +0.000 NA
ATOM      7  H   UNL     1       3.170   2.805  22.175  0.00  0.00    +0.000 HD
ATOM      8  H   UNL     1       1.780   3.008  23.004  0.00  0.00    +0.000 HD
ENDBRANCH   5   6
ENDBRANCH   4   5
ENDBRANCH   3   4
ENDBRANCH   2   3
ENDBRANCH   1   2
BRANCH   1   9
ATOM      9  C   UNL     1       4.169   4.166  18.884  0.00  0.00    +0.000 C 
BRANCH   9  10
ATOM     10  C   UNL     1       5.156   4.325  17.744  0.00  0.00    +0.000 A 
ATOM     11  C   UNL     1       6.481   4.727  17.988  0.00  0.00    +0.000 A 
ATOM     12  C   UNL     1       7.405   4.789  16.942  0.00  0.00    +0.000 A 
ATOM     13  C   UNL     1       7.019   4.451  15.646  0.00  0.00    +0.000 A 
ATOM     14  C   UNL     1       5.708   4.058  15.389  0.00  0.00    +0.000 A 
ATOM     15  C   UNL     1       4.782   3.996  16.433  0.00  0.00    +0.000 A 
ENDBRANCH   9  10
ENDBRANCH   1   9
BRANCH   1  16
ATOM     16  C   UNL     1       3.408   6.394  18.291  0.00  0.00    +0.000 C 
BRANCH  16  17
ATOM     17  C   UNL     1       2.483   7.531  18.688  0.00  0.00    +0.000 A 
ATOM     18  C   UNL     1       2.192   8.557  17.775  0.00  0.00    +0.000 A 
ATOM     19  C   UNL     1       1.426   9.656  18.166  0.00  0.00    +0.000 A 
ATOM     20  C   UNL     1       0.938   9.730  19.469  0.00  0.00    +0.000 A 
ATOM     21 CL   UNL     1       0.035  11.107  19.967  0.00  0.00    +0.000 Cl
ATOM     22  C   UNL     1       1.191   8.705  20.378  0.00  0.00    +0.000 A 
ATOM     23  C   UNL     1       1.960   7.607  19.988  0.00  0.00    +0.000 A 
ENDBRANCH  16  17
ENDBRANCH   1  16
TORSDOF 9
ENDMDL
MODEL 8
REMARK VINA RESULT:      -6.5      1.375      1.956
REMARK  Name = 
REMARK  9 active torsions:
REMARK  status: ('A' for Active; 'I' for Inactive)
REMARK    1  A    between atoms: N_1  and  C_2
REMARK    2  A    between atoms: C_2  and  C_3
REMARK    3  A    between atoms: C_3  and  C_4
REMARK    4  A    between atoms: C_4  and  C_5
REMARK    5  A    between atoms: C_5  and  N_6
REMARK    6  A    between atoms: N_6  and  C_7
REMARK    7  A    between atoms: N_6  and  C_14
REMARK    8  A    between atoms: C_7  and  C_8
REMARK    9  A    between atoms: C_14  and  C_15
REMARK                            x       y       z     vdW  Elec       q    Type
REMARK                         _______ _______ _______ _____ _____    ______ ____
ROOT
ATOM      1  N   UNL     1       3.608   5.672  17.628  0.00  0.00    +0.000 NA
ENDROOT
BRANCH   1   2
ATOM      2  C   UNL     1       4.994   5.933  17.175  0.00  0.00    +0.000 C 
BRANCH   2   3
ATOM      3  C   UNL     1       6.128   5.310  18.002  0.00  0.00    +0.000 C 
BRANCH   3   4
ATOM      4  C   UNL     1       7.226   4.659  17.159  0.00  0.00    +0.000 C 
BRANCH   4   5
ATOM      5  C   UNL     1       6.765   4.533  15.705  0.00  0.00    +0.000 C 
BRANCH   5   6
ATOM      6  N   UNL     1       7.599   5.336  14.819  0.00  0.00    +0.000 NA
ATOM      7  H   UNL     1       7.920   4.756  14.043  0.00  0.00    +0.000 HD
ATOM      8  H   UNL     1       8.436   5.637  15.315  0.00  0.00    +0.000 HD
ENDBRANCH   5   6
ENDBRANCH   4   5
ENDBRANCH   3   4
ENDBRANCH   2   3
ENDBRANCH   1   2
BRANCH   1   9
ATOM      9  C   UNL     1       3.323   4.220  17.618  0.00  0.00    +0.000 C 
BRANCH   9  10
ATOM     10  C   UNL     1       2.662   3.669  18.866  0.00  0.00    +0.000 A 
ATOM     11  C   UNL     1       3.430   3.121  19.908  0.00  0.00    +0.000 A 
ATOM     12  C   UNL     1       2.818   2.694  21.090  0.00  0.00    +0.000 A 
ATOM     13  C   UNL     1       1.438   2.811  21.245  0.00  0.00    +0.000 A 
ATOM     14  C   UNL     1       0.663   3.346  20.218  0.00  0.00    +0.000 A 
ATOM     15  C   UNL     1       1.273   3.773  19.036  0.00  0.00    +0.000 A 
ENDBRANCH   9  10
ENDBRANCH   1   9
BRANCH   1  16
ATOM     16  C   UNL     1       3.409   6.216  18.997  0.00  0.00    +0.000 C 
BRANCH  16  17
ATOM     17  C   UNL     1       2.540   7.462  19.029  0.00  0.00    +0.000 A 
ATOM     18  C   UNL     1       1.883   7.835  20.212  0.00  0.00    +0.000 A 
ATOM     19  C   UNL     1       1.004   8.918  20.222  0.00  0.00    +0.000 A 
ATOM     20  C   UNL     1       0.785   9.641  19.051  0.00  0.00    +0.000 A 
ATOM     21 CL   UNL     1      -0.336  10.946  19.049  0.00  0.00    +0.000 Cl
ATOM     22  C   UNL     1       1.453   9.303  17.876  0.00  0.00    +0.000 A 
ATOM     23  C   UNL     1       2.331   8.217  17.866  0.00  0.00    +0.000 A 
ENDBRANCH  16  17
ENDBRANCH   1  16
TORSDOF 9
ENDMDL
MODEL 9
REMARK VINA RESULT:      -6.5      2.877      6.259
REMARK  Name = 
REMARK  9 active torsions:
REMARK  status: ('A' for Active; 'I' for Inactive)
REMARK    1  A    between atoms: N_1  and  C_2
REMARK    2  A    between atoms: C_2  and  C_3
REMARK    3  A    between atoms: C_3  and  C_4
REMARK    4  A    between atoms: C_4  and  C_5
REMARK    5  A    between atoms: C_5  and  N_6
REMARK    6  A    between atoms: N_6  and  C_7
REMARK    7  A    between atoms: N_6  and  C_14
REMARK    8  A    between atoms: C_7  and  C_8
REMARK    9  A    between atoms: C_14  and  C_15
REMARK                            x       y       z     vdW  Elec       q    Type
REMARK                         _______ _______ _______ _____ _____    ______ ____
ROOT
ATOM      1  N   UNL     1       3.142   5.503  18.799  0.00  0.00    +0.000 NA
ENDROOT
BRANCH   1   2
ATOM      2  C   UNL     1       2.449   4.194  18.736  0.00  0.00    +0.000 C 
BRANCH   2   3
ATOM      3  C   UNL     1       1.192   4.028  19.603  0.00  0.00    +0.000 C 
BRANCH   3   4
ATOM      4  C   UNL     1       1.025   2.626  20.192  0.00  0.00    +0.000 C 
BRANCH   4   5
ATOM      5  C   UNL     1       1.399   2.633  21.677  0.00  0.00    +0.000 C 
BRANCH   5   6
ATOM      6  N   UNL     1       2.846   2.624  21.854  0.00  0.00    +0.000 NA
ATOM      7  H   UNL     1       3.076   2.109  22.704  0.00  0.00    +0.000 HD
ATOM      8  H   UNL     1       3.179   3.575  21.998  0.00  0.00    +0.000 HD
ENDBRANCH   5   6
ENDBRANCH   4   5
ENDBRANCH   3   4
ENDBRANCH   2   3
ENDBRANCH   1   2
BRANCH   1   9
ATOM      9  C   UNL     1       2.616   6.315  19.918  0.00  0.00    +0.000 C 
BRANCH   9  10
ATOM     10  C   UNL     1       2.053   7.671  19.540  0.00  0.00    +0.000 A 
ATOM     11  C   UNL     1       2.234   8.192  18.247  0.00  0.00    +0.000 A 
ATOM     12  C   UNL     1       1.640   9.403  17.882  0.00  0.00    +0.000 A 
ATOM     13  C   UNL     1       0.859  10.104  18.801  0.00  0.00    +0.000 A 
ATOM     14  C   UNL     1       0.677   9.603  20.088  0.00  0.00    +0.000 A 
ATOM     15  C   UNL     1       1.271   8.392  20.454  0.00  0.00    +0.000 A 
ENDBRANCH   9  10
ENDBRANCH   1   9
BRANCH   1  16
ATOM     16  C   UNL     1       4.604   5.297  18.966  0.00  0.00    +0.000 C 
BRANCH  16  17
ATOM     17  C   UNL     1       5.365   5.286  17.652  0.00  0.00    +0.000 A 
ATOM     18  C   UNL     1       4.829   5.918  16.519  0.00  0.00    +0.000 A 
ATOM     19  C   UNL     1       5.473   5.824  15.285  0.00  0.00    +0.000 A 
ATOM     20  C   UNL     1       6.663   5.107  15.179  0.00  0.00    +0.000 A 
ATOM     21 CL   UNL     1       7.433   4.949  13.648  0.00  0.00    +0.000 Cl
ATOM     22  C   UNL     1       7.225   4.499  16.300  0.00  0.00    +0.000 A 
ATOM     23  C   UNL     1       6.578   4.591  17.534  0.00  0.00    +0.000 A 
ENDBRANCH  16  17
ENDBRANCH   1  16
TORSDOF 9
ENDMDL
