MODEL 1
REMARK VINA RESULT:      -8.1      0.000      0.000
REMARK  Name = 
REMARK  8 active torsions:
REMARK  status: ('A' for Active; 'I' for Inactive)
REMARK    1  A    between atoms: C_1  and  O_2
REMARK    2  A    between atoms: O_2  and  C_3
REMARK    3  A    between atoms: C_6  and  C_7
REMARK    4  A    between atoms: N_9  and  C_10
REMARK    5  A    between atoms: C_10  and  C_11
REMARK    6  A    between atoms: C_16  and  C_17
REMARK    7  A    between atoms: C_19  and  O_20
REMARK    8  A    between atoms: O_20  and  C_21
REMARK                            x       y       z     vdW  Elec       q    Type
REMARK                         _______ _______ _______ _____ _____    ______ ____
ROOT
ATOM      1  C   UNL     1       4.627   3.875  17.114  0.00  0.00    +0.000 A 
ATOM      2  C   UNL     1       3.232   3.719  17.108  0.00  0.00    +0.000 A 
ATOM      3  C   UNL     1       2.443   4.278  18.109  0.00  0.00    +0.000 A 
ATOM      4  C   UNL     1       3.034   4.972  19.164  0.00  0.00    +0.000 A 
ATOM      5  C   UNL     1       4.429   5.000  19.249  0.00  0.00    +0.000 A 
ATOM      6  C   UNL     1       5.238   4.442  18.237  0.00  0.00    +0.000 A 
ENDROOT
BRANCH   4   7
ATOM      7  C   UNL     1       2.117   5.689  20.099  0.00  0.00    +0.000 C 
ATOM      8  O   UNL     1       1.210   5.067  20.642  0.00  0.00    +0.000 OA
ATOM      9  N   UNL     1       2.297   7.040  20.293  0.00  0.00    +0.000 N 
ATOM     10  H   UNL     1       3.113   7.527  19.953  0.00  0.00    +0.000 HD
BRANCH   9  11
ATOM     11  C   UNL     1       1.408   7.757  21.178  0.00  0.00    +0.000 C 
BRANCH  11  12
ATOM     12  C   UNL     1       0.850   8.999  20.532  0.00  0.00    +0.000 A 
ATOM     13  C   UNL     1       1.217   9.291  19.206  0.00  0.00    +0.000 A 
ATOM     14  C   UNL     1       0.776  10.457  18.582  0.00  0.00    +0.000 A 
ATOM     15  C   UNL     1      -0.041  11.345  19.273  0.00  0.00    +0.000 A 
ATOM     16  C   UNL     1      -0.439  11.055  20.578  0.00  0.00    +0.000 A 
ATOM     17  C   UNL     1      -0.015   9.879  21.216  0.00  0.00    +0.000 A 
ATOM     18  C   UNL     1      -0.478   9.603  22.622  0.00  0.00    +0.000 C 
ENDBRANCH  11  12
ENDBRANCH   9  11
ENDBRANCH   4   7
BRANCH   1  20
ATOM     19  C   UNL     1       5.360   4.412  14.950  0.00  0.00    +0.000 C 
ATOM     20  O   UNL     1       5.376   3.477  16.037  0.00  0.00    +0.000 OA
ENDBRANCH   1  20
BRANCH   6  21
ATOM     21  O   UNL     1       6.561   4.537  18.555  0.00  0.00    +0.000 OA
BRANCH  21  22
ATOM     22  C   UNL     1       7.457   5.453  17.935  0.00  0.00    +0.000 C 
ATOM     23  C   UNL     1       6.697   6.568  17.224  0.00  0.00    +0.000 C 
ATOM     24  C   UNL     1       7.514   7.835  17.419  0.00  0.00    +0.000 C 
ATOM     25  C   UNL     1       8.322   7.639  18.691  0.00  0.00    +0.000 C 
ATOM     26  C   UNL     1       8.200   6.171  19.071  0.00  0.00    +0.000 C 
ENDBRANCH  21  22
ENDBRANCH   6  21
TORSDOF 6
ENDMDL
MODEL 2
REMARK VINA RESULT:      -8.1      2.318      4.192
REMARK  Name = 
REMARK  8 active torsions:
REMARK  status: ('A' for Active; 'I' for Inactive)
REMARK    1  A    between atoms: C_1  and  O_2
REMARK    2  A    between atoms: O_2  and  C_3
REMARK    3  A    between atoms: C_6  and  C_7
REMARK    4  A    between atoms: N_9  and  C_10
REMARK    5  A    between atoms: C_10  and  C_11
REMARK    6  A    between atoms: C_16  and  C_17
REMARK    7  A    between atoms: C_19  and  O_20
REMARK    8  A    between atoms: O_20  and  C_21
REMARK                            x       y       z     vdW  Elec       q    Type
REMARK                         _______ _______ _______ _____ _____    ______ ____
ROOT
ATOM      1  C   UNL     1       4.178   4.843  17.088  0.00  0.00    +0.000 A 
ATOM      2  C   UNL     1       4.588   6.181  16.970  0.00  0.00    +0.000 A 
ATOM      3  C   UNL     1       3.857   7.209  17.560  0.00  0.00    +0.000 A 
ATOM      4  C   UNL     1       2.676   6.928  18.245  0.00  0.00    +0.000 A 
ATOM      5  C   UNL     1       2.191   5.617  18.234  0.00  0.00    +0.000 A 
ATOM      6  C   UNL     1       2.927   4.567  17.646  0.00  0.00    +0.000 A 
ENDROOT
BRANCH   4   7
ATOM      7  C   UNL     1       2.046   8.055  18.994  0.00  0.00    +0.000 C 
ATOM      8  O   UNL     1       1.898   7.958  20.209  0.00  0.00    +0.000 OA
ATOM      9  N   UNL     1       1.613   9.156  18.290  0.00  0.00    +0.000 N 
ATOM     10  H   UNL     1       1.847   9.296  17.318  0.00  0.00    +0.000 HD
BRANCH   9  11
ATOM     11  C   UNL     1       0.981  10.248  18.993  0.00  0.00    +0.000 C 
BRANCH  11  12
ATOM     12  C   UNL     1      -0.446  10.452  18.552  0.00  0.00    +0.000 A 
ATOM     13  C   UNL     1      -0.936   9.683  17.482  0.00  0.00    +0.000 A 
ATOM     14  C   UNL     1      -2.229   9.874  16.997  0.00  0.00    +0.000 A 
ATOM     15  C   UNL     1      -3.052  10.832  17.580  0.00  0.00    +0.000 A 
ATOM     16  C   UNL     1      -2.592  11.581  18.662  0.00  0.00    +0.000 A 
ATOM     17  C   UNL     1      -1.296  11.393  19.170  0.00  0.00    +0.000 A 
ATOM     18  C   UNL     1      -0.847  12.217  20.347  0.00  0.00    +0.000 C 
ENDBRANCH  11  12
ENDBRANCH   9  11
ENDBRANCH   4   7
BRANCH   1  20
ATOM     19  C   UNL     1       6.051   4.263  15.797  0.00  0.00    +0.000 C 
ATOM     20  O   UNL     1       4.994   3.827  16.661  0.00  0.00    +0.000 OA
ENDBRANCH   1  20
BRANCH   6  21
ATOM     21  O   UNL     1       2.240   3.390  17.706  0.00  0.00    +0.000 OA
BRANCH  21  22
ATOM     22  C   UNL     1       2.199   2.559  18.862  0.00  0.00    +0.000 C 
ATOM     23  C   UNL     1       3.286   2.951  19.857  0.00  0.00    +0.000 C 
ATOM     24  C   UNL     1       2.684   2.772  21.242  0.00  0.00    +0.000 C 
ATOM     25  C   UNL     1       1.180   2.919  21.082  0.00  0.00    +0.000 C 
ATOM     26  C   UNL     1       0.888   2.891  19.590  0.00  0.00    +0.000 C 
ENDBRANCH  21  22
ENDBRANCH   6  21
TORSDOF 6
ENDMDL
MODEL 3
REMARK VINA RESULT:      -7.9      2.683      4.812
REMARK  Name = 
REMARK  8 active torsions:
REMARK  status: ('A' for Active; 'I' for Inactive)
REMARK    1  A    between atoms: C_1  and  O_2
REMARK    2  A    between atoms: O_2  and  C_3
REMARK    3  A    between atoms: C_6  and  C_7
REMARK    4  A    between atoms: N_9  and  C_10
REMARK    5  A    between atoms: C_10  and  C_11
REMARK    6  A    between atoms: C_16  and  C_17
REMARK    7  A    between atoms: C_19  and  O_20
REMARK    8  A    between atoms: O_20  and  C_21
REMARK                            x       y       z     vdW  Elec       q    Type
REMARK                         _______ _______ _______ _____ _____    ______ ____
ROOT
ATOM      1  C   UNL     1       3.949   5.697  18.722  0.00  0.00    +0.000 A 
ATOM      2  C   UNL     1       4.074   6.507  17.582  0.00  0.00    +0.000 A 
ATOM      3  C   UNL     1       3.312   7.663  17.438  0.00  0.00    +0.000 A 
ATOM      4  C   UNL     1       2.377   8.015  18.410  0.00  0.00    +0.000 A 
ATOM      5  C   UNL     1       2.147   7.131  19.469  0.00  0.00    +0.000 A 
ATOM      6  C   UNL     1       2.918   5.961  19.629  0.00  0.00    +0.000 A 
ENDROOT
BRANCH   4   7
ATOM      7  C   UNL     1       1.728   9.352  18.270  0.00  0.00    +0.000 C 
ATOM      8  O   UNL     1       2.184  10.158  17.466  0.00  0.00    +0.000 OA
ATOM      9  N   UNL     1       0.655   9.652  19.080  0.00  0.00    +0.000 N 
ATOM     10  H   UNL     1       0.199   8.953  19.647  0.00  0.00    +0.000 HD
BRANCH   9  11
ATOM     11  C   UNL     1       0.026  10.948  18.976  0.00  0.00    +0.000 C 
BRANCH  11  12
ATOM     12  C   UNL     1      -1.365  10.855  18.401  0.00  0.00    +0.000 A 
ATOM     13  C   UNL     1      -1.596   9.960  17.342  0.00  0.00    +0.000 A 
ATOM     14  C   UNL     1      -2.849   9.878  16.736  0.00  0.00    +0.000 A 
ATOM     15  C   UNL     1      -3.889  10.685  17.185  0.00  0.00    +0.000 A 
ATOM     16  C   UNL     1      -3.684  11.555  18.255  0.00  0.00    +0.000 A 
ATOM     17  C   UNL     1      -2.432  11.642  18.884  0.00  0.00    +0.000 A 
ATOM     18  C   UNL     1      -2.261  12.587  20.042  0.00  0.00    +0.000 C 
ENDBRANCH  11  12
ENDBRANCH   9  11
ENDBRANCH   4   7
BRANCH   1  20
ATOM     19  C   UNL     1       6.160   5.095  19.231  0.00  0.00    +0.000 C 
ATOM     20  O   UNL     1       4.824   4.664  18.940  0.00  0.00    +0.000 OA
ENDBRANCH   1  20
BRANCH   6  21
ATOM     21  O   UNL     1       2.485   5.228  20.695  0.00  0.00    +0.000 OA
BRANCH  21  22
ATOM     22  C   UNL     1       1.632   4.094  20.577  0.00  0.00    +0.000 C 
ATOM     23  C   UNL     1       1.047   3.990  19.172  0.00  0.00    +0.000 C 
ATOM     24  C   UNL     1       0.986   2.508  18.841  0.00  0.00    +0.000 C 
ATOM     25  C   UNL     1       2.057   1.832  19.681  0.00  0.00    +0.000 C 
ATOM     26  C   UNL     1       2.535   2.857  20.699  0.00  0.00    +0.000 C 
ENDBRANCH  21  22
ENDBRANCH   6  21
TORSDOF 6
ENDMDL
MODEL 4
REMARK VINA RESULT:      -7.9      1.765      2.795
REMARK  Name = 
REMARK  8 active torsions:
REMARK  status: ('A' for Active; 'I' for Inactive)
REMARK    1  A    between atoms: C_1  and  O_2
REMARK    2  A    between atoms: O_2  and  C_3
REMARK    3  A    between atoms: C_6  and  C_7
REMARK    4  A    between atoms: N_9  and  C_10
REMARK    5  A    between atoms: C_10  and  C_11
REMARK    6  A    between atoms: C_16  and  C_17
REMARK    7  A    between atoms: C_19  and  O_20
REMARK    8  A    between atoms: O_20  and  C_21
REMARK                            x       y       z     vdW  Elec       q    Type
REMARK                         _______ _______ _______ _____ _____    ______ ____
ROOT
ATOM      1  C   UNL     1       3.769   4.418  18.456  0.00  0.00    +0.000 A 
ATOM      2  C   UNL     1       2.870   4.872  19.434  0.00  0.00    +0.000 A 
ATOM      3  C   UNL     1       2.388   6.178  19.414  0.00  0.00    +0.000 A 
ATOM      4  C   UNL     1       2.825   7.073  18.439  0.00  0.00    +0.000 A 
ATOM      5  C   UNL     1       3.831   6.665  17.557  0.00  0.00    +0.000 A 
ATOM      6  C   UNL     1       4.322   5.342  17.564  0.00  0.00    +0.000 A 
ENDROOT
BRANCH   4   7
ATOM      7  C   UNL     1       2.135   8.395  18.377  0.00  0.00    +0.000 C 
ATOM      8  O   UNL     1       2.162   9.037  17.332  0.00  0.00    +0.000 OA
ATOM      9  N   UNL     1       1.518   8.871  19.512  0.00  0.00    +0.000 N 
ATOM     10  H   UNL     1       1.381   8.295  20.330  0.00  0.00    +0.000 HD
BRANCH   9  11
ATOM     11  C   UNL     1       0.861  10.157  19.480  0.00  0.00    +0.000 C 
BRANCH  11  12
ATOM     12  C   UNL     1       0.138  10.454  20.769  0.00  0.00    +0.000 A 
ATOM     13  C   UNL     1       0.341   9.599  21.867  0.00  0.00    +0.000 A 
ATOM     14  C   UNL     1      -0.348   9.795  23.063  0.00  0.00    +0.000 A 
ATOM     15  C   UNL     1      -1.245  10.851  23.179  0.00  0.00    +0.000 A 
ATOM     16  C   UNL     1      -1.435  11.726  22.110  0.00  0.00    +0.000 A 
ATOM     17  C   UNL     1      -0.740  11.550  20.903  0.00  0.00    +0.000 A 
ATOM     18  C   UNL     1      -0.969  12.526  19.780  0.00  0.00    +0.000 C 
ENDBRANCH  11  12
ENDBRANCH   9  11
ENDBRANCH   4   7
BRANCH   1  20
ATOM     19  C   UNL     1       2.993   2.242  18.038  0.00  0.00    +0.000 C 
ATOM     20  O   UNL     1       4.098   3.089  18.378  0.00  0.00    +0.000 OA
ENDBRANCH   1  20
BRANCH   6  21
ATOM     21  O   UNL     1       5.330   5.186  16.659  0.00  0.00    +0.000 OA
BRANCH  21  22
ATOM     22  C   UNL     1       6.688   5.520  16.927  0.00  0.00    +0.000 C 
ATOM     23  C   UNL     1       6.856   7.024  17.117  0.00  0.00    +0.000 C 
ATOM     24  C   UNL     1       7.902   7.205  18.205  0.00  0.00    +0.000 C 
ATOM     25  C   UNL     1       7.862   5.948  19.057  0.00  0.00    +0.000 C 
ATOM     26  C   UNL     1       7.016   4.930  18.307  0.00  0.00    +0.000 C 
ENDBRANCH  21  22
ENDBRANCH   6  21
TORSDOF 6
ENDMDL
MODEL 5
REMARK VINA RESULT:      -7.9      1.998      4.377
REMARK  Name = 
REMARK  8 active torsions:
REMARK  status: ('A' for Active; 'I' for Inactive)
REMARK    1  A    between atoms: C_1  and  O_2
REMARK    2  A    between atoms: O_2  and  C_3
REMARK    3  A    between atoms: C_6  and  C_7
REMARK    4  A    between atoms: N_9  and  C_10
REMARK    5  A    between atoms: C_10  and  C_11
REMARK    6  A    between atoms: C_16  and  C_17
REMARK    7  A    between atoms: C_19  and  O_20
REMARK    8  A    between atoms: O_20  and  C_21
REMARK                            x       y       z     vdW  Elec       q    Type
REMARK                         _______ _______ _______ _____ _____    ______ ____
ROOT
ATOM      1  C   UNL     1       4.943   5.414  18.679  0.00  0.00    +0.000 A 
ATOM      2  C   UNL     1       4.953   6.305  17.594  0.00  0.00    +0.000 A 
ATOM      3  C   UNL     1       3.967   7.279  17.456  0.00  0.00    +0.000 A 
ATOM      4  C   UNL     1       2.925   7.358  18.378  0.00  0.00    +0.000 A 
ATOM      5  C   UNL     1       2.833   6.379  19.372  0.00  0.00    +0.000 A 
ATOM      6  C   UNL     1       3.830   5.392  19.524  0.00  0.00    +0.000 A 
ENDROOT
BRANCH   4   7
ATOM      7  C   UNL     1       2.009   8.531  18.263  0.00  0.00    +0.000 C 
ATOM      8  O   UNL     1       1.976   9.165  17.213  0.00  0.00    +0.000 OA
ATOM      9  N   UNL     1       1.255   8.889  19.358  0.00  0.00    +0.000 N 
ATOM     10  H   UNL     1       1.182   8.301  20.175  0.00  0.00    +0.000 HD
BRANCH   9  11
ATOM     11  C   UNL     1       0.378  10.034  19.275  0.00  0.00    +0.000 C 
BRANCH  11  12
ATOM     12  C   UNL     1      -0.178  10.417  20.623  0.00  0.00    +0.000 A 
ATOM     13  C   UNL     1       0.081   9.578  21.721  0.00  0.00    +0.000 A 
ATOM     14  C   UNL     1      -0.459   9.856  22.976  0.00  0.00    +0.000 A 
ATOM     15  C   UNL     1      -1.260  10.979  23.152  0.00  0.00    +0.000 A 
ATOM     16  C   UNL     1      -1.501  11.839  22.080  0.00  0.00    +0.000 A 
ATOM     17  C   UNL     1      -0.955  11.580  20.813  0.00  0.00    +0.000 A 
ATOM     18  C   UNL     1      -1.233  12.542  19.688  0.00  0.00    +0.000 C 
ENDBRANCH  11  12
ENDBRANCH   9  11
ENDBRANCH   4   7
BRANCH   1  20
ATOM     19  C   UNL     1       7.282   5.219  18.738  0.00  0.00    +0.000 C 
ATOM     20  O   UNL     1       6.009   4.581  18.903  0.00  0.00    +0.000 OA
ENDBRANCH   1  20
BRANCH   6  21
ATOM     21  O   UNL     1       3.508   4.515  20.518  0.00  0.00    +0.000 OA
BRANCH  21  22
ATOM     22  C   UNL     1       2.797   3.301  20.299  0.00  0.00    +0.000 C 
ATOM     23  C   UNL     1       1.290   3.533  20.334  0.00  0.00    +0.000 C 
ATOM     24  C   UNL     1       0.690   2.615  19.282  0.00  0.00    +0.000 C 
ATOM     25  C   UNL     1       1.780   2.366  18.252  0.00  0.00    +0.000 C 
ATOM     26  C   UNL     1       3.079   2.890  18.846  0.00  0.00    +0.000 C 
ENDBRANCH  21  22
ENDBRANCH   6  21
TORSDOF 6
ENDMDL
MODEL 6
REMARK VINA RESULT:      -7.9      2.384      3.895
REMARK  Name = 
REMARK  8 active torsions:
REMARK  status: ('A' for Active; 'I' for Inactive)
REMARK    1  A    between atoms: C_1  and  O_2
REMARK    2  A    between atoms: O_2  and  C_3
REMARK    3  A    between atoms: C_6  and  C_7
REMARK    4  A    between atoms: N_9  and  C_10
REMARK    5  A    between atoms: C_10  and  C_11
REMARK    6  A    between atoms: C_16  and  C_17
REMARK    7  A    between atoms: C_19  and  O_20
REMARK    8  A    between atoms: O_20  and  C_21
REMARK                            x       y       z     vdW  Elec       q    Type
REMARK                         _______ _______ _______ _____ _____    ______ ____
ROOT
ATOM      1  C   UNL     1       2.677   4.886  19.757  0.00  0.00    +0.000 A 
ATOM      2  C   UNL     1       2.112   5.843  20.615  0.00  0.00    +0.000 A 
ATOM      3  C   UNL     1       1.851   7.137  20.173  0.00  0.00    +0.000 A 
ATOM      4  C   UNL     1       2.186   7.517  18.875  0.00  0.00    +0.000 A 
ATOM      5  C   UNL     1       2.883   6.610  18.070  0.00  0.00    +0.000 A 
ATOM      6  C   UNL     1       3.147   5.295  18.505  0.00  0.00    +0.000 A 
ENDROOT
BRANCH   4   7
ATOM      7  C   UNL     1       1.718   8.860  18.422  0.00  0.00    +0.000 C 
ATOM      8  O   UNL     1       2.235   9.373  17.434  0.00  0.00    +0.000 OA
ATOM      9  N   UNL     1       0.742   9.500  19.152  0.00  0.00    +0.000 N 
ATOM     10  H   UNL     1       0.226   9.032  19.883  0.00  0.00    +0.000 HD
BRANCH   9  11
ATOM     11  C   UNL     1       0.289  10.809  18.743  0.00  0.00    +0.000 C 
BRANCH  11  12
ATOM     12  C   UNL     1      -1.162  10.801  18.335  0.00  0.00    +0.000 A 
ATOM     13  C   UNL     1      -1.573   9.912  17.327  0.00  0.00    +0.000 A 
ATOM     14  C   UNL     1      -2.892   9.907  16.872  0.00  0.00    +0.000 A 
ATOM     15  C   UNL     1      -3.817  10.786  17.423  0.00  0.00    +0.000 A 
ATOM     16  C   UNL     1      -3.433  11.652  18.446  0.00  0.00    +0.000 A 
ATOM     17  C   UNL     1      -2.113  11.662  18.924  0.00  0.00    +0.000 A 
ATOM     18  C   UNL     1      -1.747  12.607  20.037  0.00  0.00    +0.000 C 
ENDBRANCH  11  12
ENDBRANCH   9  11
ENDBRANCH   4   7
BRANCH   1  20
ATOM     19  C   UNL     1       1.596   2.804  19.833  0.00  0.00    +0.000 C 
ATOM     20  O   UNL     1       2.765   3.573  20.143  0.00  0.00    +0.000 OA
ENDBRANCH   1  20
BRANCH   6  21
ATOM     21  O   UNL     1       3.881   4.609  17.583  0.00  0.00    +0.000 OA
BRANCH  21  22
ATOM     22  C   UNL     1       4.991   5.166  16.886  0.00  0.00    +0.000 C 
ATOM     23  C   UNL     1       6.301   4.854  17.603  0.00  0.00    +0.000 C 
ATOM     24  C   UNL     1       7.336   4.614  16.516  0.00  0.00    +0.000 C 
ATOM     25  C   UNL     1       6.574   4.152  15.285  0.00  0.00    +0.000 C 
ATOM     26  C   UNL     1       5.098   4.400  15.559  0.00  0.00    +0.000 C 
ENDBRANCH  21  22
ENDBRANCH   6  21
TORSDOF 6
ENDMDL
MODEL 7
REMARK VINA RESULT:      -7.9      2.043      3.153
REMARK  Name = 
REMARK  8 active torsions:
REMARK  status: ('A' for Active; 'I' for Inactive)
REMARK    1  A    between atoms: C_1  and  O_2
REMARK    2  A    between atoms: O_2  and  C_3
REMARK    3  A    between atoms: C_6  and  C_7
REMARK    4  A    between atoms: N_9  and  C_10
REMARK    5  A    between atoms: C_10  and  C_11
REMARK    6  A    between atoms: C_16  and  C_17
REMARK    7  A    between atoms: C_19  and  O_20
REMARK    8  A    between atoms: O_20  and  C_21
REMARK                            x       y       z     vdW  Elec       q    Type
REMARK                         _______ _______ _______ _____ _____    ______ ____
ROOT
ATOM      1  C   UNL     1       2.681   4.128  19.079  0.00  0.00    +0.000 A 
ATOM      2  C   UNL     1       2.128   4.412  20.337  0.00  0.00    +0.000 A 
ATOM      3  C   UNL     1       1.832   5.719  20.712  0.00  0.00    +0.000 A 
ATOM      4  C   UNL     1       2.121   6.779  19.853  0.00  0.00    +0.000 A 
ATOM      5  C   UNL     1       2.807   6.510  18.665  0.00  0.00    +0.000 A 
ATOM      6  C   UNL     1       3.105   5.188  18.272  0.00  0.00    +0.000 A 
ENDROOT
BRANCH   4   7
ATOM      7  C   UNL     1       1.617   8.126  20.250  0.00  0.00    +0.000 C 
ATOM      8  O   UNL     1       1.434   8.372  21.438  0.00  0.00    +0.000 OA
ATOM      9  N   UNL     1       1.336   9.043  19.261  0.00  0.00    +0.000 N 
ATOM     10  H   UNL     1       1.604   8.894  18.300  0.00  0.00    +0.000 HD
BRANCH   9  11
ATOM     11  C   UNL     1       0.828  10.346  19.622  0.00  0.00    +0.000 C 
BRANCH  11  12
ATOM     12  C   UNL     1      -0.511  10.625  18.987  0.00  0.00    +0.000 A 
ATOM     13  C   UNL     1      -0.839   9.962  17.791  0.00  0.00    +0.000 A 
ATOM     14  C   UNL     1      -2.039  10.228  17.132  0.00  0.00    +0.000 A 
ATOM     15  C   UNL     1      -2.929  11.156  17.663  0.00  0.00    +0.000 A 
ATOM     16  C   UNL     1      -2.632  11.799  18.864  0.00  0.00    +0.000 A 
ATOM     17  C   UNL     1      -1.434  11.534  19.547  0.00  0.00    +0.000 A 
ATOM     18  C   UNL     1      -1.161  12.244  20.846  0.00  0.00    +0.000 C 
ENDBRANCH  11  12
ENDBRANCH   9  11
ENDBRANCH   4   7
BRANCH   1  20
ATOM     19  C   UNL     1       3.830   2.095  19.326  0.00  0.00    +0.000 C 
ATOM     20  O   UNL     1       2.803   2.831  18.649  0.00  0.00    +0.000 OA
ENDBRANCH   1  20
BRANCH   6  21
ATOM     21  O   UNL     1       3.821   5.169  17.111  0.00  0.00    +0.000 OA
BRANCH  21  22
ATOM     22  C   UNL     1       5.177   5.594  17.014  0.00  0.00    +0.000 C 
ATOM     23  C   UNL     1       6.078   4.764  17.923  0.00  0.00    +0.000 C 
ATOM     24  C   UNL     1       7.389   4.581  17.176  0.00  0.00    +0.000 C 
ATOM     25  C   UNL     1       7.065   4.701  15.696  0.00  0.00    +0.000 C 
ATOM     26  C   UNL     1       5.644   5.235  15.596  0.00  0.00    +0.000 C 
ENDBRANCH  21  22
ENDBRANCH   6  21
TORSDOF 6
ENDMDL
MODEL 8
REMARK VINA RESULT:      -7.8      2.583      4.445
REMARK  Name = 
REMARK  8 active torsions:
REMARK  status: ('A' for Active; 'I' for Inactive)
REMARK    1  A    between atoms: C_1  and  O_2
REMARK    2  A    between atoms: O_2  and  C_3
REMARK    3  A    between atoms: C_6  and  C_7
REMARK    4  A    between atoms: N_9  and  C_10
REMARK    5  A    between atoms: C_10  and  C_11
REMARK    6  A    between atoms: C_16  and  C_17
REMARK    7  A    between atoms: C_19  and  O_20
REMARK    8  A    between atoms: O_20  and  C_21
REMARK                            x       y       z     vdW  Elec       q    Type
REMARK                         _______ _______ _______ _____ _____    ______ ____
ROOT
ATOM      1  C   UNL     1       3.999   6.030  18.308  0.00  0.00    +0.000 A 
ATOM      2  C   UNL     1       3.780   7.124  17.455  0.00  0.00    +0.000 A 
ATOM      3  C   UNL     1       2.863   8.118  17.784  0.00  0.00    +0.000 A 
ATOM      4  C   UNL     1       2.112   8.022  18.955  0.00  0.00    +0.000 A 
ATOM      5  C   UNL     1       2.222   6.862  19.727  0.00  0.00    +0.000 A 
ATOM      6  C   UNL     1       3.153   5.851  19.407  0.00  0.00    +0.000 A 
ENDROOT
BRANCH   4   7
ATOM      7  C   UNL     1       1.283   9.206  19.324  0.00  0.00    +0.000 C 
ATOM      8  O   UNL     1       1.086   9.453  20.510  0.00  0.00    +0.000 OA
ATOM      9  N   UNL     1       0.731   9.965  18.317  0.00  0.00    +0.000 N 
ATOM     10  H   UNL     1       0.992   9.845  17.350  0.00  0.00    +0.000 HD
BRANCH   9  11
ATOM     11  C   UNL     1      -0.093  11.104  18.654  0.00  0.00    +0.000 C 
BRANCH  11  12
ATOM     12  C   UNL     1      -1.513  10.931  18.180  0.00  0.00    +0.000 A 
ATOM     13  C   UNL     1      -1.768  10.035  17.126  0.00  0.00    +0.000 A 
ATOM     14  C   UNL     1      -3.055   9.883  16.612  0.00  0.00    +0.000 A 
ATOM     15  C   UNL     1      -4.106  10.620  17.147  0.00  0.00    +0.000 A 
ATOM     16  C   UNL     1      -3.876  11.490  18.213  0.00  0.00    +0.000 A 
ATOM     17  C   UNL     1      -2.588  11.646  18.751  0.00  0.00    +0.000 A 
ATOM     18  C   UNL     1      -2.390  12.588  19.908  0.00  0.00    +0.000 C 
ENDBRANCH  11  12
ENDBRANCH   9  11
ENDBRANCH   4   7
BRANCH   1  20
ATOM     19  C   UNL     1       5.462   5.144  16.700  0.00  0.00    +0.000 C 
ATOM     20  O   UNL     1       5.025   5.154  18.066  0.00  0.00    +0.000 OA
ENDBRANCH   1  20
BRANCH   6  21
ATOM     21  O   UNL     1       3.048   4.795  20.263  0.00  0.00    +0.000 OA
BRANCH  21  22
ATOM     22  C   UNL     1       2.506   3.531  19.893  0.00  0.00    +0.000 C 
ATOM     23  C   UNL     1       1.920   3.576  18.486  0.00  0.00    +0.000 C 
ATOM     24  C   UNL     1       2.225   2.229  17.851  0.00  0.00    +0.000 C 
ATOM     25  C   UNL     1       3.459   1.688  18.553  0.00  0.00    +0.000 C 
ATOM     26  C   UNL     1       3.696   2.567  19.772  0.00  0.00    +0.000 C 
ENDBRANCH  21  22
ENDBRANCH   6  21
TORSDOF 6
ENDMDL
MODEL 9
REMARK VINA RESULT:      -7.7      2.692      4.708
REMARK  Name = 
REMARK  8 active torsions:
REMARK  status: ('A' for Active; 'I' for Inactive)
REMARK    1  A    between atoms: C_1  and  O_2
REMARK    2  A    between atoms: O_2  and  C_3
REMARK    3  A    between atoms: C_6  and  C_7
REMARK    4  A    between atoms: N_9  and  C_10
REMARK    5  A    between atoms: C_10  and  C_11
REMARK    6  A    between atoms: C_16  and  C_17
REMARK    7  A    between atoms: C_19  and  O_20
REMARK    8  A    between atoms: O_20  and  C_21
REMARK                            x       y       z     vdW  Elec       q    Type
REMARK                         _______ _______ _______ _____ _____    ______ ____
ROOT
ATOM      1  C   UNL     1       4.061   6.258  17.988  0.00  0.00    +0.000 A 
ATOM      2  C   UNL     1       3.584   7.256  17.125  0.00  0.00    +0.000 A 
ATOM      3  C   UNL     1       2.638   8.184  17.555  0.00  0.00    +0.000 A 
ATOM      4  C   UNL     1       2.117   8.109  18.846  0.00  0.00    +0.000 A 
ATOM      5  C   UNL     1       2.481   7.027  19.654  0.00  0.00    +0.000 A 
ATOM      6  C   UNL     1       3.443   6.086  19.231  0.00  0.00    +0.000 A 
ENDROOT
BRANCH   4   7
ATOM      7  C   UNL     1       1.244   9.236  19.288  0.00  0.00    +0.000 C 
ATOM      8  O   UNL     1       0.957   9.341  20.476  0.00  0.00    +0.000 OA
ATOM      9  N   UNL     1       0.756  10.105  18.338  0.00  0.00    +0.000 N 
ATOM     10  H   UNL     1       1.090  10.101  17.386  0.00  0.00    +0.000 HD
BRANCH   9  11
ATOM     11  C   UNL     1      -0.107  11.190  18.742  0.00  0.00    +0.000 C 
BRANCH  11  12
ATOM     12  C   UNL     1      -1.521  10.996  18.256  0.00  0.00    +0.000 A 
ATOM     13  C   UNL     1      -1.759  10.063  17.232  0.00  0.00    +0.000 A 
ATOM     14  C   UNL     1      -3.039   9.889  16.707  0.00  0.00    +0.000 A 
ATOM     15  C   UNL     1      -4.099  10.640  17.203  0.00  0.00    +0.000 A 
ATOM     16  C   UNL     1      -3.886  11.547  18.240  0.00  0.00    +0.000 A 
ATOM     17  C   UNL     1      -2.606  11.727  18.789  0.00  0.00    +0.000 A 
ATOM     18  C   UNL     1      -2.425  12.709  19.915  0.00  0.00    +0.000 C 
ENDBRANCH  11  12
ENDBRANCH   9  11
ENDBRANCH   4   7
BRANCH   1  20
ATOM     19  C   UNL     1       4.736   4.339  16.816  0.00  0.00    +0.000 C 
ATOM     20  O   UNL     1       5.117   5.465  17.617  0.00  0.00    +0.000 OA
ENDBRANCH   1  20
BRANCH   6  21
ATOM     21  O   UNL     1       3.600   5.094  20.154  0.00  0.00    +0.000 OA
BRANCH  21  22
ATOM     22  C   UNL     1       3.011   3.804  20.032  0.00  0.00    +0.000 C 
ATOM     23  C   UNL     1       2.560   3.276  21.390  0.00  0.00    +0.000 C 
ATOM     24  C   UNL     1       1.266   2.517  21.147  0.00  0.00    +0.000 C 
ATOM     25  C   UNL     1       0.645   3.109  19.893  0.00  0.00    +0.000 C 
ATOM     26  C   UNL     1       1.702   3.997  19.252  0.00  0.00    +0.000 C 
ENDBRANCH  21  22
ENDBRANCH   6  21
TORSDOF 6
ENDMDL
