MODEL 1
REMARK VINA RESULT:      -8.3      0.000      0.000
REMARK  Name = 
REMARK  7 active torsions:
REMARK  status: ('A' for Active; 'I' for Inactive)
REMARK    1  A    between atoms: C_1  and  C_2
REMARK    2  A    between atoms: C_8  and  C_9
REMARK    3  A    between atoms: N_11  and  C_12
REMARK    4  A    between atoms: C_17  and  N_18
REMARK    5  A    between atoms: N_26  and  C_27
REMARK    6  A    between atoms: C_27  and  C_28
REMARK    7  A    between atoms: C_27  and  C_29
REMARK                            x       y       z     vdW  Elec       q    Type
REMARK                         _______ _______ _______ _____ _____    ______ ____
ROOT
ATOM      1  C   UNL     1       0.795  12.145  20.524  0.00  0.00    +0.000 C 
ATOM      2  C   UNL     1      -0.610  11.527  20.533  0.00  0.00    +0.000 C 
ATOM      3  C   UNL     1      -0.586  10.106  19.922  0.00  0.00    +0.000 C 
ATOM      4  N   UNL     1       0.081   9.161  20.830  0.00  0.00    +0.000 N 
ATOM      5  C   UNL     1       0.988   8.275  20.315  0.00  0.00    +0.000 A 
ATOM      6  C   UNL     1       1.265   7.041  20.913  0.00  0.00    +0.000 A 
ATOM      7  C   UNL     1       2.214   6.169  20.361  0.00  0.00    +0.000 A 
ATOM      8  C   UNL     1       2.884   6.554  19.206  0.00  0.00    +0.000 A 
ATOM      9  C   UNL     1       2.597   7.798  18.686  0.00  0.00    +0.000 A 
ATOM     10  N   UNL     1       1.664   8.641  19.202  0.00  0.00    +0.000 NA
ATOM     11  C   UNL     1      -0.473   9.096  22.183  0.00  0.00    +0.000 C 
ATOM     12  C   UNL     1      -0.566  10.504  22.799  0.00  0.00    +0.000 C 
ATOM     13  N   UNL     1      -1.190  11.490  21.903  0.00  0.00    +0.000 N 
ATOM     14  C   UNL     1      -2.070  12.391  22.468  0.00  0.00    +0.000 C 
ATOM     15  O   UNL     1      -2.334  12.387  23.669  0.00  0.00    +0.000 OA
ATOM     16  N   UNL     1      -2.649  13.292  21.622  0.00  0.00    +0.000 N 
ATOM     17  H   UNL     1      -2.704  13.078  20.642  0.00  0.00    +0.000 HD
ENDROOT
BRANCH   8  18
ATOM     18  C   UNL     1       3.911   5.720  18.529  0.00  0.00    +0.000 C 
ATOM     19  O   UNL     1       4.395   4.785  19.165  0.00  0.00    +0.000 OA
ATOM     20  N   UNL     1       4.255   6.107  17.248  0.00  0.00    +0.000 N 
ATOM     21  H   UNL     1       3.815   6.932  16.864  0.00  0.00    +0.000 HD
BRANCH  20  22
ATOM     22  C   UNL     1       5.159   5.469  16.361  0.00  0.00    +0.000 A 
ATOM     23  C   UNL     1       4.768   4.421  15.518  0.00  0.00    +0.000 A 
ATOM     24  C   UNL     1       5.658   3.872  14.595  0.00  0.00    +0.000 A 
ATOM     25  C   UNL     1       6.952   4.367  14.498  0.00  0.00    +0.000 A 
ATOM     26  C   UNL     1       7.361   5.402  15.342  0.00  0.00    +0.000 A 
ATOM     27  C   UNL     1       6.488   5.951  16.294  0.00  0.00    +0.000 A 
BRANCH  27  28
ATOM     28  N   UNL     1       6.925   7.036  17.064  0.00  0.00    +0.000 N 
ATOM     29  H   UNL     1       6.231   7.704  17.378  0.00  0.00    +0.000 HD
ATOM     30  H   UNL     1       7.869   7.381  16.977  0.00  0.00    +0.000 HD
ENDBRANCH  27  28
ENDBRANCH  20  22
ENDBRANCH   8  18
BRANCH  16  31
ATOM     31  C   UNL     1      -3.606  14.289  22.108  0.00  0.00    +0.000 C 
ATOM     32  C   UNL     1      -3.014  15.046  23.310  0.00  0.00    +0.000 C 
BRANCH  31  33
ATOM     33  C   UNL     1      -4.956  13.631  22.387  0.00  0.00    +0.000 A 
ATOM     34  C   UNL     1      -5.666  12.923  21.413  0.00  0.00    +0.000 A 
ATOM     35  C   UNL     1      -6.912  12.355  21.694  0.00  0.00    +0.000 A 
ATOM     36  C   UNL     1      -7.465  12.476  22.964  0.00  0.00    +0.000 A 
ATOM     37  C   UNL     1      -6.757  13.129  23.962  0.00  0.00    +0.000 A 
ATOM     38  C   UNL     1      -5.510  13.678  23.684  0.00  0.00    +0.000 A 
ENDBRANCH  31  33
ENDBRANCH  16  31
TORSDOF 5
ENDMDL
MODEL 2
REMARK VINA RESULT:      -8.3      2.178      3.026
REMARK  Name = 
REMARK  7 active torsions:
REMARK  status: ('A' for Active; 'I' for Inactive)
REMARK    1  A    between atoms: C_1  and  C_2
REMARK    2  A    between atoms: C_8  and  C_9
REMARK    3  A    between atoms: N_11  and  C_12
REMARK    4  A    between atoms: C_17  and  N_18
REMARK    5  A    between atoms: N_26  and  C_27
REMARK    6  A    between atoms: C_27  and  C_28
REMARK    7  A    between atoms: C_27  and  C_29
REMARK                            x       y       z     vdW  Elec       q    Type
REMARK                         _______ _______ _______ _____ _____    ______ ____
ROOT
ATOM      1  C   UNL     1       0.622  12.923  19.908  0.00  0.00    +0.000 C 
ATOM      2  C   UNL     1      -0.792  12.391  20.178  0.00  0.00    +0.000 C 
ATOM      3  C   UNL     1      -0.884  10.885  19.832  0.00  0.00    +0.000 C 
ATOM      4  N   UNL     1      -0.148  10.079  20.818  0.00  0.00    +0.000 N 
ATOM      5  C   UNL     1       0.665   9.072  20.376  0.00  0.00    +0.000 A 
ATOM      6  C   UNL     1       0.968   7.948  21.153  0.00  0.00    +0.000 A 
ATOM      7  C   UNL     1       1.819   6.945  20.668  0.00  0.00    +0.000 A 
ATOM      8  C   UNL     1       2.364   7.086  19.398  0.00  0.00    +0.000 A 
ATOM      9  C   UNL     1       2.060   8.234  18.697  0.00  0.00    +0.000 A 
ATOM     10  N   UNL     1       1.221   9.201  19.150  0.00  0.00    +0.000 NA
ATOM     11  C   UNL     1      -0.546  10.281  22.212  0.00  0.00    +0.000 C 
ATOM     12  C   UNL     1      -0.522  11.777  22.572  0.00  0.00    +0.000 C 
ATOM     13  N   UNL     1      -1.212  12.623  21.586  0.00  0.00    +0.000 N 
ATOM     14  C   UNL     1      -1.992  13.654  22.071  0.00  0.00    +0.000 C 
ATOM     15  O   UNL     1      -2.117  13.873  23.275  0.00  0.00    +0.000 OA
ATOM     16  N   UNL     1      -2.635  14.422  21.144  0.00  0.00    +0.000 N 
ATOM     17  H   UNL     1      -2.808  14.043  20.230  0.00  0.00    +0.000 HD
ENDROOT
BRANCH   8  18
ATOM     18  C   UNL     1       3.280   6.095  18.776  0.00  0.00    +0.000 C 
ATOM     19  O   UNL     1       3.139   4.914  19.089  0.00  0.00    +0.000 OA
ATOM     20  N   UNL     1       4.240   6.610  17.925  0.00  0.00    +0.000 N 
ATOM     21  H   UNL     1       4.277   7.611  17.797  0.00  0.00    +0.000 HD
BRANCH  20  22
ATOM     22  C   UNL     1       5.198   5.895  17.163  0.00  0.00    +0.000 A 
ATOM     23  C   UNL     1       5.174   5.865  15.763  0.00  0.00    +0.000 A 
ATOM     24  C   UNL     1       6.182   5.225  15.041  0.00  0.00    +0.000 A 
ATOM     25  C   UNL     1       7.232   4.609  15.709  0.00  0.00    +0.000 A 
ATOM     26  C   UNL     1       7.262   4.617  17.106  0.00  0.00    +0.000 A 
ATOM     27  C   UNL     1       6.245   5.234  17.851  0.00  0.00    +0.000 A 
BRANCH  27  28
ATOM     28  N   UNL     1       6.362   5.279  19.245  0.00  0.00    +0.000 N 
ATOM     29  H   UNL     1       7.155   5.772  19.640  0.00  0.00    +0.000 HD
ATOM     30  H   UNL     1       5.958   4.553  19.818  0.00  0.00    +0.000 HD
ENDBRANCH  27  28
ENDBRANCH  20  22
ENDBRANCH   8  18
BRANCH  16  31
ATOM     31  C   UNL     1      -3.497  15.537  21.543  0.00  0.00    +0.000 C 
ATOM     32  C   UNL     1      -4.896  15.014  21.915  0.00  0.00    +0.000 C 
BRANCH  31  33
ATOM     33  C   UNL     1      -3.502  16.614  20.460  0.00  0.00    +0.000 A 
ATOM     34  C   UNL     1      -2.331  17.221  19.995  0.00  0.00    +0.000 A 
ATOM     35  C   UNL     1      -2.372  18.222  19.021  0.00  0.00    +0.000 A 
ATOM     36  C   UNL     1      -3.590  18.627  18.484  0.00  0.00    +0.000 A 
ATOM     37  C   UNL     1      -4.760  18.004  18.891  0.00  0.00    +0.000 A 
ATOM     38  C   UNL     1      -4.714  16.995  19.848  0.00  0.00    +0.000 A 
ENDBRANCH  31  33
ENDBRANCH  16  31
TORSDOF 5
ENDMDL
MODEL 3
REMARK VINA RESULT:      -8.1      1.633      2.031
REMARK  Name = 
REMARK  7 active torsions:
REMARK  status: ('A' for Active; 'I' for Inactive)
REMARK    1  A    between atoms: C_1  and  C_2
REMARK    2  A    between atoms: C_8  and  C_9
REMARK    3  A    between atoms: N_11  and  C_12
REMARK    4  A    between atoms: C_17  and  N_18
REMARK    5  A    between atoms: N_26  and  C_27
REMARK    6  A    between atoms: C_27  and  C_28
REMARK    7  A    between atoms: C_27  and  C_29
REMARK                            x       y       z     vdW  Elec       q    Type
REMARK                         _______ _______ _______ _____ _____    ______ ____
ROOT
ATOM      1  C   UNL     1       0.518  13.259  18.951  0.00  0.00    +0.000 C 
ATOM      2  C   UNL     1      -0.823  12.765  19.510  0.00  0.00    +0.000 C 
ATOM      3  C   UNL     1      -0.934  11.227  19.383  0.00  0.00    +0.000 C 
ATOM      4  N   UNL     1      -0.034  10.561  20.336  0.00  0.00    +0.000 N 
ATOM      5  C   UNL     1       0.723   9.505  19.906  0.00  0.00    +0.000 A 
ATOM      6  C   UNL     1       1.170   8.495  20.765  0.00  0.00    +0.000 A 
ATOM      7  C   UNL     1       1.957   7.438  20.287  0.00  0.00    +0.000 A 
ATOM      8  C   UNL     1       2.291   7.410  18.938  0.00  0.00    +0.000 A 
ATOM      9  C   UNL     1       1.854   8.454  18.151  0.00  0.00    +0.000 A 
ATOM     10  N   UNL     1       1.075   9.472  18.601  0.00  0.00    +0.000 NA
ATOM     11  C   UNL     1      -0.210  10.946  21.738  0.00  0.00    +0.000 C 
ATOM     12  C   UNL     1      -0.164  12.476  21.890  0.00  0.00    +0.000 C 
ATOM     13  N   UNL     1      -1.021  13.182  20.925  0.00  0.00    +0.000 N 
ATOM     14  C   UNL     1      -1.738  14.267  21.389  0.00  0.00    +0.000 C 
ATOM     15  O   UNL     1      -1.676  14.644  22.557  0.00  0.00    +0.000 OA
ATOM     16  N   UNL     1      -2.537  14.904  20.483  0.00  0.00    +0.000 N 
ATOM     17  H   UNL     1      -2.843  14.406  19.667  0.00  0.00    +0.000 HD
ENDROOT
BRANCH   8  18
ATOM     18  C   UNL     1       3.120   6.347  18.313  0.00  0.00    +0.000 C 
ATOM     19  O   UNL     1       2.732   5.184  18.422  0.00  0.00    +0.000 OA
ATOM     20  N   UNL     1       4.282   6.770  17.697  0.00  0.00    +0.000 N 
ATOM     21  H   UNL     1       4.507   7.755  17.728  0.00  0.00    +0.000 HD
BRANCH  20  22
ATOM     22  C   UNL     1       5.222   5.985  16.983  0.00  0.00    +0.000 A 
ATOM     23  C   UNL     1       5.224   5.902  15.585  0.00  0.00    +0.000 A 
ATOM     24  C   UNL     1       6.215   5.191  14.909  0.00  0.00    +0.000 A 
ATOM     25  C   UNL     1       7.224   4.555  15.621  0.00  0.00    +0.000 A 
ATOM     26  C   UNL     1       7.228   4.616  17.017  0.00  0.00    +0.000 A 
ATOM     27  C   UNL     1       6.225   5.306  17.716  0.00  0.00    +0.000 A 
BRANCH  27  28
ATOM     28  N   UNL     1       6.317   5.399  19.111  0.00  0.00    +0.000 N 
ATOM     29  H   UNL     1       5.738   6.085  19.579  0.00  0.00    +0.000 HD
ATOM     30  H   UNL     1       7.162   5.126  19.589  0.00  0.00    +0.000 HD
ENDBRANCH  27  28
ENDBRANCH  20  22
ENDBRANCH   8  18
BRANCH  16  31
ATOM     31  C   UNL     1      -3.351  16.060  20.865  0.00  0.00    +0.000 C 
ATOM     32  C   UNL     1      -2.448  17.188  21.396  0.00  0.00    +0.000 C 
BRANCH  31  33
ATOM     33  C   UNL     1      -4.452  15.633  21.835  0.00  0.00    +0.000 A 
ATOM     34  C   UNL     1      -4.654  16.260  23.068  0.00  0.00    +0.000 A 
ATOM     35  C   UNL     1      -5.655  15.827  23.944  0.00  0.00    +0.000 A 
ATOM     36  C   UNL     1      -6.481  14.765  23.593  0.00  0.00    +0.000 A 
ATOM     37  C   UNL     1      -6.333  14.161  22.353  0.00  0.00    +0.000 A 
ATOM     38  C   UNL     1      -5.348  14.605  21.477  0.00  0.00    +0.000 A 
ENDBRANCH  31  33
ENDBRANCH  16  31
TORSDOF 5
ENDMDL
MODEL 4
REMARK VINA RESULT:      -8.0      0.788      1.488
REMARK  Name = 
REMARK  7 active torsions:
REMARK  status: ('A' for Active; 'I' for Inactive)
REMARK    1  A    between atoms: C_1  and  C_2
REMARK    2  A    between atoms: C_8  and  C_9
REMARK    3  A    between atoms: N_11  and  C_12
REMARK    4  A    between atoms: C_17  and  N_18
REMARK    5  A    between atoms: N_26  and  C_27
REMARK    6  A    between atoms: C_27  and  C_28
REMARK    7  A    between atoms: C_27  and  C_29
REMARK                            x       y       z     vdW  Elec       q    Type
REMARK                         _______ _______ _______ _____ _____    ______ ____
ROOT
ATOM      1  C   UNL     1       0.417  12.405  20.578  0.00  0.00    +0.000 C 
ATOM      2  C   UNL     1      -0.962  11.735  20.640  0.00  0.00    +0.000 C 
ATOM      3  C   UNL     1      -0.893  10.291  20.090  0.00  0.00    +0.000 C 
ATOM      4  N   UNL     1      -0.174   9.412  21.025  0.00  0.00    +0.000 N 
ATOM      5  C   UNL     1       0.758   8.541  20.532  0.00  0.00    +0.000 A 
ATOM      6  C   UNL     1       1.093   7.345  21.178  0.00  0.00    +0.000 A 
ATOM      7  C   UNL     1       2.066   6.487  20.647  0.00  0.00    +0.000 A 
ATOM      8  C   UNL     1       2.701   6.847  19.464  0.00  0.00    +0.000 A 
ATOM      9  C   UNL     1       2.357   8.055  18.897  0.00  0.00    +0.000 A 
ATOM     10  N   UNL     1       1.401   8.883  19.392  0.00  0.00    +0.000 NA
ATOM     11  C   UNL     1      -0.703   9.386  22.390  0.00  0.00    +0.000 C 
ATOM     12  C   UNL     1      -0.841  10.814  22.946  0.00  0.00    +0.000 C 
ATOM     13  N   UNL     1      -1.517  11.736  22.020  0.00  0.00    +0.000 N 
ATOM     14  C   UNL     1      -2.423  12.626  22.562  0.00  0.00    +0.000 C 
ATOM     15  O   UNL     1      -2.666  12.665  23.766  0.00  0.00    +0.000 OA
ATOM     16  N   UNL     1      -3.051  13.466  21.688  0.00  0.00    +0.000 N 
ATOM     17  H   UNL     1      -3.113  13.207  20.720  0.00  0.00    +0.000 HD
ENDROOT
BRANCH   8  18
ATOM     18  C   UNL     1       3.749   6.024  18.805  0.00  0.00    +0.000 C 
ATOM     19  O   UNL     1       4.495   5.367  19.528  0.00  0.00    +0.000 OA
ATOM     20  N   UNL     1       3.808   6.112  17.427  0.00  0.00    +0.000 N 
ATOM     21  H   UNL     1       3.165   6.736  16.960  0.00  0.00    +0.000 HD
BRANCH  20  22
ATOM     22  C   UNL     1       4.665   5.403  16.548  0.00  0.00    +0.000 A 
ATOM     23  C   UNL     1       5.603   6.048  15.732  0.00  0.00    +0.000 A 
ATOM     24  C   UNL     1       6.492   5.317  14.943  0.00  0.00    +0.000 A 
ATOM     25  C   UNL     1       6.459   3.929  14.963  0.00  0.00    +0.000 A 
ATOM     26  C   UNL     1       5.519   3.271  15.760  0.00  0.00    +0.000 A 
ATOM     27  C   UNL     1       4.601   3.988  16.542  0.00  0.00    +0.000 A 
BRANCH  27  28
ATOM     28  N   UNL     1       3.730   3.281  17.380  0.00  0.00    +0.000 N 
ATOM     29  H   UNL     1       2.988   2.743  16.947  0.00  0.00    +0.000 HD
ATOM     30  H   UNL     1       3.565   3.589  18.327  0.00  0.00    +0.000 HD
ENDBRANCH  27  28
ENDBRANCH  20  22
ENDBRANCH   8  18
BRANCH  16  31
ATOM     31  C   UNL     1      -4.038  14.446  22.148  0.00  0.00    +0.000 C 
ATOM     32  C   UNL     1      -3.444  15.301  23.282  0.00  0.00    +0.000 C 
BRANCH  31  33
ATOM     33  C   UNL     1      -5.345  13.745  22.515  0.00  0.00    +0.000 A 
ATOM     34  C   UNL     1      -6.005  13.966  23.728  0.00  0.00    +0.000 A 
ATOM     35  C   UNL     1      -7.186  13.289  24.043  0.00  0.00    +0.000 A 
ATOM     36  C   UNL     1      -7.737  12.385  23.141  0.00  0.00    +0.000 A 
ATOM     37  C   UNL     1      -7.129  12.187  21.910  0.00  0.00    +0.000 A 
ATOM     38  C   UNL     1      -5.962  12.875  21.592  0.00  0.00    +0.000 A 
ENDBRANCH  31  33
ENDBRANCH  16  31
TORSDOF 5
ENDMDL
MODEL 5
REMARK VINA RESULT:      -7.9      1.740      2.746
REMARK  Name = 
REMARK  7 active torsions:
REMARK  status: ('A' for Active; 'I' for Inactive)
REMARK    1  A    between atoms: C_1  and  C_2
REMARK    2  A    between atoms: C_8  and  C_9
REMARK    3  A    between atoms: N_11  and  C_12
REMARK    4  A    between atoms: C_17  and  N_18
REMARK    5  A    between atoms: N_26  and  C_27
REMARK    6  A    between atoms: C_27  and  C_28
REMARK    7  A    between atoms: C_27  and  C_29
REMARK                            x       y       z     vdW  Elec       q    Type
REMARK                         _______ _______ _______ _____ _____    ______ ____
ROOT
ATOM      1  C   UNL     1       1.087  12.364  19.847  0.00  0.00    +0.000 C 
ATOM      2  C   UNL     1      -0.326  11.796  20.030  0.00  0.00    +0.000 C 
ATOM      3  C   UNL     1      -0.393  10.329  19.540  0.00  0.00    +0.000 C 
ATOM      4  N   UNL     1       0.328   9.440  20.464  0.00  0.00    +0.000 N 
ATOM      5  C   UNL     1       1.163   8.487  19.950  0.00  0.00    +0.000 A 
ATOM      6  C   UNL     1       1.460   7.297  20.624  0.00  0.00    +0.000 A 
ATOM      7  C   UNL     1       2.334   6.352  20.069  0.00  0.00    +0.000 A 
ATOM      8  C   UNL     1       2.909   6.619  18.831  0.00  0.00    +0.000 A 
ATOM      9  C   UNL     1       2.609   7.825  18.235  0.00  0.00    +0.000 A 
ATOM     10  N   UNL     1       1.747   8.737  18.756  0.00  0.00    +0.000 NA
ATOM     11  C   UNL     1      -0.106   9.505  21.861  0.00  0.00    +0.000 C 
ATOM     12  C   UNL     1      -0.108  10.960  22.361  0.00  0.00    +0.000 C 
ATOM     13  N   UNL     1      -0.784  11.890  21.442  0.00  0.00    +0.000 N 
ATOM     14  C   UNL     1      -1.587  12.862  22.003  0.00  0.00    +0.000 C 
ATOM     15  O   UNL     1      -1.744  12.965  23.218  0.00  0.00    +0.000 OA
ATOM     16  N   UNL     1      -2.216  13.710  21.136  0.00  0.00    +0.000 N 
ATOM     17  H   UNL     1      -2.362  13.418  20.187  0.00  0.00    +0.000 HD
ENDROOT
BRANCH   8  18
ATOM     18  C   UNL     1       3.851   5.700  18.142  0.00  0.00    +0.000 C 
ATOM     19  O   UNL     1       4.085   4.617  18.678  0.00  0.00    +0.000 OA
ATOM     20  N   UNL     1       4.410   6.174  16.971  0.00  0.00    +0.000 N 
ATOM     21  H   UNL     1       4.169   7.109  16.671  0.00  0.00    +0.000 HD
BRANCH  20  22
ATOM     22  C   UNL     1       5.290   5.495  16.091  0.00  0.00    +0.000 A 
ATOM     23  C   UNL     1       4.835   4.576  15.136  0.00  0.00    +0.000 A 
ATOM     24  C   UNL     1       5.716   3.990  14.227  0.00  0.00    +0.000 A 
ATOM     25  C   UNL     1       7.065   4.318  14.256  0.00  0.00    +0.000 A 
ATOM     26  C   UNL     1       7.537   5.222  15.212  0.00  0.00    +0.000 A 
ATOM     27  C   UNL     1       6.670   5.803  16.150  0.00  0.00    +0.000 A 
BRANCH  27  28
ATOM     28  N   UNL     1       7.180   6.758  17.038  0.00  0.00    +0.000 N 
ATOM     29  H   UNL     1       7.038   6.607  18.030  0.00  0.00    +0.000 HD
ATOM     30  H   UNL     1       7.307   7.716  16.746  0.00  0.00    +0.000 HD
ENDBRANCH  27  28
ENDBRANCH  20  22
ENDBRANCH   8  18
BRANCH  16  31
ATOM     31  C   UNL     1      -3.100  14.774  21.617  0.00  0.00    +0.000 C 
ATOM     32  C   UNL     1      -4.538  14.241  21.756  0.00  0.00    +0.000 C 
BRANCH  31  33
ATOM     33  C   UNL     1      -2.976  16.007  20.724  0.00  0.00    +0.000 A 
ATOM     34  C   UNL     1      -1.777  16.370  20.104  0.00  0.00    +0.000 A 
ATOM     35  C   UNL     1      -1.690  17.520  19.313  0.00  0.00    +0.000 A 
ATOM     36  C   UNL     1      -2.809  18.322  19.119  0.00  0.00    +0.000 A 
ATOM     37  C   UNL     1      -4.023  17.955  19.682  0.00  0.00    +0.000 A 
ATOM     38  C   UNL     1      -4.110  16.800  20.454  0.00  0.00    +0.000 A 
ENDBRANCH  31  33
ENDBRANCH  16  31
TORSDOF 5
ENDMDL
MODEL 6
REMARK VINA RESULT:      -7.9      1.436      2.145
REMARK  Name = 
REMARK  7 active torsions:
REMARK  status: ('A' for Active; 'I' for Inactive)
REMARK    1  A    between atoms: C_1  and  C_2
REMARK    2  A    between atoms: C_8  and  C_9
REMARK    3  A    between atoms: N_11  and  C_12
REMARK    4  A    between atoms: C_17  and  N_18
REMARK    5  A    between atoms: N_26  and  C_27
REMARK    6  A    between atoms: C_27  and  C_28
REMARK    7  A    between atoms: C_27  and  C_29
REMARK                            x       y       z     vdW  Elec       q    Type
REMARK                         _______ _______ _______ _____ _____    ______ ____
ROOT
ATOM      1  C   UNL     1      -1.518  10.455  22.567  0.00  0.00    +0.000 C 
ATOM      2  C   UNL     1      -0.919  11.796  22.125  0.00  0.00    +0.000 C 
ATOM      3  C   UNL     1       0.380  11.574  21.314  0.00  0.00    +0.000 C 
ATOM      4  N   UNL     1       0.075  11.017  19.988  0.00  0.00    +0.000 N 
ATOM      5  C   UNL     1       0.830   9.978  19.516  0.00  0.00    +0.000 A 
ATOM      6  C   UNL     1       1.009   9.731  18.150  0.00  0.00    +0.000 A 
ATOM      7  C   UNL     1       1.778   8.645  17.708  0.00  0.00    +0.000 A 
ATOM      8  C   UNL     1       2.361   7.810  18.654  0.00  0.00    +0.000 A 
ATOM      9  C   UNL     1       2.115   8.081  19.983  0.00  0.00    +0.000 A 
ATOM     10  N   UNL     1       1.389   9.142  20.421  0.00  0.00    +0.000 NA
ATOM     11  C   UNL     1      -0.871  11.794  19.185  0.00  0.00    +0.000 C 
ATOM     12  C   UNL     1      -2.152  12.084  19.986  0.00  0.00    +0.000 C 
ATOM     13  N   UNL     1      -1.888  12.604  21.337  0.00  0.00    +0.000 N 
ATOM     14  C   UNL     1      -2.697  13.626  21.791  0.00  0.00    +0.000 C 
ATOM     15  O   UNL     1      -3.608  14.095  21.111  0.00  0.00    +0.000 OA
ATOM     16  N   UNL     1      -2.432  14.104  23.042  0.00  0.00    +0.000 N 
ATOM     17  H   UNL     1      -1.516  13.973  23.432  0.00  0.00    +0.000 HD
ENDROOT
BRANCH   8  18
ATOM     18  C   UNL     1       3.194   6.628  18.311  0.00  0.00    +0.000 C 
ATOM     19  O   UNL     1       2.986   5.586  18.930  0.00  0.00    +0.000 OA
ATOM     20  N   UNL     1       4.161   6.831  17.345  0.00  0.00    +0.000 N 
ATOM     21  H   UNL     1       4.259   7.757  16.954  0.00  0.00    +0.000 HD
BRANCH  20  22
ATOM     22  C   UNL     1       5.051   5.874  16.793  0.00  0.00    +0.000 A 
ATOM     23  C   UNL     1       4.613   4.639  16.300  0.00  0.00    +0.000 A 
ATOM     24  C   UNL     1       5.502   3.756  15.685  0.00  0.00    +0.000 A 
ATOM     25  C   UNL     1       6.840   4.099  15.548  0.00  0.00    +0.000 A 
ATOM     26  C   UNL     1       7.295   5.322  16.048  0.00  0.00    +0.000 A 
ATOM     27  C   UNL     1       6.422   6.213  16.692  0.00  0.00    +0.000 A 
BRANCH  27  28
ATOM     28  N   UNL     1       6.913   7.456  17.108  0.00  0.00    +0.000 N 
ATOM     29  H   UNL     1       7.240   8.099  16.397  0.00  0.00    +0.000 HD
ATOM     30  H   UNL     1       7.309   7.570  18.029  0.00  0.00    +0.000 HD
ENDBRANCH  27  28
ENDBRANCH  20  22
ENDBRANCH   8  18
BRANCH  16  31
ATOM     31  C   UNL     1      -3.219  15.194  23.624  0.00  0.00    +0.000 C 
ATOM     32  C   UNL     1      -2.560  15.683  24.926  0.00  0.00    +0.000 C 
BRANCH  31  33
ATOM     33  C   UNL     1      -4.677  14.765  23.785  0.00  0.00    +0.000 A 
ATOM     34  C   UNL     1      -5.045  13.458  24.115  0.00  0.00    +0.000 A 
ATOM     35  C   UNL     1      -6.390  13.092  24.229  0.00  0.00    +0.000 A 
ATOM     36  C   UNL     1      -7.392  14.035  24.027  0.00  0.00    +0.000 A 
ATOM     37  C   UNL     1      -7.050  15.351  23.749  0.00  0.00    +0.000 A 
ATOM     38  C   UNL     1      -5.710  15.715  23.653  0.00  0.00    +0.000 A 
ENDBRANCH  31  33
ENDBRANCH  16  31
TORSDOF 5
ENDMDL
MODEL 7
REMARK VINA RESULT:      -7.8      1.842      2.990
REMARK  Name = 
REMARK  7 active torsions:
REMARK  status: ('A' for Active; 'I' for Inactive)
REMARK    1  A    between atoms: C_1  and  C_2
REMARK    2  A    between atoms: C_8  and  C_9
REMARK    3  A    between atoms: N_11  and  C_12
REMARK    4  A    between atoms: C_17  and  N_18
REMARK    5  A    between atoms: N_26  and  C_27
REMARK    6  A    between atoms: C_27  and  C_28
REMARK    7  A    between atoms: C_27  and  C_29
REMARK                            x       y       z     vdW  Elec       q    Type
REMARK                         _______ _______ _______ _____ _____    ______ ____
ROOT
ATOM      1  C   UNL     1       0.771  12.648  20.333  0.00  0.00    +0.000 C 
ATOM      2  C   UNL     1      -0.672  12.137  20.438  0.00  0.00    +0.000 C 
ATOM      3  C   UNL     1      -0.768  10.669  19.957  0.00  0.00    +0.000 C 
ATOM      4  N   UNL     1      -0.137   9.762  20.926  0.00  0.00    +0.000 N 
ATOM      5  C   UNL     1       0.688   8.771  20.467  0.00  0.00    +0.000 A 
ATOM      6  C   UNL     1       0.899   7.578  21.166  0.00  0.00    +0.000 A 
ATOM      7  C   UNL     1       1.766   6.594  20.668  0.00  0.00    +0.000 A 
ATOM      8  C   UNL     1       2.420   6.827  19.464  0.00  0.00    +0.000 A 
ATOM      9  C   UNL     1       2.202   8.039  18.844  0.00  0.00    +0.000 A 
ATOM     10  N   UNL     1       1.349   8.988  19.307  0.00  0.00    +0.000 NA
ATOM     11  C   UNL     1      -0.647   9.856  22.295  0.00  0.00    +0.000 C 
ATOM     12  C   UNL     1      -0.620  11.315  22.785  0.00  0.00    +0.000 C 
ATOM     13  N   UNL     1      -1.205  12.262  21.822  0.00  0.00    +0.000 N 
ATOM     14  C   UNL     1      -2.001  13.270  22.328  0.00  0.00    +0.000 C 
ATOM     15  O   UNL     1      -2.222  13.390  23.532  0.00  0.00    +0.000 OA
ATOM     16  N   UNL     1      -2.545  14.133  21.421  0.00  0.00    +0.000 N 
ATOM     17  H   UNL     1      -2.648  13.838  20.467  0.00  0.00    +0.000 HD
ENDROOT
BRANCH   8  18
ATOM     18  C   UNL     1       3.363   5.865  18.837  0.00  0.00    +0.000 C 
ATOM     19  O   UNL     1       3.268   4.682  19.158  0.00  0.00    +0.000 OA
ATOM     20  N   UNL     1       4.294   6.409  17.972  0.00  0.00    +0.000 N 
ATOM     21  H   UNL     1       4.294   7.411  17.838  0.00  0.00    +0.000 HD
BRANCH  20  22
ATOM     22  C   UNL     1       5.268   5.724  17.202  0.00  0.00    +0.000 A 
ATOM     23  C   UNL     1       5.210   5.658  15.805  0.00  0.00    +0.000 A 
ATOM     24  C   UNL     1       6.230   5.051  15.072  0.00  0.00    +0.000 A 
ATOM     25  C   UNL     1       7.327   4.506  15.726  0.00  0.00    +0.000 A 
ATOM     26  C   UNL     1       7.393   4.552  17.121  0.00  0.00    +0.000 A 
ATOM     27  C   UNL     1       6.365   5.135  17.877  0.00  0.00    +0.000 A 
BRANCH  27  28
ATOM     28  N   UNL     1       6.514   5.221  19.267  0.00  0.00    +0.000 N 
ATOM     29  H   UNL     1       7.334   5.695  19.627  0.00  0.00    +0.000 HD
ATOM     30  H   UNL     1       6.095   4.531  19.872  0.00  0.00    +0.000 HD
ENDBRANCH  27  28
ENDBRANCH  20  22
ENDBRANCH   8  18
BRANCH  16  31
ATOM     31  C   UNL     1      -3.413  15.235  21.843  0.00  0.00    +0.000 C 
ATOM     32  C   UNL     1      -4.441  15.547  20.741  0.00  0.00    +0.000 C 
BRANCH  31  33
ATOM     33  C   UNL     1      -2.571  16.436  22.270  0.00  0.00    +0.000 A 
ATOM     34  C   UNL     1      -1.613  17.020  21.435  0.00  0.00    +0.000 A 
ATOM     35  C   UNL     1      -0.842  18.103  21.866  0.00  0.00    +0.000 A 
ATOM     36  C   UNL     1      -1.025  18.630  23.140  0.00  0.00    +0.000 A 
ATOM     37  C   UNL     1      -2.004  18.101  23.967  0.00  0.00    +0.000 A 
ATOM     38  C   UNL     1      -2.783  17.034  23.529  0.00  0.00    +0.000 A 
ENDBRANCH  31  33
ENDBRANCH  16  31
TORSDOF 5
ENDMDL
MODEL 8
REMARK VINA RESULT:      -7.8      1.339      2.634
REMARK  Name = 
REMARK  7 active torsions:
REMARK  status: ('A' for Active; 'I' for Inactive)
REMARK    1  A    between atoms: C_1  and  C_2
REMARK    2  A    between atoms: C_8  and  C_9
REMARK    3  A    between atoms: N_11  and  C_12
REMARK    4  A    between atoms: C_17  and  N_18
REMARK    5  A    between atoms: N_26  and  C_27
REMARK    6  A    between atoms: C_27  and  C_28
REMARK    7  A    between atoms: C_27  and  C_29
REMARK                            x       y       z     vdW  Elec       q    Type
REMARK                         _______ _______ _______ _____ _____    ______ ____
ROOT
ATOM      1  C   UNL     1       0.835  12.190  20.565  0.00  0.00    +0.000 C 
ATOM      2  C   UNL     1      -0.580  11.599  20.555  0.00  0.00    +0.000 C 
ATOM      3  C   UNL     1      -0.573  10.175  19.949  0.00  0.00    +0.000 C 
ATOM      4  N   UNL     1       0.062   9.221  20.871  0.00  0.00    +0.000 N 
ATOM      5  C   UNL     1       0.961   8.317  20.373  0.00  0.00    +0.000 A 
ATOM      6  C   UNL     1       1.206   7.080  20.980  0.00  0.00    +0.000 A 
ATOM      7  C   UNL     1       2.148   6.189  20.447  0.00  0.00    +0.000 A 
ATOM      8  C   UNL     1       2.842   6.557  19.301  0.00  0.00    +0.000 A 
ATOM      9  C   UNL     1       2.586   7.804  18.772  0.00  0.00    +0.000 A 
ATOM     10  N   UNL     1       1.661   8.666  19.270  0.00  0.00    +0.000 NA
ATOM     11  C   UNL     1      -0.514   9.172  22.216  0.00  0.00    +0.000 C 
ATOM     12  C   UNL     1      -0.590  10.584  22.825  0.00  0.00    +0.000 C 
ATOM     13  N   UNL     1      -1.182  11.577  21.915  0.00  0.00    +0.000 N 
ATOM     14  C   UNL     1      -2.054  12.497  22.463  0.00  0.00    +0.000 C 
ATOM     15  O   UNL     1      -2.337  12.502  23.660  0.00  0.00    +0.000 OA
ATOM     16  N   UNL     1      -2.604  13.405  21.605  0.00  0.00    +0.000 N 
ATOM     17  H   UNL     1      -2.647  13.187  20.625  0.00  0.00    +0.000 HD
ENDROOT
BRANCH   8  18
ATOM     18  C   UNL     1       3.864   5.702  18.644  0.00  0.00    +0.000 C 
ATOM     19  O   UNL     1       4.299   4.743  19.279  0.00  0.00    +0.000 OA
ATOM     20  N   UNL     1       4.261   6.098  17.381  0.00  0.00    +0.000 N 
ATOM     21  H   UNL     1       3.859   6.941  16.996  0.00  0.00    +0.000 HD
BRANCH  20  22
ATOM     22  C   UNL     1       5.173   5.445  16.512  0.00  0.00    +0.000 A 
ATOM     23  C   UNL     1       4.809   4.333  15.742  0.00  0.00    +0.000 A 
ATOM     24  C   UNL     1       5.703   3.767  14.832  0.00  0.00    +0.000 A 
ATOM     25  C   UNL     1       6.972   4.308  14.676  0.00  0.00    +0.000 A 
ATOM     26  C   UNL     1       7.355   5.408  15.448  0.00  0.00    +0.000 A 
ATOM     27  C   UNL     1       6.479   5.976  16.386  0.00  0.00    +0.000 A 
BRANCH  27  28
ATOM     28  N   UNL     1       6.885   7.123  17.081  0.00  0.00    +0.000 N 
ATOM     29  H   UNL     1       6.681   7.173  18.072  0.00  0.00    +0.000 HD
ATOM     30  H   UNL     1       6.989   8.004  16.600  0.00  0.00    +0.000 HD
ENDBRANCH  27  28
ENDBRANCH  20  22
ENDBRANCH   8  18
BRANCH  16  31
ATOM     31  C   UNL     1      -3.550  14.420  22.072  0.00  0.00    +0.000 C 
ATOM     32  C   UNL     1      -4.552  14.761  20.954  0.00  0.00    +0.000 C 
BRANCH  31  33
ATOM     33  C   UNL     1      -2.796  15.630  22.624  0.00  0.00    +0.000 A 
ATOM     34  C   UNL     1      -2.971  16.093  23.931  0.00  0.00    +0.000 A 
ATOM     35  C   UNL     1      -2.285  17.219  24.397  0.00  0.00    +0.000 A 
ATOM     36  C   UNL     1      -1.400  17.894  23.564  0.00  0.00    +0.000 A 
ATOM     37  C   UNL     1      -1.171  17.422  22.280  0.00  0.00    +0.000 A 
ATOM     38  C   UNL     1      -1.842  16.292  21.824  0.00  0.00    +0.000 A 
ENDBRANCH  31  33
ENDBRANCH  16  31
TORSDOF 5
ENDMDL
MODEL 9
REMARK VINA RESULT:      -7.8      2.179      3.774
REMARK  Name = 
REMARK  7 active torsions:
REMARK  status: ('A' for Active; 'I' for Inactive)
REMARK    1  A    between atoms: C_1  and  C_2
REMARK    2  A    between atoms: C_8  and  C_9
REMARK    3  A    between atoms: N_11  and  C_12
REMARK    4  A    between atoms: C_17  and  N_18
REMARK    5  A    between atoms: N_26  and  C_27
REMARK    6  A    between atoms: C_27  and  C_28
REMARK    7  A    between atoms: C_27  and  C_29
REMARK                            x       y       z     vdW  Elec       q    Type
REMARK                         _______ _______ _______ _____ _____    ______ ____
ROOT
ATOM      1  C   UNL     1      -1.311  10.801  22.882  0.00  0.00    +0.000 C 
ATOM      2  C   UNL     1      -0.821  12.124  22.280  0.00  0.00    +0.000 C 
ATOM      3  C   UNL     1       0.352  11.878  21.301  0.00  0.00    +0.000 C 
ATOM      4  N   UNL     1      -0.127  11.234  20.068  0.00  0.00    +0.000 N 
ATOM      5  C   UNL     1       0.581  10.184  19.551  0.00  0.00    +0.000 A 
ATOM      6  C   UNL     1       0.566   9.857  18.191  0.00  0.00    +0.000 A 
ATOM      7  C   UNL     1       1.294   8.762  17.704  0.00  0.00    +0.000 A 
ATOM      8  C   UNL     1       2.032   7.998  18.600  0.00  0.00    +0.000 A 
ATOM      9  C   UNL     1       1.974   8.345  19.933  0.00  0.00    +0.000 A 
ATOM     10  N   UNL     1       1.289   9.416  20.411  0.00  0.00    +0.000 NA
ATOM     11  C   UNL     1      -1.201  11.942  19.370  0.00  0.00    +0.000 C 
ATOM     12  C   UNL     1      -2.360  12.255  20.332  0.00  0.00    +0.000 C 
ATOM     13  N   UNL     1      -1.917  12.862  21.597  0.00  0.00    +0.000 N 
ATOM     14  C   UNL     1      -2.680  13.894  22.106  0.00  0.00    +0.000 C 
ATOM     15  O   UNL     1      -3.693  14.303  21.541  0.00  0.00    +0.000 OA
ATOM     16  N   UNL     1      -2.250  14.454  23.274  0.00  0.00    +0.000 N 
ATOM     17  H   UNL     1      -1.284  14.365  23.532  0.00  0.00    +0.000 HD
ENDROOT
BRANCH   8  18
ATOM     18  C   UNL     1       2.839   6.814  18.208  0.00  0.00    +0.000 C 
ATOM     19  O   UNL     1       2.405   5.703  18.509  0.00  0.00    +0.000 OA
ATOM     20  N   UNL     1       4.035   7.083  17.570  0.00  0.00    +0.000 N 
ATOM     21  H   UNL     1       4.296   8.050  17.432  0.00  0.00    +0.000 HD
BRANCH  20  22
ATOM     22  C   UNL     1       4.968   6.153  17.044  0.00  0.00    +0.000 A 
ATOM     23  C   UNL     1       5.198   6.017  15.670  0.00  0.00    +0.000 A 
ATOM     24  C   UNL     1       6.184   5.155  15.189  0.00  0.00    +0.000 A 
ATOM     25  C   UNL     1       6.959   4.420  16.077  0.00  0.00    +0.000 A 
ATOM     26  C   UNL     1       6.731   4.534  17.451  0.00  0.00    +0.000 A 
ATOM     27  C   UNL     1       5.727   5.377  17.953  0.00  0.00    +0.000 A 
BRANCH  27  28
ATOM     28  N   UNL     1       5.590   5.511  19.340  0.00  0.00    +0.000 N 
ATOM     29  H   UNL     1       5.347   6.424  19.706  0.00  0.00    +0.000 HD
ATOM     30  H   UNL     1       6.086   4.896  19.967  0.00  0.00    +0.000 HD
ENDBRANCH  27  28
ENDBRANCH  20  22
ENDBRANCH   8  18
BRANCH  16  31
ATOM     31  C   UNL     1      -2.974  15.562  23.901  0.00  0.00    +0.000 C 
ATOM     32  C   UNL     1      -3.447  16.558  22.827  0.00  0.00    +0.000 C 
BRANCH  31  33
ATOM     33  C   UNL     1      -2.125  16.190  25.005  0.00  0.00    +0.000 A 
ATOM     34  C   UNL     1      -1.292  15.435  25.837  0.00  0.00    +0.000 A 
ATOM     35  C   UNL     1      -0.547  16.038  26.854  0.00  0.00    +0.000 A 
ATOM     36  C   UNL     1      -0.614  17.413  27.050  0.00  0.00    +0.000 A 
ATOM     37  C   UNL     1      -1.393  18.190  26.205  0.00  0.00    +0.000 A 
ATOM     38  C   UNL     1      -2.120  17.589  25.182  0.00  0.00    +0.000 A 
ENDBRANCH  31  33
ENDBRANCH  16  31
TORSDOF 5
ENDMDL
