MODEL 1
REMARK VINA RESULT:      -7.3      0.000      0.000
REMARK  Name = 
REMARK  3 active torsions:
REMARK  status: ('A' for Active; 'I' for Inactive)
REMARK    1  A    between atoms: C_2  and  C_10
REMARK    2  A    between atoms: N_3  and  C_4
REMARK    3  A    between atoms: C_4  and  C_5
REMARK                            x       y       z     vdW  Elec       q    Type
REMARK                         _______ _______ _______ _____ _____    ______ ____
ROOT
ATOM      1  O   UNL     1       6.630   4.785  17.705  0.00  0.00    +0.000 OA
ATOM      2  C   UNL     1       5.479   4.670  17.326  0.00  0.00    +0.000 C 
ATOM      3  N   UNL     1       5.152   4.088  16.123  0.00  0.00    +0.000 N 
ATOM      4  H   UNL     1       4.241   4.229  15.717  0.00  0.00    +0.000 HD
ENDROOT
BRANCH   2   5
ATOM      5  C   UNL     1       4.329   5.140  18.119  0.00  0.00    +0.000 A 
ATOM      6  C   UNL     1       3.952   6.472  18.182  0.00  0.00    +0.000 A 
ATOM      7  S   UNL     1       2.592   6.733  19.151  0.00  0.00    +0.000 S 
ATOM      8  C   UNL     1       2.462   5.070  19.547  0.00  0.00    +0.000 A 
ATOM      9  C   UNL     1       3.465   4.314  18.958  0.00  0.00    +0.000 A 
ATOM     10  C   UNL     1       3.691   2.837  19.176  0.00  0.00    +0.000 C 
ATOM     11  C   UNL     1       2.482   1.904  19.210  0.00  0.00    +0.000 C 
ATOM     12  C   UNL     1       1.100   2.516  19.040  0.00  0.00    +0.000 C 
ATOM     13  C   UNL     1       0.665   3.339  20.243  0.00  0.00    +0.000 C 
ATOM     14  C   UNL     1       1.361   4.675  20.490  0.00  0.00    +0.000 C 
ENDBRANCH   2   5
BRANCH   3  15
ATOM     15  C   UNL     1       6.175   3.586  15.220  0.00  0.00    +0.000 C 
BRANCH  15  16
ATOM     16  C   UNL     1       6.210   4.428  13.944  0.00  0.00    +0.000 C 
ATOM     17  C   UNL     1       6.439   3.617  12.674  0.00  0.00    +0.000 C 
ATOM     18  C   UNL     1       7.229   4.570  11.815  0.00  0.00    +0.000 C 
ATOM     19  C   UNL     1       8.072   5.303  12.833  0.00  0.00    +0.000 C 
ATOM     20  O   UNL     1       7.294   5.382  14.033  0.00  0.00    +0.000 OA
ENDBRANCH  15  16
ENDBRANCH   3  15
TORSDOF 3
ENDMDL
MODEL 2
REMARK VINA RESULT:      -7.1      1.416      1.776
REMARK  Name = 
REMARK  3 active torsions:
REMARK  status: ('A' for Active; 'I' for Inactive)
REMARK    1  A    between atoms: C_2  and  C_10
REMARK    2  A    between atoms: N_3  and  C_4
REMARK    3  A    between atoms: C_4  and  C_5
REMARK                            x       y       z     vdW  Elec       q    Type
REMARK                         _______ _______ _______ _____ _____    ______ ____
ROOT
ATOM      1  O   UNL     1       6.987   4.422  16.881  0.00  0.00    +0.000 OA
ATOM      2  C   UNL     1       5.895   4.640  16.390  0.00  0.00    +0.000 C 
ATOM      3  N   UNL     1       5.632   4.437  15.054  0.00  0.00    +0.000 N 
ATOM      4  H   UNL     1       4.823   4.855  14.623  0.00  0.00    +0.000 HD
ENDROOT
BRANCH   2   5
ATOM      5  C   UNL     1       4.754   5.139  17.177  0.00  0.00    +0.000 A 
ATOM      6  C   UNL     1       4.358   6.467  17.169  0.00  0.00    +0.000 A 
ATOM      7  S   UNL     1       3.013   6.765  18.149  0.00  0.00    +0.000 S 
ATOM      8  C   UNL     1       2.916   5.127  18.644  0.00  0.00    +0.000 A 
ATOM      9  C   UNL     1       3.920   4.352  18.080  0.00  0.00    +0.000 A 
ATOM     10  C   UNL     1       4.172   2.893  18.379  0.00  0.00    +0.000 C 
ATOM     11  C   UNL     1       2.979   1.947  18.492  0.00  0.00    +0.000 C 
ATOM     12  C   UNL     1       1.584   2.528  18.315  0.00  0.00    +0.000 C 
ATOM     13  C   UNL     1       1.159   3.414  19.477  0.00  0.00    +0.000 C 
ATOM     14  C   UNL     1       1.840   4.772  19.630  0.00  0.00    +0.000 C 
ENDBRANCH   2   5
BRANCH   3  15
ATOM     15  C   UNL     1       6.659   3.959  14.142  0.00  0.00    +0.000 C 
BRANCH  15  16
ATOM     16  C   UNL     1       6.117   3.923  12.713  0.00  0.00    +0.000 C 
ATOM     17  C   UNL     1       4.607   3.741  12.629  0.00  0.00    +0.000 C 
ATOM     18  C   UNL     1       4.443   2.938  11.364  0.00  0.00    +0.000 C 
ATOM     19  C   UNL     1       5.670   2.055  11.379  0.00  0.00    +0.000 C 
ATOM     20  O   UNL     1       6.712   2.809  12.007  0.00  0.00    +0.000 OA
ENDBRANCH  15  16
ENDBRANCH   3  15
TORSDOF 3
ENDMDL
MODEL 3
REMARK VINA RESULT:      -7.0      1.220      1.529
REMARK  Name = 
REMARK  3 active torsions:
REMARK  status: ('A' for Active; 'I' for Inactive)
REMARK    1  A    between atoms: C_2  and  C_10
REMARK    2  A    between atoms: N_3  and  C_4
REMARK    3  A    between atoms: C_4  and  C_5
REMARK                            x       y       z     vdW  Elec       q    Type
REMARK                         _______ _______ _______ _____ _____    ______ ____
ROOT
ATOM      1  O   UNL     1       6.641   4.573  17.048  0.00  0.00    +0.000 OA
ATOM      2  C   UNL     1       5.615   5.054  16.606  0.00  0.00    +0.000 C 
ATOM      3  N   UNL     1       5.432   5.299  15.264  0.00  0.00    +0.000 N 
ATOM      4  H   UNL     1       4.702   5.920  14.951  0.00  0.00    +0.000 HD
ENDROOT
BRANCH   2   5
ATOM      5  C   UNL     1       4.473   5.419  17.463  0.00  0.00    +0.000 A 
ATOM      6  C   UNL     1       4.014   6.720  17.594  0.00  0.00    +0.000 A 
ATOM      7  S   UNL     1       2.684   6.855  18.627  0.00  0.00    +0.000 S 
ATOM      8  C   UNL     1       2.678   5.174  18.962  0.00  0.00    +0.000 A 
ATOM      9  C   UNL     1       3.701   4.507  18.303  0.00  0.00    +0.000 A 
ATOM     10  C   UNL     1       4.030   3.041  18.452  0.00  0.00    +0.000 C 
ATOM     11  C   UNL     1       2.886   2.031  18.499  0.00  0.00    +0.000 C 
ATOM     12  C   UNL     1       1.461   2.556  18.410  0.00  0.00    +0.000 C 
ATOM     13  C   UNL     1       1.027   3.304  19.662  0.00  0.00    +0.000 C 
ATOM     14  C   UNL     1       1.647   4.672  19.932  0.00  0.00    +0.000 C 
ENDBRANCH   2   5
BRANCH   3  15
ATOM     15  C   UNL     1       6.472   5.007  14.290  0.00  0.00    +0.000 C 
BRANCH  15  16
ATOM     16  C   UNL     1       6.156   3.702  13.559  0.00  0.00    +0.000 C 
ATOM     17  C   UNL     1       6.920   3.525  12.253  0.00  0.00    +0.000 C 
ATOM     18  C   UNL     1       5.937   2.765  11.400  0.00  0.00    +0.000 C 
ATOM     19  C   UNL     1       4.611   3.338  11.843  0.00  0.00    +0.000 C 
ATOM     20  O   UNL     1       4.748   3.671  13.229  0.00  0.00    +0.000 OA
ENDBRANCH  15  16
ENDBRANCH   3  15
TORSDOF 3
ENDMDL
MODEL 4
REMARK VINA RESULT:      -6.8      3.964      7.204
REMARK  Name = 
REMARK  3 active torsions:
REMARK  status: ('A' for Active; 'I' for Inactive)
REMARK    1  A    between atoms: C_2  and  C_10
REMARK    2  A    between atoms: N_3  and  C_4
REMARK    3  A    between atoms: C_4  and  C_5
REMARK                            x       y       z     vdW  Elec       q    Type
REMARK                         _______ _______ _______ _____ _____    ______ ____
ROOT
ATOM      1  O   UNL     1       2.537   8.427  17.211  0.00  0.00    +0.000 OA
ATOM      2  C   UNL     1       2.700   7.631  18.116  0.00  0.00    +0.000 C 
ATOM      3  N   UNL     1       2.133   7.800  19.359  0.00  0.00    +0.000 N 
ATOM      4  H   UNL     1       2.478   7.283  20.153  0.00  0.00    +0.000 HD
ENDROOT
BRANCH   2   5
ATOM      5  C   UNL     1       3.516   6.413  17.968  0.00  0.00    +0.000 A 
ATOM      6  C   UNL     1       4.898   6.441  17.864  0.00  0.00    +0.000 A 
ATOM      7  S   UNL     1       5.585   4.904  17.717  0.00  0.00    +0.000 S 
ATOM      8  C   UNL     1       4.054   4.133  17.766  0.00  0.00    +0.000 A 
ATOM      9  C   UNL     1       3.014   5.045  17.874  0.00  0.00    +0.000 A 
ATOM     10  C   UNL     1       1.544   4.704  17.851  0.00  0.00    +0.000 C 
ATOM     11  C   UNL     1       1.059   3.481  18.627  0.00  0.00    +0.000 C 
ATOM     12  C   UNL     1       2.092   2.651  19.375  0.00  0.00    +0.000 C 
ATOM     13  C   UNL     1       3.004   1.864  18.446  0.00  0.00    +0.000 C 
ATOM     14  C   UNL     1       4.036   2.637  17.629  0.00  0.00    +0.000 C 
ENDBRANCH   2   5
BRANCH   3  15
ATOM     15  C   UNL     1       1.311   8.958  19.668  0.00  0.00    +0.000 C 
BRANCH  15  16
ATOM     16  C   UNL     1       1.111   9.073  21.179  0.00  0.00    +0.000 C 
ATOM     17  C   UNL     1      -0.191   8.458  21.678  0.00  0.00    +0.000 C 
ATOM     18  C   UNL     1      -0.553   9.352  22.836  0.00  0.00    +0.000 C 
ATOM     19  C   UNL     1      -0.072  10.705  22.365  0.00  0.00    +0.000 C 
ATOM     20  O   UNL     1       1.082  10.471  21.550  0.00  0.00    +0.000 OA
ENDBRANCH  15  16
ENDBRANCH   3  15
TORSDOF 3
ENDMDL
MODEL 5
REMARK VINA RESULT:      -6.8      1.539      2.495
REMARK  Name = 
REMARK  3 active torsions:
REMARK  status: ('A' for Active; 'I' for Inactive)
REMARK    1  A    between atoms: C_2  and  C_10
REMARK    2  A    between atoms: N_3  and  C_4
REMARK    3  A    between atoms: C_4  and  C_5
REMARK                            x       y       z     vdW  Elec       q    Type
REMARK                         _______ _______ _______ _____ _____    ______ ____
ROOT
ATOM      1  O   UNL     1       6.958   4.713  18.920  0.00  0.00    +0.000 OA
ATOM      2  C   UNL     1       5.967   4.300  18.347  0.00  0.00    +0.000 C 
ATOM      3  N   UNL     1       5.913   4.151  16.980  0.00  0.00    +0.000 N 
ATOM      4  H   UNL     1       5.026   4.058  16.510  0.00  0.00    +0.000 HD
ENDROOT
BRANCH   2   5
ATOM      5  C   UNL     1       4.735   3.922  19.061  0.00  0.00    +0.000 A 
ATOM      6  C   UNL     1       4.602   2.729  19.755  0.00  0.00    +0.000 A 
ATOM      7  S   UNL     1       3.092   2.554  20.494  0.00  0.00    +0.000 S 
ATOM      8  C   UNL     1       2.542   4.064  19.897  0.00  0.00    +0.000 A 
ATOM      9  C   UNL     1       3.499   4.697  19.118  0.00  0.00    +0.000 A 
ATOM     10  C   UNL     1       3.302   5.995  18.372  0.00  0.00    +0.000 C 
ATOM     11  C   UNL     1       2.558   7.136  19.062  0.00  0.00    +0.000 C 
ATOM     12  C   UNL     1       2.032   6.901  20.470  0.00  0.00    +0.000 C 
ATOM     13  C   UNL     1       0.857   5.935  20.510  0.00  0.00    +0.000 C 
ATOM     14  C   UNL     1       1.132   4.459  20.232  0.00  0.00    +0.000 C 
ENDBRANCH   2   5
BRANCH   3  15
ATOM     15  C   UNL     1       7.043   4.495  16.133  0.00  0.00    +0.000 C 
BRANCH  15  16
ATOM     16  C   UNL     1       6.557   4.860  14.730  0.00  0.00    +0.000 C 
ATOM     17  C   UNL     1       6.171   3.657  13.878  0.00  0.00    +0.000 C 
ATOM     18  C   UNL     1       6.552   4.104  12.490  0.00  0.00    +0.000 C 
ATOM     19  C   UNL     1       7.788   4.935  12.743  0.00  0.00    +0.000 C 
ATOM     20  O   UNL     1       7.615   5.550  14.025  0.00  0.00    +0.000 OA
ENDBRANCH  15  16
ENDBRANCH   3  15
TORSDOF 3
ENDMDL
MODEL 6
REMARK VINA RESULT:      -6.8      1.013      1.117
REMARK  Name = 
REMARK  3 active torsions:
REMARK  status: ('A' for Active; 'I' for Inactive)
REMARK    1  A    between atoms: C_2  and  C_10
REMARK    2  A    between atoms: N_3  and  C_4
REMARK    3  A    between atoms: C_4  and  C_5
REMARK                            x       y       z     vdW  Elec       q    Type
REMARK                         _______ _______ _______ _____ _____    ______ ____
ROOT
ATOM      1  O   UNL     1       6.320   6.788  16.944  0.00  0.00    +0.000 OA
ATOM      2  C   UNL     1       5.423   5.987  17.129  0.00  0.00    +0.000 C 
ATOM      3  N   UNL     1       5.444   4.719  16.593  0.00  0.00    +0.000 N 
ATOM      4  H   UNL     1       4.599   4.171  16.541  0.00  0.00    +0.000 HD
ENDROOT
BRANCH   2   5
ATOM      5  C   UNL     1       4.234   6.297  17.941  0.00  0.00    +0.000 A 
ATOM      6  C   UNL     1       3.504   7.465  17.793  0.00  0.00    +0.000 A 
ATOM      7  S   UNL     1       2.180   7.560  18.840  0.00  0.00    +0.000 S 
ATOM      8  C   UNL     1       2.542   6.045  19.555  0.00  0.00    +0.000 A 
ATOM      9  C   UNL     1       3.682   5.471  19.012  0.00  0.00    +0.000 A 
ATOM     10  C   UNL     1       4.322   4.185  19.477  0.00  0.00    +0.000 C 
ATOM     11  C   UNL     1       3.425   2.998  19.821  0.00  0.00    +0.000 C 
ATOM     12  C   UNL     1       1.920   3.176  19.694  0.00  0.00    +0.000 C 
ATOM     13  C   UNL     1       1.340   4.092  20.761  0.00  0.00    +0.000 C 
ATOM     14  C   UNL     1       1.649   5.584  20.672  0.00  0.00    +0.000 C 
ENDBRANCH   2   5
BRANCH   3  15
ATOM     15  C   UNL     1       6.543   4.266  15.757  0.00  0.00    +0.000 C 
BRANCH  15  16
ATOM     16  C   UNL     1       6.325   4.716  14.312  0.00  0.00    +0.000 C 
ATOM     17  C   UNL     1       6.293   3.572  13.306  0.00  0.00    +0.000 C 
ATOM     18  C   UNL     1       6.899   4.200  12.077  0.00  0.00    +0.000 C 
ATOM     19  C   UNL     1       7.931   5.134  12.665  0.00  0.00    +0.000 C 
ATOM     20  O   UNL     1       7.408   5.590  13.918  0.00  0.00    +0.000 OA
ENDBRANCH  15  16
ENDBRANCH   3  15
TORSDOF 3
ENDMDL
MODEL 7
REMARK VINA RESULT:      -6.8      1.654      2.108
REMARK  Name = 
REMARK  3 active torsions:
REMARK  status: ('A' for Active; 'I' for Inactive)
REMARK    1  A    between atoms: C_2  and  C_10
REMARK    2  A    between atoms: N_3  and  C_4
REMARK    3  A    between atoms: C_4  and  C_5
REMARK                            x       y       z     vdW  Elec       q    Type
REMARK                         _______ _______ _______ _____ _____    ______ ____
ROOT
ATOM      1  O   UNL     1       6.382   4.908  19.308  0.00  0.00    +0.000 OA
ATOM      2  C   UNL     1       5.428   5.506  18.848  0.00  0.00    +0.000 C 
ATOM      3  N   UNL     1       5.541   6.366  17.779  0.00  0.00    +0.000 N 
ATOM      4  H   UNL     1       4.812   7.033  17.580  0.00  0.00    +0.000 HD
ENDROOT
BRANCH   2   5
ATOM      5  C   UNL     1       4.065   5.367  19.389  0.00  0.00    +0.000 A 
ATOM      6  C   UNL     1       3.314   6.447  19.827  0.00  0.00    +0.000 A 
ATOM      7  S   UNL     1       1.781   6.007  20.387  0.00  0.00    +0.000 S 
ATOM      8  C   UNL     1       2.065   4.344  20.085  0.00  0.00    +0.000 A 
ATOM      9  C   UNL     1       3.335   4.116  19.576  0.00  0.00    +0.000 A 
ATOM     10  C   UNL     1       3.933   2.759  19.288  0.00  0.00    +0.000 C 
ATOM     11  C   UNL     1       3.060   1.696  18.625  0.00  0.00    +0.000 C 
ATOM     12  C   UNL     1       1.617   2.052  18.301  0.00  0.00    +0.000 C 
ATOM     13  C   UNL     1       0.746   2.180  19.542  0.00  0.00    +0.000 C 
ATOM     14  C   UNL     1       0.969   3.384  20.454  0.00  0.00    +0.000 C 
ENDBRANCH   2   5
BRANCH   3  15
ATOM     15  C   UNL     1       6.822   6.621  17.142  0.00  0.00    +0.000 C 
BRANCH  15  16
ATOM     16  C   UNL     1       6.906   5.873  15.811  0.00  0.00    +0.000 C 
ATOM     17  C   UNL     1       5.570   5.747  15.088  0.00  0.00    +0.000 C 
ATOM     18  C   UNL     1       5.696   4.413  14.398  0.00  0.00    +0.000 C 
ATOM     19  C   UNL     1       6.503   3.609  15.391  0.00  0.00    +0.000 C 
ATOM     20  O   UNL     1       7.381   4.528  16.050  0.00  0.00    +0.000 OA
ENDBRANCH  15  16
ENDBRANCH   3  15
TORSDOF 3
ENDMDL
MODEL 8
REMARK VINA RESULT:      -6.7      1.257      1.613
REMARK  Name = 
REMARK  3 active torsions:
REMARK  status: ('A' for Active; 'I' for Inactive)
REMARK    1  A    between atoms: C_2  and  C_10
REMARK    2  A    between atoms: N_3  and  C_4
REMARK    3  A    between atoms: C_4  and  C_5
REMARK                            x       y       z     vdW  Elec       q    Type
REMARK                         _______ _______ _______ _____ _____    ______ ____
ROOT
ATOM      1  O   UNL     1       6.641   5.223  19.198  0.00  0.00    +0.000 OA
ATOM      2  C   UNL     1       5.657   5.415  18.508  0.00  0.00    +0.000 C 
ATOM      3  N   UNL     1       5.737   5.633  17.152  0.00  0.00    +0.000 N 
ATOM      4  H   UNL     1       4.960   6.037  16.652  0.00  0.00    +0.000 HD
ENDROOT
BRANCH   2   5
ATOM      5  C   UNL     1       4.291   5.433  19.060  0.00  0.00    +0.000 A 
ATOM      6  C   UNL     1       3.620   6.604  19.373  0.00  0.00    +0.000 A 
ATOM      7  S   UNL     1       2.063   6.338  19.975  0.00  0.00    +0.000 S 
ATOM      8  C   UNL     1       2.229   4.636  19.861  0.00  0.00    +0.000 A 
ATOM      9  C   UNL     1       3.477   4.264  19.383  0.00  0.00    +0.000 A 
ATOM     10  C   UNL     1       3.977   2.846  19.249  0.00  0.00    +0.000 C 
ATOM     11  C   UNL     1       3.028   1.779  18.706  0.00  0.00    +0.000 C 
ATOM     12  C   UNL     1       1.611   2.197  18.342  0.00  0.00    +0.000 C 
ATOM     13  C   UNL     1       0.759   2.523  19.559  0.00  0.00    +0.000 C 
ATOM     14  C   UNL     1       1.071   3.803  20.332  0.00  0.00    +0.000 C 
ENDBRANCH   2   5
BRANCH   3  15
ATOM     15  C   UNL     1       7.015   5.659  16.461  0.00  0.00    +0.000 C 
BRANCH  15  16
ATOM     16  C   UNL     1       7.067   4.552  15.408  0.00  0.00    +0.000 C 
ATOM     17  C   UNL     1       7.375   5.050  14.001  0.00  0.00    +0.000 C 
ATOM     18  C   UNL     1       6.592   4.096  13.137  0.00  0.00    +0.000 C 
ATOM     19  C   UNL     1       5.365   3.829  13.978  0.00  0.00    +0.000 C 
ATOM     20  O   UNL     1       5.780   3.893  15.346  0.00  0.00    +0.000 OA
ENDBRANCH  15  16
ENDBRANCH   3  15
TORSDOF 3
ENDMDL
MODEL 9
REMARK VINA RESULT:      -6.6      0.894      1.063
REMARK  Name = 
REMARK  3 active torsions:
REMARK  status: ('A' for Active; 'I' for Inactive)
REMARK    1  A    between atoms: C_2  and  C_10
REMARK    2  A    between atoms: N_3  and  C_4
REMARK    3  A    between atoms: C_4  and  C_5
REMARK                            x       y       z     vdW  Elec       q    Type
REMARK                         _______ _______ _______ _____ _____    ______ ____
ROOT
ATOM      1  O   UNL     1       6.830   5.001  17.833  0.00  0.00    +0.000 OA
ATOM      2  C   UNL     1       5.743   5.127  17.300  0.00  0.00    +0.000 C 
ATOM      3  N   UNL     1       5.555   4.934  15.951  0.00  0.00    +0.000 N 
ATOM      4  H   UNL     1       4.728   5.285  15.494  0.00  0.00    +0.000 HD
ENDROOT
BRANCH   2   5
ATOM      5  C   UNL     1       4.529   5.499  18.048  0.00  0.00    +0.000 A 
ATOM      6  C   UNL     1       3.975   6.769  18.002  0.00  0.00    +0.000 A 
ATOM      7  S   UNL     1       2.577   6.919  18.941  0.00  0.00    +0.000 S 
ATOM      8  C   UNL     1       2.667   5.291  19.469  0.00  0.00    +0.000 A 
ATOM      9  C   UNL     1       3.772   4.633  18.947  0.00  0.00    +0.000 A 
ATOM     10  C   UNL     1       4.191   3.222  19.284  0.00  0.00    +0.000 C 
ATOM     11  C   UNL     1       3.118   2.140  19.388  0.00  0.00    +0.000 C 
ATOM     12  C   UNL     1       1.668   2.543  19.164  0.00  0.00    +0.000 C 
ATOM     13  C   UNL     1       1.109   3.392  20.296  0.00  0.00    +0.000 C 
ATOM     14  C   UNL     1       1.616   4.826  20.436  0.00  0.00    +0.000 C 
ENDBRANCH   2   5
BRANCH   3  15
ATOM     15  C   UNL     1       6.658   4.576  15.074  0.00  0.00    +0.000 C 
BRANCH  15  16
ATOM     16  C   UNL     1       6.199   4.597  13.616  0.00  0.00    +0.000 C 
ATOM     17  C   UNL     1       5.106   3.584  13.297  0.00  0.00    +0.000 C 
ATOM     18  C   UNL     1       5.419   3.204  11.872  0.00  0.00    +0.000 C 
ATOM     19  C   UNL     1       6.929   3.255  11.846  0.00  0.00    +0.000 C 
ATOM     20  O   UNL     1       7.322   4.285  12.759  0.00  0.00    +0.000 OA
ENDBRANCH  15  16
ENDBRANCH   3  15
TORSDOF 3
ENDMDL
