MODEL 1
REMARK VINA RESULT:      -8.7      0.000      0.000
REMARK  Name = 
REMARK  5 active torsions:
REMARK  status: ('A' for Active; 'I' for Inactive)
REMARK    1  A    between atoms: C_1  and  N_2
REMARK    2  A    between atoms: C_7  and  C_8
REMARK    3  A    between atoms: C_8  and  C_9
REMARK    4  A    between atoms: C_15  and  C_16
REMARK    5  A    between atoms: C_20  and  O_21
REMARK                            x       y       z     vdW  Elec       q    Type
REMARK                         _______ _______ _______ _____ _____    ______ ____
ROOT
ATOM      1  C   UNL     1       1.777   8.579  19.323  0.00  0.00    +0.000 A 
ATOM      2  N   UNL     1       1.305   8.807  20.558  0.00  0.00    +0.000 NA
ATOM      3  N   UNL     1       1.447   7.631  21.187  0.00  0.00    +0.000 N 
ATOM      4  C   UNL     1       1.964   6.635  20.400  0.00  0.00    +0.000 A 
ATOM      5  C   UNL     1       2.201   5.286  20.670  0.00  0.00    +0.000 A 
ATOM      6  C   UNL     1       2.740   4.524  19.631  0.00  0.00    +0.000 A 
ATOM      7  C   UNL     1       3.048   5.100  18.390  0.00  0.00    +0.000 A 
ATOM      8  C   UNL     1       2.764   6.450  18.131  0.00  0.00    +0.000 A 
ATOM      9  C   UNL     1       2.218   7.230  19.169  0.00  0.00    +0.000 A 
ATOM     10  H   UNL     1       1.153   7.562  22.153  0.00  0.00    +0.000 HD
ENDROOT
BRANCH   7  11
ATOM     11  C   UNL     1       3.668   4.271  17.318  0.00  0.00    +0.000 C 
ATOM     12  O   UNL     1       2.982   3.532  16.625  0.00  0.00    +0.000 OA
ATOM     13  N   UNL     1       5.032   4.395  17.208  0.00  0.00    +0.000 N 
ATOM     14  C   UNL     1       5.902   3.769  16.212  0.00  0.00    +0.000 C 
ATOM     15  C   UNL     1       6.982   4.730  16.773  0.00  0.00    +0.000 C 
ATOM     16  C   UNL     1       5.794   5.651  17.133  0.00  0.00    +0.000 C 
BRANCH  15  17
ATOM     17  O   UNL     1       7.754   4.241  17.902  0.00  0.00    +0.000 OA
ATOM     18  H   UNL     1       8.365   4.975  18.105  0.00  0.00    +0.000 HD
ENDBRANCH  15  17
ENDBRANCH   7  11
BRANCH   1  19
ATOM     19  C   UNL     1       1.680   9.639  18.276  0.00  0.00    +0.000 C 
BRANCH  19  26
ATOM     20  C   UNL     1      -4.332  12.502  19.459  0.00  0.00    +0.000 C 
ATOM     21  N   UNL     1      -3.620  11.514  18.682  0.00  0.00    +0.000 N 
ATOM     22  N   UNL     1      -4.308  10.677  17.880  0.00  0.00    +0.000 NA
ATOM     23  C   UNL     1      -3.359   9.881  17.380  0.00  0.00    +0.000 A 
ATOM     24  C   UNL     1      -2.069  10.201  17.855  0.00  0.00    +0.000 A 
ATOM     25  C   UNL     1      -0.771   9.685  17.684  0.00  0.00    +0.000 A 
ATOM     26  C   UNL     1       0.314  10.286  18.352  0.00  0.00    +0.000 A 
ATOM     27  C   UNL     1       0.079  11.405  19.169  0.00  0.00    +0.000 A 
ATOM     28  C   UNL     1      -1.207  11.929  19.356  0.00  0.00    +0.000 A 
ATOM     29  C   UNL     1      -2.264  11.294  18.692  0.00  0.00    +0.000 A 
ENDBRANCH  19  26
ENDBRANCH   1  19
TORSDOF 4
ENDMDL
MODEL 2
REMARK VINA RESULT:      -8.6      0.670      1.361
REMARK  Name = 
REMARK  5 active torsions:
REMARK  status: ('A' for Active; 'I' for Inactive)
REMARK    1  A    between atoms: C_1  and  N_2
REMARK    2  A    between atoms: C_7  and  C_8
REMARK    3  A    between atoms: C_8  and  C_9
REMARK    4  A    between atoms: C_15  and  C_16
REMARK    5  A    between atoms: C_20  and  O_21
REMARK                            x       y       z     vdW  Elec       q    Type
REMARK                         _______ _______ _______ _____ _____    ______ ____
ROOT
ATOM      1  C   UNL     1       1.647   8.596  19.402  0.00  0.00    +0.000 A 
ATOM      2  N   UNL     1       1.215   8.792  20.657  0.00  0.00    +0.000 NA
ATOM      3  N   UNL     1       1.464   7.630  21.276  0.00  0.00    +0.000 N 
ATOM      4  C   UNL     1       2.013   6.670  20.466  0.00  0.00    +0.000 A 
ATOM      5  C   UNL     1       2.354   5.342  20.723  0.00  0.00    +0.000 A 
ATOM      6  C   UNL     1       2.898   4.617  19.660  0.00  0.00    +0.000 A 
ATOM      7  C   UNL     1       3.110   5.211  18.408  0.00  0.00    +0.000 A 
ATOM      8  C   UNL     1       2.724   6.538  18.164  0.00  0.00    +0.000 A 
ATOM      9  C   UNL     1       2.172   7.280  19.226  0.00  0.00    +0.000 A 
ATOM     10  H   UNL     1       1.218   7.542  22.254  0.00  0.00    +0.000 HD
ENDROOT
BRANCH   7  11
ATOM     11  C   UNL     1       3.739   4.425  17.308  0.00  0.00    +0.000 C 
ATOM     12  O   UNL     1       3.053   3.744  16.558  0.00  0.00    +0.000 OA
ATOM     13  N   UNL     1       5.107   4.517  17.241  0.00  0.00    +0.000 N 
ATOM     14  C   UNL     1       5.989   3.923  16.235  0.00  0.00    +0.000 C 
ATOM     15  C   UNL     1       7.077   4.821  16.877  0.00  0.00    +0.000 C 
ATOM     16  C   UNL     1       5.904   5.754  17.256  0.00  0.00    +0.000 C 
BRANCH  15  17
ATOM     17  O   UNL     1       7.805   4.251  17.997  0.00  0.00    +0.000 OA
ATOM     18  H   UNL     1       8.463   3.666  17.577  0.00  0.00    +0.000 HD
ENDBRANCH  15  17
ENDBRANCH   7  11
BRANCH   1  19
ATOM     19  C   UNL     1       1.432   9.645  18.362  0.00  0.00    +0.000 C 
BRANCH  19  26
ATOM     20  C   UNL     1      -4.993  11.564  17.475  0.00  0.00    +0.000 C 
ATOM     21  N   UNL     1      -3.832  11.661  18.328  0.00  0.00    +0.000 N 
ATOM     22  N   UNL     1      -3.843  12.515  19.372  0.00  0.00    +0.000 NA
ATOM     23  C   UNL     1      -2.617  12.390  19.886  0.00  0.00    +0.000 A 
ATOM     24  C   UNL     1      -1.819  11.464  19.179  0.00  0.00    +0.000 A 
ATOM     25  C   UNL     1      -0.496  10.995  19.269  0.00  0.00    +0.000 A 
ATOM     26  C   UNL     1      -0.030  10.036  18.348  0.00  0.00    +0.000 A 
ATOM     27  C   UNL     1      -0.907   9.553  17.361  0.00  0.00    +0.000 A 
ATOM     28  C   UNL     1      -2.226  10.013  17.253  0.00  0.00    +0.000 A 
ATOM     29  C   UNL     1      -2.648  10.981  18.174  0.00  0.00    +0.000 A 
ENDBRANCH  19  26
ENDBRANCH   1  19
TORSDOF 4
ENDMDL
MODEL 3
REMARK VINA RESULT:      -8.2      2.848      3.723
REMARK  Name = 
REMARK  5 active torsions:
REMARK  status: ('A' for Active; 'I' for Inactive)
REMARK    1  A    between atoms: C_1  and  N_2
REMARK    2  A    between atoms: C_7  and  C_8
REMARK    3  A    between atoms: C_8  and  C_9
REMARK    4  A    between atoms: C_15  and  C_16
REMARK    5  A    between atoms: C_20  and  O_21
REMARK                            x       y       z     vdW  Elec       q    Type
REMARK                         _______ _______ _______ _____ _____    ______ ____
ROOT
ATOM      1  C   UNL     1       2.405   7.126  18.749  0.00  0.00    +0.000 A 
ATOM      2  N   UNL     1       1.959   6.686  19.936  0.00  0.00    +0.000 NA
ATOM      3  N   UNL     1       2.903   5.826  20.344  0.00  0.00    +0.000 N 
ATOM      4  C   UNL     1       3.932   5.662  19.454  0.00  0.00    +0.000 A 
ATOM      5  C   UNL     1       5.050   4.827  19.492  0.00  0.00    +0.000 A 
ATOM      6  C   UNL     1       5.923   4.897  18.404  0.00  0.00    +0.000 A 
ATOM      7  C   UNL     1       5.692   5.785  17.343  0.00  0.00    +0.000 A 
ATOM      8  C   UNL     1       4.541   6.587  17.310  0.00  0.00    +0.000 A 
ATOM      9  C   UNL     1       3.650   6.524  18.400  0.00  0.00    +0.000 A 
ATOM     10  H   UNL     1       2.780   5.361  21.235  0.00  0.00    +0.000 HD
ENDROOT
BRANCH   7  11
ATOM     11  C   UNL     1       6.668   5.872  16.220  0.00  0.00    +0.000 C 
ATOM     12  O   UNL     1       7.622   6.636  16.280  0.00  0.00    +0.000 OA
ATOM     13  N   UNL     1       6.387   5.063  15.146  0.00  0.00    +0.000 N 
ATOM     14  C   UNL     1       7.193   4.880  13.938  0.00  0.00    +0.000 C 
ATOM     15  C   UNL     1       6.225   3.702  13.654  0.00  0.00    +0.000 C 
ATOM     16  C   UNL     1       6.066   3.629  15.190  0.00  0.00    +0.000 C 
BRANCH  15  17
ATOM     17  O   UNL     1       5.016   4.027  12.918  0.00  0.00    +0.000 OA
ATOM     18  H   UNL     1       4.354   4.195  13.615  0.00  0.00    +0.000 HD
ENDBRANCH  15  17
ENDBRANCH   7  11
BRANCH   1  19
ATOM     19  C   UNL     1       1.556   8.030  17.917  0.00  0.00    +0.000 C 
BRANCH  19  26
ATOM     20  C   UNL     1       0.438  14.034  20.824  0.00  0.00    +0.000 C 
ATOM     21  N   UNL     1       1.198  13.323  19.822  0.00  0.00    +0.000 N 
ATOM     22  N   UNL     1       1.993  14.011  18.977  0.00  0.00    +0.000 NA
ATOM     23  C   UNL     1       2.478  13.063  18.171  0.00  0.00    +0.000 A 
ATOM     24  C   UNL     1       2.000  11.774  18.491  0.00  0.00    +0.000 A 
ATOM     25  C   UNL     1       2.159  10.478  17.967  0.00  0.00    +0.000 A 
ATOM     26  C   UNL     1       1.494   9.393  18.572  0.00  0.00    +0.000 A 
ATOM     27  C   UNL     1       0.693   9.627  19.703  0.00  0.00    +0.000 A 
ATOM     28  C   UNL     1       0.519  10.911  20.235  0.00  0.00    +0.000 A 
ATOM     29  C   UNL     1       1.179  11.968  19.596  0.00  0.00    +0.000 A 
ENDBRANCH  19  26
ENDBRANCH   1  19
TORSDOF 4
ENDMDL
MODEL 4
REMARK VINA RESULT:      -8.2      1.886      2.961
REMARK  Name = 
REMARK  5 active torsions:
REMARK  status: ('A' for Active; 'I' for Inactive)
REMARK    1  A    between atoms: C_1  and  N_2
REMARK    2  A    between atoms: C_7  and  C_8
REMARK    3  A    between atoms: C_8  and  C_9
REMARK    4  A    between atoms: C_15  and  C_16
REMARK    5  A    between atoms: C_20  and  O_21
REMARK                            x       y       z     vdW  Elec       q    Type
REMARK                         _______ _______ _______ _____ _____    ______ ____
ROOT
ATOM      1  C   UNL     1       2.349   7.995  18.538  0.00  0.00    +0.000 A 
ATOM      2  N   UNL     1       1.689   7.624  19.646  0.00  0.00    +0.000 NA
ATOM      3  N   UNL     1       2.389   6.579  20.111  0.00  0.00    +0.000 N 
ATOM      4  C   UNL     1       3.462   6.232  19.332  0.00  0.00    +0.000 A 
ATOM      5  C   UNL     1       4.378   5.187  19.449  0.00  0.00    +0.000 A 
ATOM      6  C   UNL     1       5.368   5.107  18.467  0.00  0.00    +0.000 A 
ATOM      7  C   UNL     1       5.444   6.050  17.432  0.00  0.00    +0.000 A 
ATOM      8  C   UNL     1       4.487   7.070  17.314  0.00  0.00    +0.000 A 
ATOM      9  C   UNL     1       3.482   7.161  18.297  0.00  0.00    +0.000 A 
ATOM     10  H   UNL     1       2.073   6.126  20.959  0.00  0.00    +0.000 HD
ENDROOT
BRANCH   7  11
ATOM     11  C   UNL     1       6.542   5.966  16.427  0.00  0.00    +0.000 C 
ATOM     12  O   UNL     1       7.555   6.639  16.553  0.00  0.00    +0.000 OA
ATOM     13  N   UNL     1       6.300   5.115  15.377  0.00  0.00    +0.000 N 
ATOM     14  C   UNL     1       7.211   4.772  14.284  0.00  0.00    +0.000 C 
ATOM     15  C   UNL     1       6.166   3.674  13.959  0.00  0.00    +0.000 C 
ATOM     16  C   UNL     1       5.832   3.723  15.467  0.00  0.00    +0.000 C 
BRANCH  15  17
ATOM     17  O   UNL     1       5.084   4.059  13.070  0.00  0.00    +0.000 OA
ATOM     18  H   UNL     1       4.340   3.489  13.343  0.00  0.00    +0.000 HD
ENDBRANCH  15  17
ENDBRANCH   7  11
BRANCH   1  19
ATOM     19  C   UNL     1       1.799   9.074  17.664  0.00  0.00    +0.000 C 
BRANCH  19  26
ATOM     20  C   UNL     1      -3.292  12.693  20.258  0.00  0.00    +0.000 C 
ATOM     21  N   UNL     1      -1.915  12.291  20.426  0.00  0.00    +0.000 N 
ATOM     22  N   UNL     1      -1.174  12.847  21.406  0.00  0.00    +0.000 NA
ATOM     23  C   UNL     1       0.032  12.301  21.229  0.00  0.00    +0.000 A 
ATOM     24  C   UNL     1       0.070  11.401  20.143  0.00  0.00    +0.000 A 
ATOM     25  C   UNL     1       1.053  10.608  19.522  0.00  0.00    +0.000 A 
ATOM     26  C   UNL     1       0.709   9.810  18.413  0.00  0.00    +0.000 A 
ATOM     27  C   UNL     1      -0.620   9.811  17.956  0.00  0.00    +0.000 A 
ATOM     28  C   UNL     1      -1.610  10.598  18.558  0.00  0.00    +0.000 A 
ATOM     29  C   UNL     1      -1.228  11.393  19.645  0.00  0.00    +0.000 A 
ENDBRANCH  19  26
ENDBRANCH   1  19
TORSDOF 4
ENDMDL
MODEL 5
REMARK VINA RESULT:      -8.2      2.812      3.643
REMARK  Name = 
REMARK  5 active torsions:
REMARK  status: ('A' for Active; 'I' for Inactive)
REMARK    1  A    between atoms: C_1  and  N_2
REMARK    2  A    between atoms: C_7  and  C_8
REMARK    3  A    between atoms: C_8  and  C_9
REMARK    4  A    between atoms: C_15  and  C_16
REMARK    5  A    between atoms: C_20  and  O_21
REMARK                            x       y       z     vdW  Elec       q    Type
REMARK                         _______ _______ _______ _____ _____    ______ ____
ROOT
ATOM      1  C   UNL     1       2.404   7.390  18.630  0.00  0.00    +0.000 A 
ATOM      2  N   UNL     1       1.920   7.005  19.821  0.00  0.00    +0.000 NA
ATOM      3  N   UNL     1       2.827   6.128  20.275  0.00  0.00    +0.000 N 
ATOM      4  C   UNL     1       3.868   5.901  19.413  0.00  0.00    +0.000 A 
ATOM      5  C   UNL     1       4.956   5.032  19.501  0.00  0.00    +0.000 A 
ATOM      6  C   UNL     1       5.852   5.037  18.430  0.00  0.00    +0.000 A 
ATOM      7  C   UNL     1       5.671   5.896  17.336  0.00  0.00    +0.000 A 
ATOM      8  C   UNL     1       4.549   6.734  17.253  0.00  0.00    +0.000 A 
ATOM      9  C   UNL     1       3.635   6.737  18.326  0.00  0.00    +0.000 A 
ATOM     10  H   UNL     1       2.671   5.697  21.178  0.00  0.00    +0.000 HD
ENDROOT
BRANCH   7  11
ATOM     11  C   UNL     1       6.672   5.914  16.231  0.00  0.00    +0.000 C 
ATOM     12  O   UNL     1       7.653   6.643  16.290  0.00  0.00    +0.000 OA
ATOM     13  N   UNL     1       6.380   5.087  15.174  0.00  0.00    +0.000 N 
ATOM     14  C   UNL     1       7.202   4.839  13.988  0.00  0.00    +0.000 C 
ATOM     15  C   UNL     1       6.195   3.691  13.717  0.00  0.00    +0.000 C 
ATOM     16  C   UNL     1       6.004   3.667  15.251  0.00  0.00    +0.000 C 
BRANCH  15  17
ATOM     17  O   UNL     1       5.013   4.040  12.948  0.00  0.00    +0.000 OA
ATOM     18  H   UNL     1       5.371   4.357  12.098  0.00  0.00    +0.000 HD
ENDBRANCH  15  17
ENDBRANCH   7  11
BRANCH   1  19
ATOM     19  C   UNL     1       1.602   8.293  17.751  0.00  0.00    +0.000 C 
BRANCH  19  26
ATOM     20  C   UNL     1       1.696  14.313  20.834  0.00  0.00    +0.000 C 
ATOM     21  N   UNL     1       1.099  12.998  20.815  0.00  0.00    +0.000 N 
ATOM     22  N   UNL     1       0.261  12.634  21.807  0.00  0.00    +0.000 NA
ATOM     23  C   UNL     1      -0.041  11.368  21.506  0.00  0.00    +0.000 A 
ATOM     24  C   UNL     1       0.598  10.917  20.331  0.00  0.00    +0.000 A 
ATOM     25  C   UNL     1       0.653   9.710  19.609  0.00  0.00    +0.000 A 
ATOM     26  C   UNL     1       1.433   9.631  18.439  0.00  0.00    +0.000 A 
ATOM     27  C   UNL     1       2.131  10.770  18.004  0.00  0.00    +0.000 A 
ATOM     28  C   UNL     1       2.093  11.978  18.712  0.00  0.00    +0.000 A 
ATOM     29  C   UNL     1       1.323  12.015  19.881  0.00  0.00    +0.000 A 
ENDBRANCH  19  26
ENDBRANCH   1  19
TORSDOF 4
ENDMDL
MODEL 6
REMARK VINA RESULT:      -8.1      3.363      8.768
REMARK  Name = 
REMARK  5 active torsions:
REMARK  status: ('A' for Active; 'I' for Inactive)
REMARK    1  A    between atoms: C_1  and  N_2
REMARK    2  A    between atoms: C_7  and  C_8
REMARK    3  A    between atoms: C_8  and  C_9
REMARK    4  A    between atoms: C_15  and  C_16
REMARK    5  A    between atoms: C_20  and  O_21
REMARK                            x       y       z     vdW  Elec       q    Type
REMARK                         _______ _______ _______ _____ _____    ______ ____
ROOT
ATOM      1  C   UNL     1       5.021   4.339  19.091  0.00  0.00    +0.000 A 
ATOM      2  N   UNL     1       4.939   3.076  19.538  0.00  0.00    +0.000 NA
ATOM      3  N   UNL     1       3.765   3.031  20.183  0.00  0.00    +0.000 N 
ATOM      4  C   UNL     1       3.091   4.224  20.203  0.00  0.00    +0.000 A 
ATOM      5  C   UNL     1       1.889   4.586  20.812  0.00  0.00    +0.000 A 
ATOM      6  C   UNL     1       1.473   5.908  20.643  0.00  0.00    +0.000 A 
ATOM      7  C   UNL     1       2.220   6.813  19.876  0.00  0.00    +0.000 A 
ATOM      8  C   UNL     1       3.445   6.436  19.305  0.00  0.00    +0.000 A 
ATOM      9  C   UNL     1       3.879   5.105  19.469  0.00  0.00    +0.000 A 
ATOM     10  H   UNL     1       3.483   2.158  20.611  0.00  0.00    +0.000 HD
ENDROOT
BRANCH   7  11
ATOM     11  C   UNL     1       1.724   8.204  19.673  0.00  0.00    +0.000 C 
ATOM     12  O   UNL     1       1.899   8.779  18.607  0.00  0.00    +0.000 OA
ATOM     13  N   UNL     1       1.102   8.761  20.764  0.00  0.00    +0.000 N 
ATOM     14  C   UNL     1       0.455  10.071  20.843  0.00  0.00    +0.000 C 
ATOM     15  C   UNL     1      -0.082   9.555  22.203  0.00  0.00    +0.000 C 
ATOM     16  C   UNL     1       0.037   8.148  21.572  0.00  0.00    +0.000 C 
BRANCH  15  17
ATOM     17  O   UNL     1       0.763   9.790  23.360  0.00  0.00    +0.000 OA
ATOM     18  H   UNL     1       0.373   9.228  24.056  0.00  0.00    +0.000 HD
ENDBRANCH  15  17
ENDBRANCH   7  11
BRANCH   1  19
ATOM     19  C   UNL     1       6.262   4.814  18.409  0.00  0.00    +0.000 C 
BRANCH  19  26
ATOM     20  C   UNL     1       5.549   3.078  11.911  0.00  0.00    +0.000 C 
ATOM     21  N   UNL     1       6.284   3.896  12.848  0.00  0.00    +0.000 N 
ATOM     22  N   UNL     1       7.358   4.592  12.423  0.00  0.00    +0.000 NA
ATOM     23  C   UNL     1       7.814   5.167  13.539  0.00  0.00    +0.000 A 
ATOM     24  C   UNL     1       7.041   4.844  14.676  0.00  0.00    +0.000 A 
ATOM     25  C   UNL     1       7.094   5.138  16.051  0.00  0.00    +0.000 A 
ATOM     26  C   UNL     1       6.116   4.611  16.916  0.00  0.00    +0.000 A 
ATOM     27  C   UNL     1       5.092   3.809  16.384  0.00  0.00    +0.000 A 
ATOM     28  C   UNL     1       5.027   3.500  15.019  0.00  0.00    +0.000 A 
ATOM     29  C   UNL     1       6.027   4.026  14.191  0.00  0.00    +0.000 A 
ENDBRANCH  19  26
ENDBRANCH   1  19
TORSDOF 4
ENDMDL
MODEL 7
REMARK VINA RESULT:      -8.0      2.168      3.002
REMARK  Name = 
REMARK  5 active torsions:
REMARK  status: ('A' for Active; 'I' for Inactive)
REMARK    1  A    between atoms: C_1  and  N_2
REMARK    2  A    between atoms: C_7  and  C_8
REMARK    3  A    between atoms: C_8  and  C_9
REMARK    4  A    between atoms: C_15  and  C_16
REMARK    5  A    between atoms: C_20  and  O_21
REMARK                            x       y       z     vdW  Elec       q    Type
REMARK                         _______ _______ _______ _____ _____    ______ ____
ROOT
ATOM      1  C   UNL     1       1.297   9.468  18.948  0.00  0.00    +0.000 A 
ATOM      2  N   UNL     1       1.825  10.267  18.008  0.00  0.00    +0.000 NA
ATOM      3  N   UNL     1       2.768   9.512  17.427  0.00  0.00    +0.000 N 
ATOM      4  C   UNL     1       2.899   8.261  17.971  0.00  0.00    +0.000 A 
ATOM      5  C   UNL     1       3.790   7.227  17.684  0.00  0.00    +0.000 A 
ATOM      6  C   UNL     1       3.661   6.059  18.440  0.00  0.00    +0.000 A 
ATOM      7  C   UNL     1       2.665   5.934  19.419  0.00  0.00    +0.000 A 
ATOM      8  C   UNL     1       1.805   7.002  19.715  0.00  0.00    +0.000 A 
ATOM      9  C   UNL     1       1.926   8.187  18.963  0.00  0.00    +0.000 A 
ATOM     10  H   UNL     1       3.310   9.914  16.671  0.00  0.00    +0.000 HD
ENDROOT
BRANCH   7  11
ATOM     11  C   UNL     1       2.521   4.656  20.174  0.00  0.00    +0.000 C 
ATOM     12  O   UNL     1       2.278   4.665  21.373  0.00  0.00    +0.000 OA
ATOM     13  N   UNL     1       2.706   3.519  19.427  0.00  0.00    +0.000 N 
ATOM     14  C   UNL     1       2.559   2.132  19.870  0.00  0.00    +0.000 C 
ATOM     15  C   UNL     1       2.667   1.797  18.360  0.00  0.00    +0.000 C 
ATOM     16  C   UNL     1       2.077   3.208  18.134  0.00  0.00    +0.000 C 
BRANCH  15  17
ATOM     17  O   UNL     1       4.008   1.594  17.840  0.00  0.00    +0.000 OA
ATOM     18  H   UNL     1       3.890   1.602  16.872  0.00  0.00    +0.000 HD
ENDBRANCH  15  17
ENDBRANCH   7  11
BRANCH   1  19
ATOM     19  C   UNL     1       0.275  10.000  19.897  0.00  0.00    +0.000 C 
BRANCH  19  26
ATOM     20  C   UNL     1      -5.446  12.233  17.064  0.00  0.00    +0.000 C 
ATOM     21  N   UNL     1      -4.255  11.441  16.868  0.00  0.00    +0.000 N 
ATOM     22  N   UNL     1      -4.119  10.712  15.741  0.00  0.00    +0.000 NA
ATOM     23  C   UNL     1      -2.959  10.075  15.925  0.00  0.00    +0.000 A 
ATOM     24  C   UNL     1      -2.351  10.390  17.159  0.00  0.00    +0.000 A 
ATOM     25  C   UNL     1      -1.186   9.994  17.842  0.00  0.00    +0.000 A 
ATOM     26  C   UNL     1      -0.901  10.538  19.109  0.00  0.00    +0.000 A 
ATOM     27  C   UNL     1      -1.782  11.482  19.663  0.00  0.00    +0.000 A 
ATOM     28  C   UNL     1      -2.949  11.884  19.000  0.00  0.00    +0.000 A 
ATOM     29  C   UNL     1      -3.211  11.308  17.751  0.00  0.00    +0.000 A 
ENDBRANCH  19  26
ENDBRANCH   1  19
TORSDOF 4
ENDMDL
MODEL 8
REMARK VINA RESULT:      -8.0      3.460      8.741
REMARK  Name = 
REMARK  5 active torsions:
REMARK  status: ('A' for Active; 'I' for Inactive)
REMARK    1  A    between atoms: C_1  and  N_2
REMARK    2  A    between atoms: C_7  and  C_8
REMARK    3  A    between atoms: C_8  and  C_9
REMARK    4  A    between atoms: C_15  and  C_16
REMARK    5  A    between atoms: C_20  and  O_21
REMARK                            x       y       z     vdW  Elec       q    Type
REMARK                         _______ _______ _______ _____ _____    ______ ____
ROOT
ATOM      1  C   UNL     1       0.492   9.892  20.917  0.00  0.00    +0.000 A 
ATOM      2  N   UNL     1       1.364  10.656  21.594  0.00  0.00    +0.000 NA
ATOM      3  N   UNL     1       1.232  11.871  21.045  0.00  0.00    +0.000 N 
ATOM      4  C   UNL     1       0.331  11.925  20.014  0.00  0.00    +0.000 A 
ATOM      5  C   UNL     1      -0.034  12.976  19.171  0.00  0.00    +0.000 A 
ATOM      6  C   UNL     1      -0.996  12.695  18.198  0.00  0.00    +0.000 A 
ATOM      7  C   UNL     1      -1.580  11.424  18.099  0.00  0.00    +0.000 A 
ATOM      8  C   UNL     1      -1.169  10.374  18.933  0.00  0.00    +0.000 A 
ATOM      9  C   UNL     1      -0.197  10.642  19.917  0.00  0.00    +0.000 A 
ATOM     10  H   UNL     1       1.802  12.627  21.404  0.00  0.00    +0.000 HD
ENDROOT
BRANCH   7  11
ATOM     11  C   UNL     1      -2.640  11.170  17.082  0.00  0.00    +0.000 C 
ATOM     12  O   UNL     1      -2.385  10.558  16.054  0.00  0.00    +0.000 OA
ATOM     13  N   UNL     1      -3.872  11.693  17.390  0.00  0.00    +0.000 N 
ATOM     14  C   UNL     1      -5.114  11.546  16.628  0.00  0.00    +0.000 C 
ATOM     15  C   UNL     1      -5.780  12.162  17.886  0.00  0.00    +0.000 C 
ATOM     16  C   UNL     1      -4.595  11.542  18.662  0.00  0.00    +0.000 C 
BRANCH  15  17
ATOM     17  O   UNL     1      -5.859  13.612  17.927  0.00  0.00    +0.000 OA
ATOM     18  H   UNL     1      -6.785  13.804  17.686  0.00  0.00    +0.000 HD
ENDBRANCH  15  17
ENDBRANCH   7  11
BRANCH   1  19
ATOM     19  C   UNL     1       0.429   8.422  21.169  0.00  0.00    +0.000 C 
BRANCH  19  26
ATOM     20  C   UNL     1       4.588   5.491  16.713  0.00  0.00    +0.000 C 
ATOM     21  N   UNL     1       3.961   5.371  18.008  0.00  0.00    +0.000 N 
ATOM     22  N   UNL     1       4.088   4.223  18.705  0.00  0.00    +0.000 NA
ATOM     23  C   UNL     1       3.348   4.441  19.795  0.00  0.00    +0.000 A 
ATOM     24  C   UNL     1       2.747   5.719  19.803  0.00  0.00    +0.000 A 
ATOM     25  C   UNL     1       1.879   6.423  20.658  0.00  0.00    +0.000 A 
ATOM     26  C   UNL     1       1.473   7.729  20.320  0.00  0.00    +0.000 A 
ATOM     27  C   UNL     1       1.958   8.311  19.137  0.00  0.00    +0.000 A 
ATOM     28  C   UNL     1       2.818   7.623  18.270  0.00  0.00    +0.000 A 
ATOM     29  C   UNL     1       3.185   6.320  18.628  0.00  0.00    +0.000 A 
ENDBRANCH  19  26
ENDBRANCH   1  19
TORSDOF 4
ENDMDL
MODEL 9
REMARK VINA RESULT:      -7.9      1.787      2.625
REMARK  Name = 
REMARK  5 active torsions:
REMARK  status: ('A' for Active; 'I' for Inactive)
REMARK    1  A    between atoms: C_1  and  N_2
REMARK    2  A    between atoms: C_7  and  C_8
REMARK    3  A    between atoms: C_8  and  C_9
REMARK    4  A    between atoms: C_15  and  C_16
REMARK    5  A    between atoms: C_20  and  O_21
REMARK                            x       y       z     vdW  Elec       q    Type
REMARK                         _______ _______ _______ _____ _____    ______ ____
ROOT
ATOM      1  C   UNL     1       2.218   7.890  18.489  0.00  0.00    +0.000 A 
ATOM      2  N   UNL     1       1.587   7.551  19.624  0.00  0.00    +0.000 NA
ATOM      3  N   UNL     1       2.354   6.586  20.150  0.00  0.00    +0.000 N 
ATOM      4  C   UNL     1       3.445   6.259  19.388  0.00  0.00    +0.000 A 
ATOM      5  C   UNL     1       4.427   5.284  19.567  0.00  0.00    +0.000 A 
ATOM      6  C   UNL     1       5.418   5.204  18.586  0.00  0.00    +0.000 A 
ATOM      7  C   UNL     1       5.430   6.080  17.492  0.00  0.00    +0.000 A 
ATOM      8  C   UNL     1       4.409   7.027  17.314  0.00  0.00    +0.000 A 
ATOM      9  C   UNL     1       3.402   7.117  18.295  0.00  0.00    +0.000 A 
ATOM     10  H   UNL     1       2.070   6.169  21.028  0.00  0.00    +0.000 HD
ENDROOT
BRANCH   7  11
ATOM     11  C   UNL     1       6.528   6.002  16.487  0.00  0.00    +0.000 C 
ATOM     12  O   UNL     1       7.537   6.683  16.611  0.00  0.00    +0.000 OA
ATOM     13  N   UNL     1       6.293   5.146  15.439  0.00  0.00    +0.000 N 
ATOM     14  C   UNL     1       7.207   4.808  14.347  0.00  0.00    +0.000 C 
ATOM     15  C   UNL     1       6.169   3.701  14.024  0.00  0.00    +0.000 C 
ATOM     16  C   UNL     1       5.835   3.752  15.533  0.00  0.00    +0.000 C 
BRANCH  15  17
ATOM     17  O   UNL     1       5.085   4.076  13.134  0.00  0.00    +0.000 OA
ATOM     18  H   UNL     1       5.075   3.368  12.463  0.00  0.00    +0.000 HD
ENDBRANCH  15  17
ENDBRANCH   7  11
BRANCH   1  19
ATOM     19  C   UNL     1       1.598   8.872  17.550  0.00  0.00    +0.000 C 
BRANCH  19  26
ATOM     20  C   UNL     1      -1.718  12.960  21.798  0.00  0.00    +0.000 C 
ATOM     21  N   UNL     1      -1.775  12.262  20.534  0.00  0.00    +0.000 N 
ATOM     22  N   UNL     1      -2.926  12.250  19.832  0.00  0.00    +0.000 NA
ATOM     23  C   UNL     1      -2.637  11.480  18.780  0.00  0.00    +0.000 A 
ATOM     24  C   UNL     1      -1.311  10.999  18.802  0.00  0.00    +0.000 A 
ATOM     25  C   UNL     1      -0.527  10.158  17.990  0.00  0.00    +0.000 A 
ATOM     26  C   UNL     1       0.809   9.889  18.348  0.00  0.00    +0.000 A 
ATOM     27  C   UNL     1       1.340  10.482  19.506  0.00  0.00    +0.000 A 
ATOM     28  C   UNL     1       0.573  11.317  20.329  0.00  0.00    +0.000 A 
ATOM     29  C   UNL     1      -0.756  11.546  19.953  0.00  0.00    +0.000 A 
ENDBRANCH  19  26
ENDBRANCH   1  19
TORSDOF 4
ENDMDL
