MODEL 1
REMARK VINA RESULT:      -8.8      0.000      0.000
REMARK  Name = 
REMARK  6 active torsions:
REMARK  status: ('A' for Active; 'I' for Inactive)
REMARK    1  A    between atoms: C_1  and  O_2
REMARK    2  A    between atoms: O_2  and  C_3
REMARK    3  A    between atoms: C_3  and  C_4
REMARK    4  A    between atoms: C_4  and  N_5
REMARK    5  A    between atoms: C_9  and  C_10
REMARK    6  A    between atoms: N_17  and  C_18
REMARK                            x       y       z     vdW  Elec       q    Type
REMARK                         _______ _______ _______ _____ _____    ______ ____
ROOT
ATOM      1  N   UNL     1       3.060   4.134  19.680  0.00  0.00    +0.000 N 
ATOM      2  C   UNL     1       2.279   4.489  20.806  0.00  0.00    +0.000 A 
ATOM      3  O   UNL     1       1.914   3.641  21.618  0.00  0.00    +0.000 OA
ATOM      4  N   UNL     1       1.877   5.802  20.993  0.00  0.00    +0.000 NA
ATOM      5  C   UNL     1       2.157   6.744  20.148  0.00  0.00    +0.000 A 
ATOM      6  C   UNL     1       2.936   6.411  19.002  0.00  0.00    +0.000 A 
ATOM      7  O   UNL     1       3.384   7.281  18.066  0.00  0.00    +0.000 OA
ATOM      8  C   UNL     1       4.115   6.539  17.185  0.00  0.00    +0.000 A 
ATOM      9  C   UNL     1       4.789   7.050  16.073  0.00  0.00    +0.000 A 
ATOM     10  C   UNL     1       5.503   6.135  15.291  0.00  0.00    +0.000 A 
ATOM     11  C   UNL     1       5.497   4.777  15.600  0.00  0.00    +0.000 A 
ATOM     12 CL   UNL     1       6.399   3.676  14.628  0.00  0.00    +0.000 Cl
ATOM     13  C   UNL     1       4.783   4.283  16.697  0.00  0.00    +0.000 A 
ATOM     14  C   UNL     1       4.106   5.188  17.542  0.00  0.00    +0.000 A 
ATOM     15  C   UNL     1       3.376   5.134  18.761  0.00  0.00    +0.000 A 
ENDROOT
BRANCH   5  16
ATOM     16  C   UNL     1       1.650   8.106  20.432  0.00  0.00    +0.000 A 
ATOM     17  C   UNL     1       1.458   8.469  21.762  0.00  0.00    +0.000 A 
ATOM     18  C   UNL     1       0.864   9.690  22.062  0.00  0.00    +0.000 A 
ATOM     19  C   UNL     1       0.467  10.547  21.036  0.00  0.00    +0.000 A 
ATOM     20  N   UNL     1      -0.098  11.767  21.402  0.00  0.00    +0.000 N 
ATOM     21  C   UNL     1      -0.046  12.848  20.412  0.00  0.00    +0.000 C 
ATOM     22  C   UNL     1      -0.314  14.181  21.159  0.00  0.00    +0.000 C 
ATOM     23  N   UNL     1      -1.624  14.198  21.856  0.00  0.00    +0.000 NA
ATOM     24  C   UNL     1      -1.778  15.436  22.621  0.00  0.00    +0.000 C 
ATOM     25  C   UNL     1      -1.731  13.022  22.752  0.00  0.00    +0.000 C 
ATOM     26  C   UNL     1      -1.425  11.680  22.042  0.00  0.00    +0.000 C 
ATOM     27  N   UNL     1       0.687  10.226  19.740  0.00  0.00    +0.000 NA
ATOM     28  C   UNL     1       1.256   9.017  19.464  0.00  0.00    +0.000 A 
ENDBRANCH   5  16
BRANCH   1  29
ATOM     29  C   UNL     1       3.443   2.729  19.530  0.00  0.00    +0.000 C 
BRANCH  29  30
ATOM     30  C   UNL     1       2.774   1.979  18.370  0.00  0.00    +0.000 C 
BRANCH  30  32
ATOM     31  C   UNL     1       0.475   2.126  18.784  0.00  0.00    +0.000 C 
ATOM     32  O   UNL     1       1.548   2.580  17.960  0.00  0.00    +0.000 OA
ENDBRANCH  30  32
ENDBRANCH  29  30
ENDBRANCH   1  29
TORSDOF 4
ENDMDL
MODEL 2
REMARK VINA RESULT:      -8.7      0.881      1.374
REMARK  Name = 
REMARK  6 active torsions:
REMARK  status: ('A' for Active; 'I' for Inactive)
REMARK    1  A    between atoms: C_1  and  O_2
REMARK    2  A    between atoms: O_2  and  C_3
REMARK    3  A    between atoms: C_3  and  C_4
REMARK    4  A    between atoms: C_4  and  N_5
REMARK    5  A    between atoms: C_9  and  C_10
REMARK    6  A    between atoms: N_17  and  C_18
REMARK                            x       y       z     vdW  Elec       q    Type
REMARK                         _______ _______ _______ _____ _____    ______ ____
ROOT
ATOM      1  N   UNL     1       2.727   4.034  19.564  0.00  0.00    +0.000 N 
ATOM      2  C   UNL     1       1.922   4.387  20.674  0.00  0.00    +0.000 A 
ATOM      3  O   UNL     1       1.458   3.526  21.420  0.00  0.00    +0.000 OA
ATOM      4  N   UNL     1       1.608   5.714  20.917  0.00  0.00    +0.000 NA
ATOM      5  C   UNL     1       1.995   6.676  20.140  0.00  0.00    +0.000 A 
ATOM      6  C   UNL     1       2.801   6.347  19.011  0.00  0.00    +0.000 A 
ATOM      7  O   UNL     1       3.355   7.229  18.146  0.00  0.00    +0.000 OA
ATOM      8  C   UNL     1       4.070   6.481  17.256  0.00  0.00    +0.000 A 
ATOM      9  C   UNL     1       4.831   6.998  16.205  0.00  0.00    +0.000 A 
ATOM     10  C   UNL     1       5.513   6.075  15.404  0.00  0.00    +0.000 A 
ATOM     11  C   UNL     1       5.393   4.706  15.635  0.00  0.00    +0.000 A 
ATOM     12 CL   UNL     1       6.258   3.594  14.643  0.00  0.00    +0.000 Cl
ATOM     13  C   UNL     1       4.595   4.210  16.671  0.00  0.00    +0.000 A 
ATOM     14  C   UNL     1       3.947   5.118  17.536  0.00  0.00    +0.000 A 
ATOM     15  C   UNL     1       3.158   5.054  18.717  0.00  0.00    +0.000 A 
ENDROOT
BRANCH   5  16
ATOM     16  C   UNL     1       1.576   8.056  20.477  0.00  0.00    +0.000 A 
ATOM     17  C   UNL     1       1.471   8.397  21.823  0.00  0.00    +0.000 A 
ATOM     18  C   UNL     1       0.959   9.639  22.178  0.00  0.00    +0.000 A 
ATOM     19  C   UNL     1       0.556  10.539  21.193  0.00  0.00    +0.000 A 
ATOM     20  N   UNL     1       0.075  11.778  21.612  0.00  0.00    +0.000 N 
ATOM     21  C   UNL     1       0.134  12.878  20.643  0.00  0.00    +0.000 C 
ATOM     22  C   UNL     1      -0.024  14.205  21.431  0.00  0.00    +0.000 C 
ATOM     23  N   UNL     1      -1.295  14.274  22.195  0.00  0.00    +0.000 NA
ATOM     24  C   UNL     1      -1.344  15.500  22.992  0.00  0.00    +0.000 C 
ATOM     25  C   UNL     1      -1.419  13.084  23.071  0.00  0.00    +0.000 C 
ATOM     26  C   UNL     1      -1.221  11.745  22.318  0.00  0.00    +0.000 C 
ATOM     27  N   UNL     1       0.693  10.239  19.880  0.00  0.00    +0.000 NA
ATOM     28  C   UNL     1       1.183   9.008  19.550  0.00  0.00    +0.000 A 
ENDBRANCH   5  16
BRANCH   1  29
ATOM     29  C   UNL     1       3.013   2.614  19.352  0.00  0.00    +0.000 C 
BRANCH  29  30
ATOM     30  C   UNL     1       4.402   2.142  19.801  0.00  0.00    +0.000 C 
BRANCH  30  32
ATOM     31  C   UNL     1       5.471   0.896  21.468  0.00  0.00    +0.000 C 
ATOM     32  O   UNL     1       4.466   1.872  21.199  0.00  0.00    +0.000 OA
ENDBRANCH  30  32
ENDBRANCH  29  30
ENDBRANCH   1  29
TORSDOF 4
ENDMDL
MODEL 3
REMARK VINA RESULT:      -8.7      0.756      1.344
REMARK  Name = 
REMARK  6 active torsions:
REMARK  status: ('A' for Active; 'I' for Inactive)
REMARK    1  A    between atoms: C_1  and  O_2
REMARK    2  A    between atoms: O_2  and  C_3
REMARK    3  A    between atoms: C_3  and  C_4
REMARK    4  A    between atoms: C_4  and  N_5
REMARK    5  A    between atoms: C_9  and  C_10
REMARK    6  A    between atoms: N_17  and  C_18
REMARK                            x       y       z     vdW  Elec       q    Type
REMARK                         _______ _______ _______ _____ _____    ______ ____
ROOT
ATOM      1  N   UNL     1       3.187   4.191  19.795  0.00  0.00    +0.000 N 
ATOM      2  C   UNL     1       2.393   4.543  20.913  0.00  0.00    +0.000 A 
ATOM      3  O   UNL     1       2.082   3.707  21.760  0.00  0.00    +0.000 OA
ATOM      4  N   UNL     1       1.917   5.837  21.054  0.00  0.00    +0.000 NA
ATOM      5  C   UNL     1       2.137   6.761  20.172  0.00  0.00    +0.000 A 
ATOM      6  C   UNL     1       2.928   6.430  19.032  0.00  0.00    +0.000 A 
ATOM      7  O   UNL     1       3.319   7.287  18.061  0.00  0.00    +0.000 OA
ATOM      8  C   UNL     1       4.087   6.555  17.202  0.00  0.00    +0.000 A 
ATOM      9  C   UNL     1       4.723   7.061  16.067  0.00  0.00    +0.000 A 
ATOM     10  C   UNL     1       5.485   6.160  15.315  0.00  0.00    +0.000 A 
ATOM     11  C   UNL     1       5.559   4.816  15.675  0.00  0.00    +0.000 A 
ATOM     12 CL   UNL     1       6.518   3.732  14.738  0.00  0.00    +0.000 Cl
ATOM     13  C   UNL     1       4.882   4.324  16.796  0.00  0.00    +0.000 A 
ATOM     14  C   UNL     1       4.158   5.220  17.610  0.00  0.00    +0.000 A 
ATOM     15  C   UNL     1       3.439   5.171  18.837  0.00  0.00    +0.000 A 
ENDROOT
BRANCH   5  16
ATOM     16  C   UNL     1       1.553   8.101  20.407  0.00  0.00    +0.000 A 
ATOM     17  C   UNL     1       1.336   8.923  19.305  0.00  0.00    +0.000 A 
ATOM     18  C   UNL     1       0.910  10.232  19.498  0.00  0.00    +0.000 A 
ATOM     19  C   UNL     1       0.699  10.717  20.788  0.00  0.00    +0.000 A 
ATOM     20  N   UNL     1       0.247  12.029  20.915  0.00  0.00    +0.000 N 
ATOM     21  C   UNL     1      -0.447  12.378  22.159  0.00  0.00    +0.000 C 
ATOM     22  C   UNL     1      -1.223  13.698  21.909  0.00  0.00    +0.000 C 
ATOM     23  N   UNL     1      -0.340  14.816  21.495  0.00  0.00    +0.000 NA
ATOM     24  C   UNL     1      -1.135  16.003  21.179  0.00  0.00    +0.000 C 
ATOM     25  C   UNL     1       0.467  14.409  20.319  0.00  0.00    +0.000 C 
ATOM     26  C   UNL     1       1.218  13.070  20.525  0.00  0.00    +0.000 C 
ATOM     27  N   UNL     1       0.864   9.917  21.867  0.00  0.00    +0.000 NA
ATOM     28  C   UNL     1       1.298   8.639  21.659  0.00  0.00    +0.000 A 
ENDBRANCH   5  16
BRANCH   1  29
ATOM     29  C   UNL     1       3.649   2.805  19.695  0.00  0.00    +0.000 C 
BRANCH  29  30
ATOM     30  C   UNL     1       2.850   1.906  18.743  0.00  0.00    +0.000 C 
BRANCH  30  32
ATOM     31  C   UNL     1       0.541   2.286  18.780  0.00  0.00    +0.000 C 
ATOM     32  O   UNL     1       1.767   2.591  18.118  0.00  0.00    +0.000 OA
ENDBRANCH  30  32
ENDBRANCH  29  30
ENDBRANCH   1  29
TORSDOF 4
ENDMDL
MODEL 4
REMARK VINA RESULT:      -8.3      1.207      1.971
REMARK  Name = 
REMARK  6 active torsions:
REMARK  status: ('A' for Active; 'I' for Inactive)
REMARK    1  A    between atoms: C_1  and  O_2
REMARK    2  A    between atoms: O_2  and  C_3
REMARK    3  A    between atoms: C_3  and  C_4
REMARK    4  A    between atoms: C_4  and  N_5
REMARK    5  A    between atoms: C_9  and  C_10
REMARK    6  A    between atoms: N_17  and  C_18
REMARK                            x       y       z     vdW  Elec       q    Type
REMARK                         _______ _______ _______ _____ _____    ______ ____
ROOT
ATOM      1  N   UNL     1       2.858   4.093  19.674  0.00  0.00    +0.000 N 
ATOM      2  C   UNL     1       2.042   4.459  20.772  0.00  0.00    +0.000 A 
ATOM      3  O   UNL     1       1.636   3.616  21.570  0.00  0.00    +0.000 OA
ATOM      4  N   UNL     1       1.653   5.778  20.946  0.00  0.00    +0.000 NA
ATOM      5  C   UNL     1       1.976   6.716  20.112  0.00  0.00    +0.000 A 
ATOM      6  C   UNL     1       2.791   6.373  18.994  0.00  0.00    +0.000 A 
ATOM      7  O   UNL     1       3.284   7.236  18.076  0.00  0.00    +0.000 OA
ATOM      8  C   UNL     1       4.035   6.484  17.220  0.00  0.00    +0.000 A 
ATOM      9  C   UNL     1       4.756   6.986  16.134  0.00  0.00    +0.000 A 
ATOM     10  C   UNL     1       5.485   6.061  15.378  0.00  0.00    +0.000 A 
ATOM     11  C   UNL     1       5.448   4.703  15.684  0.00  0.00    +0.000 A 
ATOM     12 CL   UNL     1       6.369   3.590  14.745  0.00  0.00    +0.000 Cl
ATOM     13  C   UNL     1       4.689   4.219  16.755  0.00  0.00    +0.000 A 
ATOM     14  C   UNL     1       3.995   5.133  17.576  0.00  0.00    +0.000 A 
ATOM     15  C   UNL     1       3.221   5.089  18.768  0.00  0.00    +0.000 A 
ENDROOT
BRANCH   5  16
ATOM     16  C   UNL     1       1.478   8.085  20.379  0.00  0.00    +0.000 A 
ATOM     17  C   UNL     1       1.322   8.946  19.297  0.00  0.00    +0.000 A 
ATOM     18  C   UNL     1       0.980  10.275  19.521  0.00  0.00    +0.000 A 
ATOM     19  C   UNL     1       0.791  10.740  20.821  0.00  0.00    +0.000 A 
ATOM     20  N   UNL     1       0.424  12.076  20.978  0.00  0.00    +0.000 N 
ATOM     21  C   UNL     1      -0.256  12.437  22.227  0.00  0.00    +0.000 C 
ATOM     22  C   UNL     1      -0.943  13.810  22.006  0.00  0.00    +0.000 C 
ATOM     23  N   UNL     1       0.013  14.879  21.625  0.00  0.00    +0.000 NA
ATOM     24  C   UNL     1      -0.702  16.122  21.336  0.00  0.00    +0.000 C 
ATOM     25  C   UNL     1       0.800  14.451  20.444  0.00  0.00    +0.000 C 
ATOM     26  C   UNL     1       1.462  13.061  20.620  0.00  0.00    +0.000 C 
ATOM     27  N   UNL     1       0.896   9.904  21.880  0.00  0.00    +0.000 NA
ATOM     28  C   UNL     1       1.248   8.607  21.642  0.00  0.00    +0.000 A 
ENDBRANCH   5  16
BRANCH   1  29
ATOM     29  C   UNL     1       3.226   2.683  19.536  0.00  0.00    +0.000 C 
BRANCH  29  30
ATOM     30  C   UNL     1       4.651   2.323  19.975  0.00  0.00    +0.000 C 
BRANCH  30  32
ATOM     31  C   UNL     1       5.582   0.742  21.429  0.00  0.00    +0.000 C 
ATOM     32  O   UNL     1       4.713   1.869  21.325  0.00  0.00    +0.000 OA
ENDBRANCH  30  32
ENDBRANCH  29  30
ENDBRANCH   1  29
TORSDOF 4
ENDMDL
MODEL 5
REMARK VINA RESULT:      -8.1      2.372      4.226
REMARK  Name = 
REMARK  6 active torsions:
REMARK  status: ('A' for Active; 'I' for Inactive)
REMARK    1  A    between atoms: C_1  and  O_2
REMARK    2  A    between atoms: O_2  and  C_3
REMARK    3  A    between atoms: C_3  and  C_4
REMARK    4  A    between atoms: C_4  and  N_5
REMARK    5  A    between atoms: C_9  and  C_10
REMARK    6  A    between atoms: N_17  and  C_18
REMARK                            x       y       z     vdW  Elec       q    Type
REMARK                         _______ _______ _______ _____ _____    ______ ____
ROOT
ATOM      1  N   UNL     1       4.832   5.473  17.216  0.00  0.00    +0.000 N 
ATOM      2  C   UNL     1       4.595   6.721  16.591  0.00  0.00    +0.000 A 
ATOM      3  O   UNL     1       5.234   7.065  15.598  0.00  0.00    +0.000 OA
ATOM      4  N   UNL     1       3.659   7.599  17.114  0.00  0.00    +0.000 NA
ATOM      5  C   UNL     1       2.995   7.347  18.197  0.00  0.00    +0.000 A 
ATOM      6  C   UNL     1       3.221   6.100  18.851  0.00  0.00    +0.000 A 
ATOM      7  O   UNL     1       2.560   5.643  19.940  0.00  0.00    +0.000 OA
ATOM      8  C   UNL     1       3.068   4.402  20.193  0.00  0.00    +0.000 A 
ATOM      9  C   UNL     1       2.642   3.556  21.219  0.00  0.00    +0.000 A 
ATOM     10  C   UNL     1       3.271   2.309  21.313  0.00  0.00    +0.000 A 
ATOM     11  C   UNL     1       4.300   1.963  20.440  0.00  0.00    +0.000 A 
ATOM     12 CL   UNL     1       5.045   0.414  20.569  0.00  0.00    +0.000 Cl
ATOM     13  C   UNL     1       4.735   2.842  19.443  0.00  0.00    +0.000 A 
ATOM     14  C   UNL     1       4.077   4.080  19.282  0.00  0.00    +0.000 A 
ATOM     15  C   UNL     1       4.124   5.180  18.381  0.00  0.00    +0.000 A 
ENDROOT
BRANCH   5  16
ATOM     16  C   UNL     1       2.042   8.371  18.685  0.00  0.00    +0.000 A 
ATOM     17  C   UNL     1       1.570   9.311  17.773  0.00  0.00    +0.000 A 
ATOM     18  C   UNL     1       0.777  10.362  18.220  0.00  0.00    +0.000 A 
ATOM     19  C   UNL     1       0.454  10.470  19.571  0.00  0.00    +0.000 A 
ATOM     20  N   UNL     1      -0.366  11.531  19.952  0.00  0.00    +0.000 N 
ATOM     21  C   UNL     1      -1.110  11.380  21.207  0.00  0.00    +0.000 C 
ATOM     22  C   UNL     1      -2.249  12.434  21.207  0.00  0.00    +0.000 C 
ATOM     23  N   UNL     1      -1.747  13.825  21.083  0.00  0.00    +0.000 NA
ATOM     24  C   UNL     1      -2.865  14.764  20.989  0.00  0.00    +0.000 C 
ATOM     25  C   UNL     1      -0.877  13.940  19.887  0.00  0.00    +0.000 C 
ATOM     26  C   UNL     1       0.243  12.871  19.840  0.00  0.00    +0.000 C 
ATOM     27  N   UNL     1       0.869   9.540  20.462  0.00  0.00    +0.000 NA
ATOM     28  C   UNL     1       1.660   8.524  20.008  0.00  0.00    +0.000 A 
ENDBRANCH   5  16
BRANCH   1  29
ATOM     29  C   UNL     1       5.842   4.594  16.625  0.00  0.00    +0.000 C 
BRANCH  29  30
ATOM     30  C   UNL     1       7.294   4.888  17.024  0.00  0.00    +0.000 C 
BRANCH  30  32
ATOM     31  C   UNL     1       7.752   5.784  19.136  0.00  0.00    +0.000 C 
ATOM     32  O   UNL     1       7.562   4.584  18.390  0.00  0.00    +0.000 OA
ENDBRANCH  30  32
ENDBRANCH  29  30
ENDBRANCH   1  29
TORSDOF 4
ENDMDL
MODEL 6
REMARK VINA RESULT:      -7.8      6.003      6.982
REMARK  Name = 
REMARK  6 active torsions:
REMARK  status: ('A' for Active; 'I' for Inactive)
REMARK    1  A    between atoms: C_1  and  O_2
REMARK    2  A    between atoms: O_2  and  C_3
REMARK    3  A    between atoms: C_3  and  C_4
REMARK    4  A    between atoms: C_4  and  N_5
REMARK    5  A    between atoms: C_9  and  C_10
REMARK    6  A    between atoms: N_17  and  C_18
REMARK                            x       y       z     vdW  Elec       q    Type
REMARK                         _______ _______ _______ _____ _____    ______ ____
ROOT
ATOM      1  N   UNL     1       5.109   4.111  17.175  0.00  0.00    +0.000 N 
ATOM      2  C   UNL     1       5.168   4.795  18.413  0.00  0.00    +0.000 A 
ATOM      3  O   UNL     1       4.492   4.429  19.373  0.00  0.00    +0.000 OA
ATOM      4  N   UNL     1       5.964   5.921  18.553  0.00  0.00    +0.000 NA
ATOM      5  C   UNL     1       6.651   6.416  17.572  0.00  0.00    +0.000 A 
ATOM      6  C   UNL     1       6.603   5.749  16.312  0.00  0.00    +0.000 A 
ATOM      7  O   UNL     1       7.316   6.081  15.211  0.00  0.00    +0.000 OA
ATOM      8  C   UNL     1       6.990   5.157  14.261  0.00  0.00    +0.000 A 
ATOM      9  C   UNL     1       7.526   5.109  12.973  0.00  0.00    +0.000 A 
ATOM     10  C   UNL     1       7.083   4.074  12.142  0.00  0.00    +0.000 A 
ATOM     11  C   UNL     1       6.120   3.169  12.583  0.00  0.00    +0.000 A 
ATOM     12 CL   UNL     1       5.605   1.895  11.542  0.00  0.00    +0.000 Cl
ATOM     13  C   UNL     1       5.569   3.260  13.865  0.00  0.00    +0.000 A 
ATOM     14  C   UNL     1       6.043   4.253  14.749  0.00  0.00    +0.000 A 
ATOM     15  C   UNL     1       5.844   4.625  16.107  0.00  0.00    +0.000 A 
ENDROOT
BRANCH   5  16
ATOM     16  C   UNL     1       7.443   7.641  17.826  0.00  0.00    +0.000 A 
ATOM     17  C   UNL     1       8.451   7.582  18.784  0.00  0.00    +0.000 A 
ATOM     18  C   UNL     1       9.129   8.742  19.139  0.00  0.00    +0.000 A 
ATOM     19  C   UNL     1       8.803   9.957  18.538  0.00  0.00    +0.000 A 
ATOM     20  N   UNL     1       9.537  11.079  18.918  0.00  0.00    +0.000 N 
ATOM     21  C   UNL     1       9.571  12.203  17.977  0.00  0.00    +0.000 C 
ATOM     22  C   UNL     1      10.755  13.118  18.382  0.00  0.00    +0.000 C 
ATOM     23  N   UNL     1      10.641  13.628  19.771  0.00  0.00    +0.000 NA
ATOM     24  C   UNL     1      11.830  14.402  20.130  0.00  0.00    +0.000 C 
ATOM     25  C   UNL     1      10.463  12.493  20.709  0.00  0.00    +0.000 C 
ATOM     26  C   UNL     1       9.314  11.537  20.303  0.00  0.00    +0.000 C 
ATOM     27  N   UNL     1       7.856  10.022  17.574  0.00  0.00    +0.000 NA
ATOM     28  C   UNL     1       7.189   8.875  17.249  0.00  0.00    +0.000 A 
ENDBRANCH   5  16
BRANCH   1  29
ATOM     29  C   UNL     1       4.239   2.936  17.084  0.00  0.00    +0.000 C 
BRANCH  29  30
ATOM     30  C   UNL     1       2.732   3.224  17.092  0.00  0.00    +0.000 C 
BRANCH  30  32
ATOM     31  C   UNL     1       1.710   2.275  18.971  0.00  0.00    +0.000 C 
ATOM     32  O   UNL     1       1.965   2.125  17.576  0.00  0.00    +0.000 OA
ENDBRANCH  30  32
ENDBRANCH  29  30
ENDBRANCH   1  29
TORSDOF 4
ENDMDL
MODEL 7
REMARK VINA RESULT:      -7.8      2.238      4.232
REMARK  Name = 
REMARK  6 active torsions:
REMARK  status: ('A' for Active; 'I' for Inactive)
REMARK    1  A    between atoms: C_1  and  O_2
REMARK    2  A    between atoms: O_2  and  C_3
REMARK    3  A    between atoms: C_3  and  C_4
REMARK    4  A    between atoms: C_4  and  N_5
REMARK    5  A    between atoms: C_9  and  C_10
REMARK    6  A    between atoms: N_17  and  C_18
REMARK                            x       y       z     vdW  Elec       q    Type
REMARK                         _______ _______ _______ _____ _____    ______ ____
ROOT
ATOM      1  N   UNL     1       4.531   5.729  17.190  0.00  0.00    +0.000 N 
ATOM      2  C   UNL     1       4.251   6.983  16.595  0.00  0.00    +0.000 A 
ATOM      3  O   UNL     1       4.844   7.351  15.583  0.00  0.00    +0.000 OA
ATOM      4  N   UNL     1       3.325   7.839  17.170  0.00  0.00    +0.000 NA
ATOM      5  C   UNL     1       2.709   7.560  18.275  0.00  0.00    +0.000 A 
ATOM      6  C   UNL     1       2.979   6.307  18.899  0.00  0.00    +0.000 A 
ATOM      7  O   UNL     1       2.369   5.823  20.007  0.00  0.00    +0.000 OA
ATOM      8  C   UNL     1       2.905   4.586  20.219  0.00  0.00    +0.000 A 
ATOM      9  C   UNL     1       2.533   3.718  21.248  0.00  0.00    +0.000 A 
ATOM     10  C   UNL     1       3.183   2.480  21.296  0.00  0.00    +0.000 A 
ATOM     11  C   UNL     1       4.180   2.162  20.377  0.00  0.00    +0.000 A 
ATOM     12 CL   UNL     1       4.951   0.622  20.450  0.00  0.00    +0.000 Cl
ATOM     13  C   UNL     1       4.562   3.063  19.377  0.00  0.00    +0.000 A 
ATOM     14  C   UNL     1       3.881   4.293  19.262  0.00  0.00    +0.000 A 
ATOM     15  C   UNL     1       3.875   5.408  18.378  0.00  0.00    +0.000 A 
ENDROOT
BRANCH   5  16
ATOM     16  C   UNL     1       1.763   8.562  18.817  0.00  0.00    +0.000 A 
ATOM     17  C   UNL     1       1.161   9.443  17.923  0.00  0.00    +0.000 A 
ATOM     18  C   UNL     1       0.367  10.477  18.407  0.00  0.00    +0.000 A 
ATOM     19  C   UNL     1       0.174  10.628  19.780  0.00  0.00    +0.000 A 
ATOM     20  N   UNL     1      -0.652  11.668  20.201  0.00  0.00    +0.000 N 
ATOM     21  C   UNL     1      -1.261  11.538  21.529  0.00  0.00    +0.000 C 
ATOM     22  C   UNL     1      -2.442  12.542  21.603  0.00  0.00    +0.000 C 
ATOM     23  N   UNL     1      -2.019  13.947  21.378  0.00  0.00    +0.000 NA
ATOM     24  C   UNL     1      -3.184  14.833  21.362  0.00  0.00    +0.000 C 
ATOM     25  C   UNL     1      -1.277  14.048  20.098  0.00  0.00    +0.000 C 
ATOM     26  C   UNL     1      -0.119  13.026  19.978  0.00  0.00    +0.000 C 
ATOM     27  N   UNL     1       0.718   9.754  20.658  0.00  0.00    +0.000 NA
ATOM     28  C   UNL     1       1.506   8.754  20.165  0.00  0.00    +0.000 A 
ENDBRANCH   5  16
BRANCH   1  29
ATOM     29  C   UNL     1       5.529   4.874  16.544  0.00  0.00    +0.000 C 
BRANCH  29  30
ATOM     30  C   UNL     1       6.992   5.282  16.759  0.00  0.00    +0.000 C 
BRANCH  30  32
ATOM     31  C   UNL     1       7.063   4.857  14.459  0.00  0.00    +0.000 C 
ATOM     32  O   UNL     1       7.669   5.566  15.538  0.00  0.00    +0.000 OA
ENDBRANCH  30  32
ENDBRANCH  29  30
ENDBRANCH   1  29
TORSDOF 4
ENDMDL
MODEL 8
REMARK VINA RESULT:      -7.8      2.181      4.219
REMARK  Name = 
REMARK  6 active torsions:
REMARK  status: ('A' for Active; 'I' for Inactive)
REMARK    1  A    between atoms: C_1  and  O_2
REMARK    2  A    between atoms: O_2  and  C_3
REMARK    3  A    between atoms: C_3  and  C_4
REMARK    4  A    between atoms: C_4  and  N_5
REMARK    5  A    between atoms: C_9  and  C_10
REMARK    6  A    between atoms: N_17  and  C_18
REMARK                            x       y       z     vdW  Elec       q    Type
REMARK                         _______ _______ _______ _____ _____    ______ ____
ROOT
ATOM      1  N   UNL     1       3.980   6.215  17.698  0.00  0.00    +0.000 N 
ATOM      2  C   UNL     1       3.629   7.525  17.290  0.00  0.00    +0.000 A 
ATOM      3  O   UNL     1       4.145   8.040  16.299  0.00  0.00    +0.000 OA
ATOM      4  N   UNL     1       2.721   8.268  18.026  0.00  0.00    +0.000 NA
ATOM      5  C   UNL     1       2.186   7.829  19.122  0.00  0.00    +0.000 A 
ATOM      6  C   UNL     1       2.528   6.516  19.559  0.00  0.00    +0.000 A 
ATOM      7  O   UNL     1       2.005   5.874  20.630  0.00  0.00    +0.000 OA
ATOM      8  C   UNL     1       2.586   4.639  20.647  0.00  0.00    +0.000 A 
ATOM      9  C   UNL     1       2.305   3.634  21.575  0.00  0.00    +0.000 A 
ATOM     10  C   UNL     1       2.988   2.422  21.421  0.00  0.00    +0.000 A 
ATOM     11  C   UNL     1       3.931   2.259  20.409  0.00  0.00    +0.000 A 
ATOM     12 CL   UNL     1       4.745   0.750  20.234  0.00  0.00    +0.000 Cl
ATOM     13  C   UNL     1       4.223   3.294  19.513  0.00  0.00    +0.000 A 
ATOM     14  C   UNL     1       3.504   4.505  19.602  0.00  0.00    +0.000 A 
ATOM     15  C   UNL     1       3.412   5.722  18.872  0.00  0.00    +0.000 A 
ENDROOT
BRANCH   5  16
ATOM     16  C   UNL     1       1.252   8.720  19.846  0.00  0.00    +0.000 A 
ATOM     17  C   UNL     1       0.502   9.626  19.101  0.00  0.00    +0.000 A 
ATOM     18  C   UNL     1      -0.289  10.564  19.755  0.00  0.00    +0.000 A 
ATOM     19  C   UNL     1      -0.334  10.594  21.148  0.00  0.00    +0.000 A 
ATOM     20  N   UNL     1      -1.165  11.541  21.743  0.00  0.00    +0.000 N 
ATOM     21  C   UNL     1      -1.611  11.268  23.114  0.00  0.00    +0.000 C 
ATOM     22  C   UNL     1      -2.831  12.181  23.401  0.00  0.00    +0.000 C 
ATOM     23  N   UNL     1      -2.518  13.625  23.251  0.00  0.00    +0.000 NA
ATOM     24  C   UNL     1      -3.726  14.430  23.437  0.00  0.00    +0.000 C 
ATOM     25  C   UNL     1      -1.934  13.875  21.912  0.00  0.00    +0.000 C 
ATOM     26  C   UNL     1      -0.740  12.945  21.580  0.00  0.00    +0.000 C 
ATOM     27  N   UNL     1       0.356   9.692  21.884  0.00  0.00    +0.000 NA
ATOM     28  C   UNL     1       1.139   8.789  21.226  0.00  0.00    +0.000 A 
ENDBRANCH   5  16
BRANCH   1  29
ATOM     29  C   UNL     1       4.955   5.485  16.887  0.00  0.00    +0.000 C 
BRANCH  29  30
ATOM     30  C   UNL     1       6.412   5.573  17.360  0.00  0.00    +0.000 C 
BRANCH  30  32
ATOM     31  C   UNL     1       7.573   7.597  17.537  0.00  0.00    +0.000 C 
ATOM     32  O   UNL     1       7.162   6.557  16.652  0.00  0.00    +0.000 OA
ENDBRANCH  30  32
ENDBRANCH  29  30
ENDBRANCH   1  29
TORSDOF 4
ENDMDL
MODEL 9
REMARK VINA RESULT:      -7.6      4.632      9.593
REMARK  Name = 
REMARK  6 active torsions:
REMARK  status: ('A' for Active; 'I' for Inactive)
REMARK    1  A    between atoms: C_1  and  O_2
REMARK    2  A    between atoms: O_2  and  C_3
REMARK    3  A    between atoms: C_3  and  C_4
REMARK    4  A    between atoms: C_4  and  N_5
REMARK    5  A    between atoms: C_9  and  C_10
REMARK    6  A    between atoms: N_17  and  C_18
REMARK                            x       y       z     vdW  Elec       q    Type
REMARK                         _______ _______ _______ _____ _____    ______ ____
ROOT
ATOM      1  N   UNL     1      -1.938  12.118  21.043  0.00  0.00    +0.000 N 
ATOM      2  C   UNL     1      -0.805  11.784  21.824  0.00  0.00    +0.000 A 
ATOM      3  O   UNL     1      -0.594  12.335  22.904  0.00  0.00    +0.000 OA
ATOM      4  N   UNL     1       0.112  10.854  21.364  0.00  0.00    +0.000 NA
ATOM      5  C   UNL     1       0.004  10.281  20.206  0.00  0.00    +0.000 A 
ATOM      6  C   UNL     1      -1.125  10.605  19.397  0.00  0.00    +0.000 A 
ATOM      7  O   UNL     1      -1.434  10.045  18.205  0.00  0.00    +0.000 OA
ATOM      8  C   UNL     1      -2.607  10.621  17.813  0.00  0.00    +0.000 A 
ATOM      9  C   UNL     1      -3.304  10.307  16.644  0.00  0.00    +0.000 A 
ATOM     10  C   UNL     1      -4.503  10.992  16.419  0.00  0.00    +0.000 A 
ATOM     11  C   UNL     1      -4.944  11.968  17.309  0.00  0.00    +0.000 A 
ATOM     12 CL   UNL     1      -6.433  12.784  17.014  0.00  0.00    +0.000 Cl
ATOM     13  C   UNL     1      -4.210  12.292  18.455  0.00  0.00    +0.000 A 
ATOM     14  C   UNL     1      -3.030  11.574  18.744  0.00  0.00    +0.000 A 
ATOM     15  C   UNL     1      -2.076  11.510  19.797  0.00  0.00    +0.000 A 
ENDROOT
BRANCH   5  16
ATOM     16  C   UNL     1       1.060   9.325  19.802  0.00  0.00    +0.000 A 
ATOM     17  C   UNL     1       1.639   9.483  18.546  0.00  0.00    +0.000 A 
ATOM     18  C   UNL     1       2.540   8.532  18.081  0.00  0.00    +0.000 A 
ATOM     19  C   UNL     1       2.864   7.429  18.869  0.00  0.00    +0.000 A 
ATOM     20  N   UNL     1       3.793   6.525  18.357  0.00  0.00    +0.000 N 
ATOM     21  C   UNL     1       4.506   5.684  19.325  0.00  0.00    +0.000 C 
ATOM     22  C   UNL     1       5.754   5.103  18.610  0.00  0.00    +0.000 C 
ATOM     23  N   UNL     1       5.409   4.304  17.406  0.00  0.00    +0.000 NA
ATOM     24  C   UNL     1       6.625   3.866  16.721  0.00  0.00    +0.000 C 
ATOM     25  C   UNL     1       4.566   5.113  16.493  0.00  0.00    +0.000 C 
ATOM     26  C   UNL     1       3.335   5.743  17.192  0.00  0.00    +0.000 C 
ATOM     27  N   UNL     1       2.342   7.284  20.109  0.00  0.00    +0.000 NA
ATOM     28  C   UNL     1       1.446   8.219  20.543  0.00  0.00    +0.000 A 
ENDBRANCH   5  16
BRANCH   1  29
ATOM     29  C   UNL     1      -2.865  13.118  21.577  0.00  0.00    +0.000 C 
BRANCH  29  30
ATOM     30  C   UNL     1      -4.177  12.568  22.150  0.00  0.00    +0.000 C 
BRANCH  30  32
ATOM     31  C   UNL     1      -3.714  13.334  24.313  0.00  0.00    +0.000 C 
ATOM     32  O   UNL     1      -4.067  12.200  23.523  0.00  0.00    +0.000 OA
ENDBRANCH  30  32
ENDBRANCH  29  30
ENDBRANCH   1  29
TORSDOF 4
ENDMDL
