MODEL 1
REMARK VINA RESULT:      -8.3      0.000      0.000
REMARK  Name = 
REMARK  6 active torsions:
REMARK  status: ('A' for Active; 'I' for Inactive)
REMARK    1  A    between atoms: C_1  and  N_2
REMARK    2  A    between atoms: C_6  and  C_7
REMARK    3  A    between atoms: C_15  and  C_16
REMARK    4  A    between atoms: C_16  and  O_17
REMARK    5  A    between atoms: O_17  and  C_18
REMARK    6  A    between atoms: C_18  and  C_19
REMARK                            x       y       z     vdW  Elec       q    Type
REMARK                         _______ _______ _______ _____ _____    ______ ____
ROOT
ATOM      1  C   UNL     1       4.296   5.204  17.501  0.00  0.00    +0.000 C 
ATOM      2  O   UNL     1       3.873   6.290  17.108  0.00  0.00    +0.000 OA
ATOM      3  N   UNL     1       3.396   4.210  17.913  0.00  0.00    +0.000 N 
ATOM      4  C   UNL     1       3.672   2.777  18.033  0.00  0.00    +0.000 C 
ATOM      5  C   UNL     1       3.214   2.275  19.393  0.00  0.00    +0.000 C 
ATOM      6  C   UNL     1       1.749   2.628  19.589  0.00  0.00    +0.000 C 
ATOM      7  F   UNL     1       1.348   2.221  20.820  0.00  0.00    +0.000 F 
ATOM      8  F   UNL     1       1.016   1.900  18.701  0.00  0.00    +0.000 F 
ATOM      9  C   UNL     1       1.430   4.104  19.397  0.00  0.00    +0.000 C 
ATOM     10  C   UNL     1       1.974   4.555  18.038  0.00  0.00    +0.000 C 
ENDROOT
BRANCH   1  16
ATOM     11  C   UNL     1       6.103   4.331  15.135  0.00  0.00    +0.000 C 
ATOM     12  N   UNL     1       6.501   4.539  16.508  0.00  0.00    +0.000 N 
ATOM     13  N   UNL     1       7.784   4.284  16.844  0.00  0.00    +0.000 NA
ATOM     14  C   UNL     1       7.868   4.677  18.111  0.00  0.00    +0.000 A 
ATOM     15  C   UNL     1       6.641   5.151  18.596  0.00  0.00    +0.000 A 
ATOM     16  C   UNL     1       5.723   4.951  17.576  0.00  0.00    +0.000 A 
ENDBRANCH   1  16
BRANCH   9  17
ATOM     17  C   UNL     1       2.004   4.950  20.536  0.00  0.00    +0.000 C 
BRANCH  17  18
ATOM     18  O   UNL     1       2.213   6.278  20.059  0.00  0.00    +0.000 OA
BRANCH  18  19
ATOM     19  C   UNL     1       1.524   7.241  20.854  0.00  0.00    +0.000 C 
BRANCH  19  20
ATOM     20  C   UNL     1       1.390   8.516  20.066  0.00  0.00    +0.000 A 
ATOM     21  C   UNL     1       1.855   8.595  18.746  0.00  0.00    +0.000 A 
ATOM     22  C   UNL     1       1.714   9.776  18.017  0.00  0.00    +0.000 A 
ATOM     23  C   UNL     1       1.107  10.889  18.596  0.00  0.00    +0.000 A 
ATOM     24  C   UNL     1       0.644  10.822  19.909  0.00  0.00    +0.000 A 
ATOM     25  C   UNL     1       0.786   9.643  20.642  0.00  0.00    +0.000 A 
ENDBRANCH  19  20
ENDBRANCH  18  19
ENDBRANCH  17  18
ENDBRANCH   9  17
TORSDOF 5
ENDMDL
MODEL 2
REMARK VINA RESULT:      -8.2      0.952      1.401
REMARK  Name = 
REMARK  6 active torsions:
REMARK  status: ('A' for Active; 'I' for Inactive)
REMARK    1  A    between atoms: C_1  and  N_2
REMARK    2  A    between atoms: C_6  and  C_7
REMARK    3  A    between atoms: C_15  and  C_16
REMARK    4  A    between atoms: C_16  and  O_17
REMARK    5  A    between atoms: O_17  and  C_18
REMARK    6  A    between atoms: C_18  and  C_19
REMARK                            x       y       z     vdW  Elec       q    Type
REMARK                         _______ _______ _______ _____ _____    ______ ____
ROOT
ATOM      1  C   UNL     1       4.281   5.177  17.729  0.00  0.00    +0.000 C 
ATOM      2  O   UNL     1       3.778   6.151  17.170  0.00  0.00    +0.000 OA
ATOM      3  N   UNL     1       3.458   4.200  18.307  0.00  0.00    +0.000 N 
ATOM      4  C   UNL     1       3.839   2.830  18.654  0.00  0.00    +0.000 C 
ATOM      5  C   UNL     1       3.420   2.523  20.084  0.00  0.00    +0.000 C 
ATOM      6  C   UNL     1       1.933   2.795  20.237  0.00  0.00    +0.000 C 
ATOM      7  F   UNL     1       1.563   2.565  21.522  0.00  0.00    +0.000 F 
ATOM      8  F   UNL     1       1.256   1.880  19.488  0.00  0.00    +0.000 F 
ATOM      9  C   UNL     1       1.504   4.192  19.813  0.00  0.00    +0.000 C 
ATOM     10  C   UNL     1       2.014   4.456  18.391  0.00  0.00    +0.000 C 
ENDROOT
BRANCH   1  16
ATOM     11  C   UNL     1       6.147   4.059  15.517  0.00  0.00    +0.000 C 
ATOM     12  N   UNL     1       6.529   4.520  16.831  0.00  0.00    +0.000 N 
ATOM     13  N   UNL     1       7.827   4.419  17.189  0.00  0.00    +0.000 NA
ATOM     14  C   UNL     1       7.882   5.022  18.373  0.00  0.00    +0.000 A 
ATOM     15  C   UNL     1       6.623   5.479  18.788  0.00  0.00    +0.000 A 
ATOM     16  C   UNL     1       5.722   5.046  17.826  0.00  0.00    +0.000 A 
ENDBRANCH   1  16
BRANCH   9  17
ATOM     17  C   UNL     1       2.014   5.252  20.792  0.00  0.00    +0.000 C 
BRANCH  17  18
ATOM     18  O   UNL     1       1.131   6.371  20.756  0.00  0.00    +0.000 OA
BRANCH  18  19
ATOM     19  C   UNL     1       1.825   7.586  20.482  0.00  0.00    +0.000 C 
BRANCH  19  20
ATOM     20  C   UNL     1       0.983   8.744  20.945  0.00  0.00    +0.000 A 
ATOM     21  C   UNL     1       0.474   9.672  20.026  0.00  0.00    +0.000 A 
ATOM     22  C   UNL     1      -0.319  10.735  20.461  0.00  0.00    +0.000 A 
ATOM     23  C   UNL     1      -0.612  10.882  21.816  0.00  0.00    +0.000 A 
ATOM     24  C   UNL     1      -0.108   9.966  22.739  0.00  0.00    +0.000 A 
ATOM     25  C   UNL     1       0.687   8.904  22.307  0.00  0.00    +0.000 A 
ENDBRANCH  19  20
ENDBRANCH  18  19
ENDBRANCH  17  18
ENDBRANCH   9  17
TORSDOF 5
ENDMDL
MODEL 3
REMARK VINA RESULT:      -7.9      0.633      1.537
REMARK  Name = 
REMARK  6 active torsions:
REMARK  status: ('A' for Active; 'I' for Inactive)
REMARK    1  A    between atoms: C_1  and  N_2
REMARK    2  A    between atoms: C_6  and  C_7
REMARK    3  A    between atoms: C_15  and  C_16
REMARK    4  A    between atoms: C_16  and  O_17
REMARK    5  A    between atoms: O_17  and  C_18
REMARK    6  A    between atoms: C_18  and  C_19
REMARK                            x       y       z     vdW  Elec       q    Type
REMARK                         _______ _______ _______ _____ _____    ______ ____
ROOT
ATOM      1  C   UNL     1       4.053   5.299  17.161  0.00  0.00    +0.000 C 
ATOM      2  O   UNL     1       3.667   6.448  16.950  0.00  0.00    +0.000 OA
ATOM      3  N   UNL     1       3.152   4.335  17.640  0.00  0.00    +0.000 N 
ATOM      4  C   UNL     1       3.313   2.882  17.579  0.00  0.00    +0.000 C 
ATOM      5  C   UNL     1       3.056   2.275  18.950  0.00  0.00    +0.000 C 
ATOM      6  C   UNL     1       1.685   2.713  19.440  0.00  0.00    +0.000 C 
ATOM      7  F   UNL     1       1.470   2.210  20.682  0.00  0.00    +0.000 F 
ATOM      8  F   UNL     1       0.745   2.137  18.639  0.00  0.00    +0.000 F 
ATOM      9  C   UNL     1       1.473   4.220  19.442  0.00  0.00    +0.000 C 
ATOM     10  C   UNL     1       1.810   4.769  18.051  0.00  0.00    +0.000 C 
ENDROOT
BRANCH   1  16
ATOM     11  C   UNL     1       6.262   5.274  19.338  0.00  0.00    +0.000 C 
ATOM     12  N   UNL     1       6.413   4.957  17.937  0.00  0.00    +0.000 N 
ATOM     13  N   UNL     1       7.649   4.663  17.481  0.00  0.00    +0.000 NA
ATOM     14  C   UNL     1       7.448   4.305  16.216  0.00  0.00    +0.000 A 
ATOM     15  C   UNL     1       6.097   4.399  15.853  0.00  0.00    +0.000 A 
ATOM     16  C   UNL     1       5.441   4.936  16.951  0.00  0.00    +0.000 A 
ENDBRANCH   1  16
BRANCH   9  17
ATOM     17  C   UNL     1       2.311   4.899  20.527  0.00  0.00    +0.000 C 
BRANCH  17  18
ATOM     18  O   UNL     1       2.484   6.271  20.182  0.00  0.00    +0.000 OA
BRANCH  18  19
ATOM     19  C   UNL     1       1.590   7.117  20.903  0.00  0.00    +0.000 C 
BRANCH  19  20
ATOM     20  C   UNL     1       1.396   8.393  20.130  0.00  0.00    +0.000 A 
ATOM     21  C   UNL     1       0.759   9.495  20.716  0.00  0.00    +0.000 A 
ATOM     22  C   UNL     1       0.595  10.681  19.998  0.00  0.00    +0.000 A 
ATOM     23  C   UNL     1       1.066  10.778  18.689  0.00  0.00    +0.000 A 
ATOM     24  C   UNL     1       1.698   9.686  18.096  0.00  0.00    +0.000 A 
ATOM     25  C   UNL     1       1.861   8.499  18.810  0.00  0.00    +0.000 A 
ENDBRANCH  19  20
ENDBRANCH  18  19
ENDBRANCH  17  18
ENDBRANCH   9  17
TORSDOF 5
ENDMDL
MODEL 4
REMARK VINA RESULT:      -7.7      0.820      1.311
REMARK  Name = 
REMARK  6 active torsions:
REMARK  status: ('A' for Active; 'I' for Inactive)
REMARK    1  A    between atoms: C_1  and  N_2
REMARK    2  A    between atoms: C_6  and  C_7
REMARK    3  A    between atoms: C_15  and  C_16
REMARK    4  A    between atoms: C_16  and  O_17
REMARK    5  A    between atoms: O_17  and  C_18
REMARK    6  A    between atoms: C_18  and  C_19
REMARK                            x       y       z     vdW  Elec       q    Type
REMARK                         _______ _______ _______ _____ _____    ______ ____
ROOT
ATOM      1  C   UNL     1       3.989   5.163  17.271  0.00  0.00    +0.000 C 
ATOM      2  O   UNL     1       3.574   6.298  17.040  0.00  0.00    +0.000 OA
ATOM      3  N   UNL     1       3.101   4.170  17.710  0.00  0.00    +0.000 N 
ATOM      4  C   UNL     1       3.315   2.723  17.661  0.00  0.00    +0.000 C 
ATOM      5  C   UNL     1       3.016   2.109  19.020  0.00  0.00    +0.000 C 
ATOM      6  C   UNL     1       1.609   2.499  19.444  0.00  0.00    +0.000 C 
ATOM      7  F   UNL     1       1.352   1.991  20.675  0.00  0.00    +0.000 F 
ATOM      8  F   UNL     1       0.729   1.889  18.601  0.00  0.00    +0.000 F 
ATOM      9  C   UNL     1       1.343   3.997  19.431  0.00  0.00    +0.000 C 
ATOM     10  C   UNL     1       1.727   4.557  18.057  0.00  0.00    +0.000 C 
ENDROOT
BRANCH   1  16
ATOM     11  C   UNL     1       6.085   5.187  19.558  0.00  0.00    +0.000 C 
ATOM     12  N   UNL     1       6.317   4.891  18.163  0.00  0.00    +0.000 N 
ATOM     13  N   UNL     1       7.584   4.644  17.767  0.00  0.00    +0.000 NA
ATOM     14  C   UNL     1       7.459   4.294  16.490  0.00  0.00    +0.000 A 
ATOM     15  C   UNL     1       6.126   4.348  16.060  0.00  0.00    +0.000 A 
ATOM     16  C   UNL     1       5.398   4.849  17.129  0.00  0.00    +0.000 A 
ENDBRANCH   1  16
BRANCH   9  17
ATOM     17  C   UNL     1       2.105   4.707  20.553  0.00  0.00    +0.000 C 
BRANCH  17  18
ATOM     18  O   UNL     1       1.542   6.003  20.741  0.00  0.00    +0.000 OA
BRANCH  18  19
ATOM     19  C   UNL     1       2.414   7.032  20.277  0.00  0.00    +0.000 C 
BRANCH  19  20
ATOM     20  C   UNL     1       1.589   8.221  19.864  0.00  0.00    +0.000 A 
ATOM     21  C   UNL     1       1.644   8.710  18.552  0.00  0.00    +0.000 A 
ATOM     22  C   UNL     1       0.865   9.804  18.172  0.00  0.00    +0.000 A 
ATOM     23  C   UNL     1       0.024  10.419  19.097  0.00  0.00    +0.000 A 
ATOM     24  C   UNL     1      -0.036   9.943  20.406  0.00  0.00    +0.000 A 
ATOM     25  C   UNL     1       0.743   8.851  20.789  0.00  0.00    +0.000 A 
ENDBRANCH  19  20
ENDBRANCH  18  19
ENDBRANCH  17  18
ENDBRANCH   9  17
TORSDOF 5
ENDMDL
MODEL 5
REMARK VINA RESULT:      -7.7      0.934      1.784
REMARK  Name = 
REMARK  6 active torsions:
REMARK  status: ('A' for Active; 'I' for Inactive)
REMARK    1  A    between atoms: C_1  and  N_2
REMARK    2  A    between atoms: C_6  and  C_7
REMARK    3  A    between atoms: C_15  and  C_16
REMARK    4  A    between atoms: C_16  and  O_17
REMARK    5  A    between atoms: O_17  and  C_18
REMARK    6  A    between atoms: C_18  and  C_19
REMARK                            x       y       z     vdW  Elec       q    Type
REMARK                         _______ _______ _______ _____ _____    ______ ____
ROOT
ATOM      1  C   UNL     1       3.985   5.238  17.190  0.00  0.00    +0.000 C 
ATOM      2  O   UNL     1       3.564   6.372  16.970  0.00  0.00    +0.000 OA
ATOM      3  N   UNL     1       3.112   4.247  17.665  0.00  0.00    +0.000 N 
ATOM      4  C   UNL     1       3.323   2.799  17.612  0.00  0.00    +0.000 C 
ATOM      5  C   UNL     1       3.073   2.190  18.984  0.00  0.00    +0.000 C 
ATOM      6  C   UNL     1       1.683   2.584  19.458  0.00  0.00    +0.000 C 
ATOM      7  F   UNL     1       1.472   2.080  20.700  0.00  0.00    +0.000 F 
ATOM      8  F   UNL     1       0.771   1.973  18.650  0.00  0.00    +0.000 F 
ATOM      9  C   UNL     1       1.420   4.083  19.450  0.00  0.00    +0.000 C 
ATOM     10  C   UNL     1       1.753   4.637  18.061  0.00  0.00    +0.000 C 
ENDROOT
BRANCH   1  16
ATOM     11  C   UNL     1       6.168   5.279  19.395  0.00  0.00    +0.000 C 
ATOM     12  N   UNL     1       6.346   4.971  17.995  0.00  0.00    +0.000 N 
ATOM     13  N   UNL     1       7.596   4.718  17.552  0.00  0.00    +0.000 NA
ATOM     14  C   UNL     1       7.422   4.358  16.284  0.00  0.00    +0.000 A 
ATOM     15  C   UNL     1       6.073   4.409  15.905  0.00  0.00    +0.000 A 
ATOM     16  C   UNL     1       5.387   4.921  16.997  0.00  0.00    +0.000 A 
ENDBRANCH   1  16
BRANCH   9  17
ATOM     17  C   UNL     1       2.223   4.794  20.541  0.00  0.00    +0.000 C 
BRANCH  17  18
ATOM     18  O   UNL     1       1.553   6.005  20.888  0.00  0.00    +0.000 OA
BRANCH  18  19
ATOM     19  C   UNL     1       2.173   7.143  20.294  0.00  0.00    +0.000 C 
BRANCH  19  20
ATOM     20  C   UNL     1       1.377   8.370  20.646  0.00  0.00    +0.000 A 
ATOM     21  C   UNL     1       1.004   8.627  21.972  0.00  0.00    +0.000 A 
ATOM     22  C   UNL     1       0.278   9.774  22.293  0.00  0.00    +0.000 A 
ATOM     23  C   UNL     1      -0.082  10.677  21.294  0.00  0.00    +0.000 A 
ATOM     24  C   UNL     1       0.280  10.430  19.971  0.00  0.00    +0.000 A 
ATOM     25  C   UNL     1       1.004   9.282  19.647  0.00  0.00    +0.000 A 
ENDBRANCH  19  20
ENDBRANCH  18  19
ENDBRANCH  17  18
ENDBRANCH   9  17
TORSDOF 5
ENDMDL
MODEL 6
REMARK VINA RESULT:      -7.5      3.709      7.351
REMARK  Name = 
REMARK  6 active torsions:
REMARK  status: ('A' for Active; 'I' for Inactive)
REMARK    1  A    between atoms: C_1  and  N_2
REMARK    2  A    between atoms: C_6  and  C_7
REMARK    3  A    between atoms: C_15  and  C_16
REMARK    4  A    between atoms: C_16  and  O_17
REMARK    5  A    between atoms: O_17  and  C_18
REMARK    6  A    between atoms: C_18  and  C_19
REMARK                            x       y       z     vdW  Elec       q    Type
REMARK                         _______ _______ _______ _____ _____    ______ ____
ROOT
ATOM      1  C   UNL     1       2.617   4.930  18.449  0.00  0.00    +0.000 C 
ATOM      2  O   UNL     1       1.774   5.142  17.579  0.00  0.00    +0.000 OA
ATOM      3  N   UNL     1       3.913   5.449  18.308  0.00  0.00    +0.000 N 
ATOM      4  C   UNL     1       4.900   5.635  19.372  0.00  0.00    +0.000 C 
ATOM      5  C   UNL     1       6.232   5.032  18.953  0.00  0.00    +0.000 C 
ATOM      6  C   UNL     1       6.656   5.633  17.622  0.00  0.00    +0.000 C 
ATOM      7  F   UNL     1       7.821   5.066  17.223  0.00  0.00    +0.000 F 
ATOM      8  F   UNL     1       6.935   6.952  17.823  0.00  0.00    +0.000 F 
ATOM      9  C   UNL     1       5.612   5.514  16.521  0.00  0.00    +0.000 C 
ATOM     10  C   UNL     1       4.284   6.081  17.035  0.00  0.00    +0.000 C 
ENDROOT
BRANCH   1  16
ATOM     11  C   UNL     1       3.058   1.869  18.687  0.00  0.00    +0.000 C 
ATOM     12  N   UNL     1       2.481   2.748  19.677  0.00  0.00    +0.000 N 
ATOM     13  N   UNL     1       2.025   2.202  20.825  0.00  0.00    +0.000 NA
ATOM     14  C   UNL     1       1.676   3.251  21.563  0.00  0.00    +0.000 A 
ATOM     15  C   UNL     1       1.875   4.461  20.884  0.00  0.00    +0.000 A 
ATOM     16  C   UNL     1       2.296   4.118  19.607  0.00  0.00    +0.000 A 
ENDBRANCH   1  16
BRANCH   9  17
ATOM     17  C   UNL     1       5.456   4.064  16.057  0.00  0.00    +0.000 C 
BRANCH  17  18
ATOM     18  O   UNL     1       6.561   3.729  15.221  0.00  0.00    +0.000 OA
BRANCH  18  19
ATOM     19  C   UNL     1       6.577   4.506  14.025  0.00  0.00    +0.000 C 
BRANCH  19  20
ATOM     20  C   UNL     1       6.052   3.667  12.892  0.00  0.00    +0.000 A 
ATOM     21  C   UNL     1       6.867   2.711  12.270  0.00  0.00    +0.000 A 
ATOM     22  C   UNL     1       6.369   1.927  11.229  0.00  0.00    +0.000 A 
ATOM     23  C   UNL     1       5.053   2.087  10.800  0.00  0.00    +0.000 A 
ATOM     24  C   UNL     1       4.234   3.037  11.408  0.00  0.00    +0.000 A 
ATOM     25  C   UNL     1       4.730   3.825  12.448  0.00  0.00    +0.000 A 
ENDBRANCH  19  20
ENDBRANCH  18  19
ENDBRANCH  17  18
ENDBRANCH   9  17
TORSDOF 5
ENDMDL
MODEL 7
REMARK VINA RESULT:      -7.4      3.565      7.338
REMARK  Name = 
REMARK  6 active torsions:
REMARK  status: ('A' for Active; 'I' for Inactive)
REMARK    1  A    between atoms: C_1  and  N_2
REMARK    2  A    between atoms: C_6  and  C_7
REMARK    3  A    between atoms: C_15  and  C_16
REMARK    4  A    between atoms: C_16  and  O_17
REMARK    5  A    between atoms: O_17  and  C_18
REMARK    6  A    between atoms: C_18  and  C_19
REMARK                            x       y       z     vdW  Elec       q    Type
REMARK                         _______ _______ _______ _____ _____    ______ ____
ROOT
ATOM      1  C   UNL     1       2.630   5.541  18.427  0.00  0.00    +0.000 C 
ATOM      2  O   UNL     1       1.892   6.281  17.777  0.00  0.00    +0.000 OA
ATOM      3  N   UNL     1       4.013   5.775  18.447  0.00  0.00    +0.000 N 
ATOM      4  C   UNL     1       4.971   5.270  19.432  0.00  0.00    +0.000 C 
ATOM      5  C   UNL     1       6.154   4.629  18.722  0.00  0.00    +0.000 C 
ATOM      6  C   UNL     1       6.756   5.632  17.751  0.00  0.00    +0.000 C 
ATOM      7  F   UNL     1       7.784   5.050  17.084  0.00  0.00    +0.000 F 
ATOM      8  F   UNL     1       7.310   6.643  18.477  0.00  0.00    +0.000 F 
ATOM      9  C   UNL     1       5.760   6.223  16.764  0.00  0.00    +0.000 C 
ATOM     10  C   UNL     1       4.568   6.791  17.543  0.00  0.00    +0.000 C 
ENDROOT
BRANCH   1  16
ATOM     11  C   UNL     1       2.845   2.574  17.545  0.00  0.00    +0.000 C 
ATOM     12  N   UNL     1       2.178   3.091  18.717  0.00  0.00    +0.000 N 
ATOM     13  N   UNL     1       1.520   2.219  19.512  0.00  0.00    +0.000 NA
ATOM     14  C   UNL     1       1.126   2.960  20.543  0.00  0.00    +0.000 A 
ATOM     15  C   UNL     1       1.499   4.303  20.398  0.00  0.00    +0.000 A 
ATOM     16  C   UNL     1       2.088   4.404  19.146  0.00  0.00    +0.000 A 
ENDBRANCH   1  16
BRANCH   9  17
ATOM     17  C   UNL     1       5.308   5.182  15.738  0.00  0.00    +0.000 C 
BRANCH  17  18
ATOM     18  O   UNL     1       5.895   5.495  14.477  0.00  0.00    +0.000 OA
BRANCH  18  19
ATOM     19  C   UNL     1       6.799   4.481  14.046  0.00  0.00    +0.000 C 
BRANCH  19  20
ATOM     20  C   UNL     1       6.153   3.690  12.941  0.00  0.00    +0.000 A 
ATOM     21  C   UNL     1       4.826   3.938  12.564  0.00  0.00    +0.000 A 
ATOM     22  C   UNL     1       4.237   3.211  11.528  0.00  0.00    +0.000 A 
ATOM     23  C   UNL     1       4.967   2.231  10.858  0.00  0.00    +0.000 A 
ATOM     24  C   UNL     1       6.286   1.973  11.227  0.00  0.00    +0.000 A 
ATOM     25  C   UNL     1       6.876   2.697  12.264  0.00  0.00    +0.000 A 
ENDBRANCH  19  20
ENDBRANCH  18  19
ENDBRANCH  17  18
ENDBRANCH   9  17
TORSDOF 5
ENDMDL
MODEL 8
REMARK VINA RESULT:      -7.4      3.545      6.998
REMARK  Name = 
REMARK  6 active torsions:
REMARK  status: ('A' for Active; 'I' for Inactive)
REMARK    1  A    between atoms: C_1  and  N_2
REMARK    2  A    between atoms: C_6  and  C_7
REMARK    3  A    between atoms: C_15  and  C_16
REMARK    4  A    between atoms: C_16  and  O_17
REMARK    5  A    between atoms: O_17  and  C_18
REMARK    6  A    between atoms: C_18  and  C_19
REMARK                            x       y       z     vdW  Elec       q    Type
REMARK                         _______ _______ _______ _____ _____    ______ ____
ROOT
ATOM      1  C   UNL     1       2.621   3.025  18.468  0.00  0.00    +0.000 C 
ATOM      2  O   UNL     1       2.672   2.070  17.694  0.00  0.00    +0.000 OA
ATOM      3  N   UNL     1       2.955   4.311  18.016  0.00  0.00    +0.000 N 
ATOM      4  C   UNL     1       2.593   5.580  18.647  0.00  0.00    +0.000 C 
ATOM      5  C   UNL     1       3.828   6.456  18.794  0.00  0.00    +0.000 C 
ATOM      6  C   UNL     1       4.486   6.622  17.434  0.00  0.00    +0.000 C 
ATOM      7  F   UNL     1       5.613   7.366  17.567  0.00  0.00    +0.000 F 
ATOM      8  F   UNL     1       3.650   7.354  16.645  0.00  0.00    +0.000 F 
ATOM      9  C   UNL     1       4.805   5.312  16.729  0.00  0.00    +0.000 C 
ATOM     10  C   UNL     1       3.534   4.457  16.674  0.00  0.00    +0.000 C 
ENDROOT
BRANCH   1  16
ATOM     11  C   UNL     1       4.549   2.196  20.752  0.00  0.00    +0.000 C 
ATOM     12  N   UNL     1       3.128   2.436  20.852  0.00  0.00    +0.000 N 
ATOM     13  N   UNL     1       2.531   2.237  22.047  0.00  0.00    +0.000 NA
ATOM     14  C   UNL     1       1.282   2.649  21.855  0.00  0.00    +0.000 A 
ATOM     15  C   UNL     1       1.068   3.080  20.538  0.00  0.00    +0.000 A 
ATOM     16  C   UNL     1       2.251   2.831  19.856  0.00  0.00    +0.000 A 
ENDBRANCH   1  16
BRANCH   9  17
ATOM     17  C   UNL     1       5.947   4.568  17.426  0.00  0.00    +0.000 C 
BRANCH  17  18
ATOM     18  O   UNL     1       6.895   4.158  16.442  0.00  0.00    +0.000 OA
BRANCH  18  19
ATOM     19  C   UNL     1       7.211   5.214  15.538  0.00  0.00    +0.000 C 
BRANCH  19  20
ATOM     20  C   UNL     1       7.004   4.728  14.129  0.00  0.00    +0.000 A 
ATOM     21  C   UNL     1       7.775   5.237  13.075  0.00  0.00    +0.000 A 
ATOM     22  C   UNL     1       7.587   4.770  11.773  0.00  0.00    +0.000 A 
ATOM     23  C   UNL     1       6.630   3.792  11.511  0.00  0.00    +0.000 A 
ATOM     24  C   UNL     1       5.855   3.282  12.552  0.00  0.00    +0.000 A 
ATOM     25  C   UNL     1       6.039   3.748  13.854  0.00  0.00    +0.000 A 
ENDBRANCH  19  20
ENDBRANCH  18  19
ENDBRANCH  17  18
ENDBRANCH   9  17
TORSDOF 5
ENDMDL
MODEL 9
REMARK VINA RESULT:      -7.4      1.387      2.008
REMARK  Name = 
REMARK  6 active torsions:
REMARK  status: ('A' for Active; 'I' for Inactive)
REMARK    1  A    between atoms: C_1  and  N_2
REMARK    2  A    between atoms: C_6  and  C_7
REMARK    3  A    between atoms: C_15  and  C_16
REMARK    4  A    between atoms: C_16  and  O_17
REMARK    5  A    between atoms: O_17  and  C_18
REMARK    6  A    between atoms: C_18  and  C_19
REMARK                            x       y       z     vdW  Elec       q    Type
REMARK                         _______ _______ _______ _____ _____    ______ ____
ROOT
ATOM      1  C   UNL     1       4.618   5.786  17.455  0.00  0.00    +0.000 C 
ATOM      2  O   UNL     1       4.359   6.831  16.860  0.00  0.00    +0.000 OA
ATOM      3  N   UNL     1       3.583   5.033  18.031  0.00  0.00    +0.000 N 
ATOM      4  C   UNL     1       3.641   3.623  18.420  0.00  0.00    +0.000 C 
ATOM      5  C   UNL     1       3.129   3.459  19.843  0.00  0.00    +0.000 C 
ATOM      6  C   UNL     1       1.736   4.059  19.945  0.00  0.00    +0.000 C 
ATOM      7  F   UNL     1       1.293   3.954  21.223  0.00  0.00    +0.000 F 
ATOM      8  F   UNL     1       0.891   3.296  19.196  0.00  0.00    +0.000 F 
ATOM      9  C   UNL     1       1.641   5.503  19.476  0.00  0.00    +0.000 C 
ATOM     10  C   UNL     1       2.231   5.606  18.065  0.00  0.00    +0.000 C 
ENDROOT
BRANCH   1  16
ATOM     11  C   UNL     1       6.252   4.246  15.315  0.00  0.00    +0.000 C 
ATOM     12  N   UNL     1       6.689   4.633  16.636  0.00  0.00    +0.000 N 
ATOM     13  N   UNL     1       7.922   4.253  17.036  0.00  0.00    +0.000 NA
ATOM     14  C   UNL     1       8.075   4.848  18.215  0.00  0.00    +0.000 A 
ATOM     15  C   UNL     1       6.937   5.578  18.585  0.00  0.00    +0.000 A 
ATOM     16  C   UNL     1       5.990   5.340  17.600  0.00  0.00    +0.000 A 
ENDBRANCH   1  16
BRANCH   9  17
ATOM     17  C   UNL     1       2.350   6.452  20.445  0.00  0.00    +0.000 C 
BRANCH  17  18
ATOM     18  O   UNL     1       1.634   7.684  20.487  0.00  0.00    +0.000 OA
BRANCH  18  19
ATOM     19  C   UNL     1       0.564   7.645  21.429  0.00  0.00    +0.000 C 
BRANCH  19  20
ATOM     20  C   UNL     1       0.005   9.032  21.589  0.00  0.00    +0.000 A 
ATOM     21  C   UNL     1      -0.427   9.490  22.842  0.00  0.00    +0.000 A 
ATOM     22  C   UNL     1      -0.931  10.783  22.986  0.00  0.00    +0.000 A 
ATOM     23  C   UNL     1      -1.008  11.632  21.883  0.00  0.00    +0.000 A 
ATOM     24  C   UNL     1      -0.585  11.186  20.632  0.00  0.00    +0.000 A 
ATOM     25  C   UNL     1      -0.083   9.892  20.484  0.00  0.00    +0.000 A 
ENDBRANCH  19  20
ENDBRANCH  18  19
ENDBRANCH  17  18
ENDBRANCH   9  17
TORSDOF 5
ENDMDL
