MODEL 1
REMARK VINA RESULT:      -6.7      0.000      0.000
REMARK  Name = 
REMARK  7 active torsions:
REMARK  status: ('A' for Active; 'I' for Inactive)
REMARK    1  A    between atoms: C_2  and  C_3
REMARK    2  A    between atoms: C_3  and  N_4
REMARK    3  A    between atoms: C_8  and  S_9
REMARK    4  A    between atoms: S_9  and  C_10
REMARK    5  A    between atoms: C_10  and  C_11
REMARK    6  A    between atoms: C_11  and  O_13
REMARK    7  A    between atoms: O_13  and  C_14
REMARK                            x       y       z     vdW  Elec       q    Type
REMARK                         _______ _______ _______ _____ _____    ______ ____
ROOT
ATOM      1  N   UNL     1       3.855   3.331  19.196  0.00  0.00    +0.000 N 
ATOM      2  C   UNL     1       3.106   3.159  18.063  0.00  0.00    +0.000 A 
ATOM      3  N   UNL     1       3.614   3.802  17.036  0.00  0.00    +0.000 NA
ATOM      4  C   UNL     1       4.766   4.395  17.517  0.00  0.00    +0.000 A 
ATOM      5  C   UNL     1       5.756   5.195  16.944  0.00  0.00    +0.000 A 
ATOM      6  N   UNL     1       6.798   5.623  17.704  0.00  0.00    +0.000 NA
ATOM      7  C   UNL     1       6.844   5.246  18.995  0.00  0.00    +0.000 A 
ATOM      8  N   UNL     1       7.924   5.684  19.735  0.00  0.00    +0.000 N 
ATOM      9  N   UNL     1       5.937   4.509  19.655  0.00  0.00    +0.000 NA
ATOM     10  C   UNL     1       4.932   4.108  18.865  0.00  0.00    +0.000 A 
ATOM     11  H   UNL     1       8.308   6.531  19.340  0.00  0.00    +0.000 HD
ATOM     12  H   UNL     1       7.691   5.694  20.719  0.00  0.00    +0.000 HD
ENDROOT
BRANCH   1  13
ATOM     13  C   UNL     1       3.582   2.730  20.487  0.00  0.00    +0.000 C 
BRANCH  13  15
ATOM     14  C   UNL     1       1.250   2.797  21.441  0.00  0.00    +0.000 C 
ATOM     15  C   UNL     1       2.425   3.389  21.185  0.00  0.00    +0.000 C 
ENDBRANCH  13  15
ENDBRANCH   1  13
BRANCH   5  16
ATOM     16  S   UNL     1       5.588   5.688  15.252  0.00  0.00    +0.000 S 
BRANCH  16  17
ATOM     17  C   UNL     1       6.525   4.378  14.413  0.00  0.00    +0.000 C 
BRANCH  17  18
ATOM     18  C   UNL     1       7.402   4.898  13.296  0.00  0.00    +0.000 C 
ATOM     19  O   UNL     1       8.264   5.762  13.392  0.00  0.00    +0.000 OA
BRANCH  18  20
ATOM     20  O   UNL     1       7.139   4.196  12.151  0.00  0.00    +0.000 OA
ATOM     21  C   UNL     1       6.035   3.298  12.267  0.00  0.00    +0.000 C 
ENDBRANCH  18  20
ENDBRANCH  17  18
ENDBRANCH  16  17
ENDBRANCH   5  16
TORSDOF 6
ENDMDL
MODEL 2
REMARK VINA RESULT:      -6.6      2.035      2.578
REMARK  Name = 
REMARK  7 active torsions:
REMARK  status: ('A' for Active; 'I' for Inactive)
REMARK    1  A    between atoms: C_2  and  C_3
REMARK    2  A    between atoms: C_3  and  N_4
REMARK    3  A    between atoms: C_8  and  S_9
REMARK    4  A    between atoms: S_9  and  C_10
REMARK    5  A    between atoms: C_10  and  C_11
REMARK    6  A    between atoms: C_11  and  O_13
REMARK    7  A    between atoms: O_13  and  C_14
REMARK                            x       y       z     vdW  Elec       q    Type
REMARK                         _______ _______ _______ _____ _____    ______ ____
ROOT
ATOM      1  N   UNL     1       3.214   4.038  19.951  0.00  0.00    +0.000 N 
ATOM      2  C   UNL     1       4.329   3.243  19.950  0.00  0.00    +0.000 A 
ATOM      3  N   UNL     1       5.274   3.722  19.173  0.00  0.00    +0.000 NA
ATOM      4  C   UNL     1       4.761   4.902  18.668  0.00  0.00    +0.000 A 
ATOM      5  C   UNL     1       5.253   5.883  17.805  0.00  0.00    +0.000 A 
ATOM      6  N   UNL     1       4.483   6.961  17.503  0.00  0.00    +0.000 NA
ATOM      7  C   UNL     1       3.262   7.050  18.062  0.00  0.00    +0.000 A 
ATOM      8  N   UNL     1       2.512   8.165  17.747  0.00  0.00    +0.000 N 
ATOM      9  N   UNL     1       2.677   6.156  18.875  0.00  0.00    +0.000 NA
ATOM     10  C   UNL     1       3.475   5.115  19.147  0.00  0.00    +0.000 A 
ATOM     11  H   UNL     1       2.797   8.548  16.857  0.00  0.00    +0.000 HD
ATOM     12  H   UNL     1       1.528   7.970  17.875  0.00  0.00    +0.000 HD
ENDROOT
BRANCH   1  13
ATOM     13  C   UNL     1       2.013   3.805  20.727  0.00  0.00    +0.000 C 
BRANCH  13  15
ATOM     14  C   UNL     1       0.868   2.442  18.943  0.00  0.00    +0.000 C 
ATOM     15  C   UNL     1       0.846   3.417  19.861  0.00  0.00    +0.000 C 
ENDBRANCH  13  15
ENDBRANCH   1  13
BRANCH   5  16
ATOM     16  S   UNL     1       6.849   5.658  17.074  0.00  0.00    +0.000 S 
BRANCH  16  17
ATOM     17  C   UNL     1       6.521   4.283  15.934  0.00  0.00    +0.000 C 
BRANCH  17  18
ATOM     18  C   UNL     1       6.798   4.632  14.488  0.00  0.00    +0.000 C 
ATOM     19  O   UNL     1       7.683   5.371  14.077  0.00  0.00    +0.000 OA
BRANCH  18  20
ATOM     20  O   UNL     1       5.945   3.929  13.683  0.00  0.00    +0.000 OA
ATOM     21  C   UNL     1       6.484   3.631  12.394  0.00  0.00    +0.000 C 
ENDBRANCH  18  20
ENDBRANCH  17  18
ENDBRANCH  16  17
ENDBRANCH   5  16
TORSDOF 6
ENDMDL
MODEL 3
REMARK VINA RESULT:      -6.5      2.964      3.757
REMARK  Name = 
REMARK  7 active torsions:
REMARK  status: ('A' for Active; 'I' for Inactive)
REMARK    1  A    between atoms: C_2  and  C_3
REMARK    2  A    between atoms: C_3  and  N_4
REMARK    3  A    between atoms: C_8  and  S_9
REMARK    4  A    between atoms: S_9  and  C_10
REMARK    5  A    between atoms: C_10  and  C_11
REMARK    6  A    between atoms: C_11  and  O_13
REMARK    7  A    between atoms: O_13  and  C_14
REMARK                            x       y       z     vdW  Elec       q    Type
REMARK                         _______ _______ _______ _____ _____    ______ ____
ROOT
ATOM      1  N   UNL     1       2.152   3.320  18.591  0.00  0.00    +0.000 N 
ATOM      2  C   UNL     1       2.988   2.401  18.015  0.00  0.00    +0.000 A 
ATOM      3  N   UNL     1       3.947   2.975  17.324  0.00  0.00    +0.000 NA
ATOM      4  C   UNL     1       3.743   4.332  17.484  0.00  0.00    +0.000 A 
ATOM      5  C   UNL     1       4.406   5.472  17.026  0.00  0.00    +0.000 A 
ATOM      6  N   UNL     1       3.949   6.703  17.378  0.00  0.00    +0.000 NA
ATOM      7  C   UNL     1       2.867   6.778  18.174  0.00  0.00    +0.000 A 
ATOM      8  N   UNL     1       2.438   8.042  18.525  0.00  0.00    +0.000 N 
ATOM      9  N   UNL     1       2.136   5.755  18.645  0.00  0.00    +0.000 NA
ATOM     10  C   UNL     1       2.627   4.564  18.275  0.00  0.00    +0.000 A 
ATOM     11  H   UNL     1       2.730   8.723  17.838  0.00  0.00    +0.000 HD
ATOM     12  H   UNL     1       1.457   8.021  18.772  0.00  0.00    +0.000 HD
ENDROOT
BRANCH   1  13
ATOM     13  C   UNL     1       1.018   3.013  19.440  0.00  0.00    +0.000 C 
BRANCH  13  15
ATOM     14  C   UNL     1       2.133   3.477  21.652  0.00  0.00    +0.000 C 
ATOM     15  C   UNL     1       1.437   2.668  20.842  0.00  0.00    +0.000 C 
ENDBRANCH  13  15
ENDBRANCH   1  13
BRANCH   5  16
ATOM     16  S   UNL     1       5.790   5.281  15.939  0.00  0.00    +0.000 S 
BRANCH  16  17
ATOM     17  C   UNL     1       7.170   5.343  17.119  0.00  0.00    +0.000 C 
BRANCH  17  18
ATOM     18  C   UNL     1       7.523   6.750  17.546  0.00  0.00    +0.000 C 
ATOM     19  O   UNL     1       7.281   7.778  16.927  0.00  0.00    +0.000 OA
BRANCH  18  20
ATOM     20  O   UNL     1       8.099   6.715  18.786  0.00  0.00    +0.000 OA
ATOM     21  C   UNL     1       7.644   5.636  19.602  0.00  0.00    +0.000 C 
ENDBRANCH  18  20
ENDBRANCH  17  18
ENDBRANCH  16  17
ENDBRANCH   5  16
TORSDOF 6
ENDMDL
MODEL 4
REMARK VINA RESULT:      -6.5      2.845      3.684
REMARK  Name = 
REMARK  7 active torsions:
REMARK  status: ('A' for Active; 'I' for Inactive)
REMARK    1  A    between atoms: C_2  and  C_3
REMARK    2  A    between atoms: C_3  and  N_4
REMARK    3  A    between atoms: C_8  and  S_9
REMARK    4  A    between atoms: S_9  and  C_10
REMARK    5  A    between atoms: C_10  and  C_11
REMARK    6  A    between atoms: C_11  and  O_13
REMARK    7  A    between atoms: O_13  and  C_14
REMARK                            x       y       z     vdW  Elec       q    Type
REMARK                         _______ _______ _______ _____ _____    ______ ____
ROOT
ATOM      1  N   UNL     1       2.181   3.930  18.825  0.00  0.00    +0.000 N 
ATOM      2  C   UNL     1       2.925   2.864  18.393  0.00  0.00    +0.000 A 
ATOM      3  N   UNL     1       3.887   3.234  17.580  0.00  0.00    +0.000 NA
ATOM      4  C   UNL     1       3.784   4.610  17.502  0.00  0.00    +0.000 A 
ATOM      5  C   UNL     1       4.500   5.599  16.826  0.00  0.00    +0.000 A 
ATOM      6  N   UNL     1       4.145   6.903  16.969  0.00  0.00    +0.000 NA
ATOM      7  C   UNL     1       3.109   7.198  17.775  0.00  0.00    +0.000 A 
ATOM      8  N   UNL     1       2.784   8.533  17.911  0.00  0.00    +0.000 N 
ATOM      9  N   UNL     1       2.333   6.331  18.445  0.00  0.00    +0.000 NA
ATOM     10  C   UNL     1       2.724   5.061  18.277  0.00  0.00    +0.000 A 
ATOM     11  H   UNL     1       3.089   9.059  17.104  0.00  0.00    +0.000 HD
ATOM     12  H   UNL     1       1.817   8.628  18.190  0.00  0.00    +0.000 HD
ENDROOT
BRANCH   1  13
ATOM     13  C   UNL     1       1.069   3.863  19.753  0.00  0.00    +0.000 C 
BRANCH  13  15
ATOM     14  C   UNL     1       1.911   2.851  21.903  0.00  0.00    +0.000 C 
ATOM     15  C   UNL     1       1.233   2.750  20.752  0.00  0.00    +0.000 C 
ENDBRANCH  13  15
ENDBRANCH   1  13
BRANCH   5  16
ATOM     16  S   UNL     1       5.817   5.118  15.745  0.00  0.00    +0.000 S 
BRANCH  16  17
ATOM     17  C   UNL     1       7.140   4.771  16.939  0.00  0.00    +0.000 C 
BRANCH  17  18
ATOM     18  C   UNL     1       7.503   5.969  17.787  0.00  0.00    +0.000 C 
ATOM     19  O   UNL     1       7.632   5.985  19.005  0.00  0.00    +0.000 OA
BRANCH  18  20
ATOM     20  O   UNL     1       7.744   7.042  16.974  0.00  0.00    +0.000 OA
ATOM     21  C   UNL     1       7.821   8.287  17.669  0.00  0.00    +0.000 C 
ENDBRANCH  18  20
ENDBRANCH  17  18
ENDBRANCH  16  17
ENDBRANCH   5  16
TORSDOF 6
ENDMDL
MODEL 5
REMARK VINA RESULT:      -6.4      3.992      6.195
REMARK  Name = 
REMARK  7 active torsions:
REMARK  status: ('A' for Active; 'I' for Inactive)
REMARK    1  A    between atoms: C_2  and  C_3
REMARK    2  A    between atoms: C_3  and  N_4
REMARK    3  A    between atoms: C_8  and  S_9
REMARK    4  A    between atoms: S_9  and  C_10
REMARK    5  A    between atoms: C_10  and  C_11
REMARK    6  A    between atoms: C_11  and  O_13
REMARK    7  A    between atoms: O_13  and  C_14
REMARK                            x       y       z     vdW  Elec       q    Type
REMARK                         _______ _______ _______ _____ _____    ______ ____
ROOT
ATOM      1  N   UNL     1       5.857   5.775  17.833  0.00  0.00    +0.000 N 
ATOM      2  C   UNL     1       6.091   4.631  18.549  0.00  0.00    +0.000 A 
ATOM      3  N   UNL     1       5.090   4.338  19.347  0.00  0.00    +0.000 NA
ATOM      4  C   UNL     1       4.145   5.320  19.117  0.00  0.00    +0.000 A 
ATOM      5  C   UNL     1       2.871   5.578  19.624  0.00  0.00    +0.000 A 
ATOM      6  N   UNL     1       2.171   6.651  19.172  0.00  0.00    +0.000 NA
ATOM      7  C   UNL     1       2.735   7.431  18.231  0.00  0.00    +0.000 A 
ATOM      8  N   UNL     1       1.992   8.504  17.782  0.00  0.00    +0.000 N 
ATOM      9  N   UNL     1       3.960   7.297  17.697  0.00  0.00    +0.000 NA
ATOM     10  C   UNL     1       4.608   6.224  18.170  0.00  0.00    +0.000 A 
ATOM     11  H   UNL     1       1.321   8.791  18.480  0.00  0.00    +0.000 HD
ATOM     12  H   UNL     1       2.602   9.215  17.403  0.00  0.00    +0.000 HD
ENDROOT
BRANCH   1  13
ATOM     13  C   UNL     1       6.748   6.349  16.845  0.00  0.00    +0.000 C 
BRANCH  13  15
ATOM     14  C   UNL     1       7.732   8.533  17.631  0.00  0.00    +0.000 C 
ATOM     15  C   UNL     1       7.814   7.205  17.474  0.00  0.00    +0.000 C 
ENDBRANCH  13  15
ENDBRANCH   1  13
BRANCH   5  16
ATOM     16  S   UNL     1       2.228   4.530  20.898  0.00  0.00    +0.000 S 
BRANCH  16  17
ATOM     17  C   UNL     1       0.853   3.725  20.026  0.00  0.00    +0.000 C 
BRANCH  17  18
ATOM     18  C   UNL     1       1.282   3.040  18.747  0.00  0.00    +0.000 C 
ATOM     19  O   UNL     1       1.157   3.480  17.612  0.00  0.00    +0.000 OA
BRANCH  18  20
ATOM     20  O   UNL     1       1.912   1.865  19.053  0.00  0.00    +0.000 OA
ATOM     21  C   UNL     1       3.141   1.671  18.354  0.00  0.00    +0.000 C 
ENDBRANCH  18  20
ENDBRANCH  17  18
ENDBRANCH  16  17
ENDBRANCH   5  16
TORSDOF 6
ENDMDL
MODEL 6
REMARK VINA RESULT:      -6.4      1.790      2.280
REMARK  Name = 
REMARK  7 active torsions:
REMARK  status: ('A' for Active; 'I' for Inactive)
REMARK    1  A    between atoms: C_2  and  C_3
REMARK    2  A    between atoms: C_3  and  N_4
REMARK    3  A    between atoms: C_8  and  S_9
REMARK    4  A    between atoms: S_9  and  C_10
REMARK    5  A    between atoms: C_10  and  C_11
REMARK    6  A    between atoms: C_11  and  O_13
REMARK    7  A    between atoms: O_13  and  C_14
REMARK                            x       y       z     vdW  Elec       q    Type
REMARK                         _______ _______ _______ _____ _____    ______ ____
ROOT
ATOM      1  N   UNL     1       2.179   3.177  18.565  0.00  0.00    +0.000 N 
ATOM      2  C   UNL     1       3.001   2.125  18.260  0.00  0.00    +0.000 A 
ATOM      3  N   UNL     1       4.121   2.523  17.700  0.00  0.00    +0.000 NA
ATOM      4  C   UNL     1       4.037   3.902  17.667  0.00  0.00    +0.000 A 
ATOM      5  C   UNL     1       4.885   4.915  17.217  0.00  0.00    +0.000 A 
ATOM      6  N   UNL     1       4.506   6.214  17.339  0.00  0.00    +0.000 NA
ATOM      7  C   UNL     1       3.315   6.481  17.906  0.00  0.00    +0.000 A 
ATOM      8  N   UNL     1       2.967   7.811  18.029  0.00  0.00    +0.000 N 
ATOM      9  N   UNL     1       2.410   5.591  18.344  0.00  0.00    +0.000 NA
ATOM     10  C   UNL     1       2.830   4.326  18.207  0.00  0.00    +0.000 A 
ATOM     11  H   UNL     1       3.445   8.371  17.337  0.00  0.00    +0.000 HD
ATOM     12  H   UNL     1       1.962   7.903  18.090  0.00  0.00    +0.000 HD
ENDROOT
BRANCH   1  13
ATOM     13  C   UNL     1       0.888   3.077  19.217  0.00  0.00    +0.000 C 
BRANCH  13  15
ATOM     14  C   UNL     1       1.966   2.971  21.493  0.00  0.00    +0.000 C 
ATOM     15  C   UNL     1       0.973   3.375  20.689  0.00  0.00    +0.000 C 
ENDBRANCH  13  15
ENDBRANCH   1  13
BRANCH   5  16
ATOM     16  S   UNL     1       6.410   4.471  16.434  0.00  0.00    +0.000 S 
BRANCH  16  17
ATOM     17  C   UNL     1       5.898   4.389  14.694  0.00  0.00    +0.000 C 
BRANCH  17  18
ATOM     18  C   UNL     1       6.995   4.792  13.733  0.00  0.00    +0.000 C 
ATOM     19  O   UNL     1       7.890   5.598  13.951  0.00  0.00    +0.000 OA
BRANCH  18  20
ATOM     20  O   UNL     1       6.883   4.056  12.586  0.00  0.00    +0.000 OA
ATOM     21  C   UNL     1       5.673   3.303  12.500  0.00  0.00    +0.000 C 
ENDBRANCH  18  20
ENDBRANCH  17  18
ENDBRANCH  16  17
ENDBRANCH   5  16
TORSDOF 6
ENDMDL
MODEL 7
REMARK VINA RESULT:      -6.4      2.866      3.872
REMARK  Name = 
REMARK  7 active torsions:
REMARK  status: ('A' for Active; 'I' for Inactive)
REMARK    1  A    between atoms: C_2  and  C_3
REMARK    2  A    between atoms: C_3  and  N_4
REMARK    3  A    between atoms: C_8  and  S_9
REMARK    4  A    between atoms: S_9  and  C_10
REMARK    5  A    between atoms: C_10  and  C_11
REMARK    6  A    between atoms: C_11  and  O_13
REMARK    7  A    between atoms: O_13  and  C_14
REMARK                            x       y       z     vdW  Elec       q    Type
REMARK                         _______ _______ _______ _____ _____    ______ ____
ROOT
ATOM      1  N   UNL     1       3.202   4.438  19.971  0.00  0.00    +0.000 N 
ATOM      2  C   UNL     1       4.149   3.540  19.558  0.00  0.00    +0.000 A 
ATOM      3  N   UNL     1       4.787   3.956  18.487  0.00  0.00    +0.000 NA
ATOM      4  C   UNL     1       4.249   5.198  18.208  0.00  0.00    +0.000 A 
ATOM      5  C   UNL     1       4.489   6.159  17.225  0.00  0.00    +0.000 A 
ATOM      6  N   UNL     1       3.779   7.318  17.229  0.00  0.00    +0.000 NA
ATOM      7  C   UNL     1       2.864   7.503  18.199  0.00  0.00    +0.000 A 
ATOM      8  N   UNL     1       2.171   8.696  18.184  0.00  0.00    +0.000 N 
ATOM      9  N   UNL     1       2.530   6.638  19.171  0.00  0.00    +0.000 NA
ATOM     10  C   UNL     1       3.259   5.515  19.128  0.00  0.00    +0.000 A 
ATOM     11  H   UNL     1       2.148   9.084  17.252  0.00  0.00    +0.000 HD
ATOM     12  H   UNL     1       1.289   8.592  18.667  0.00  0.00    +0.000 HD
ENDROOT
BRANCH   1  13
ATOM     13  C   UNL     1       2.352   4.292  21.137  0.00  0.00    +0.000 C 
BRANCH  13  15
ATOM     14  C   UNL     1       0.619   3.017  19.823  0.00  0.00    +0.000 C 
ATOM     15  C   UNL     1       1.315   3.219  20.950  0.00  0.00    +0.000 C 
ENDBRANCH  13  15
ENDBRANCH   1  13
BRANCH   5  16
ATOM     16  S   UNL     1       5.673   5.811  15.956  0.00  0.00    +0.000 S 
BRANCH  16  17
ATOM     17  C   UNL     1       7.214   5.773  16.916  0.00  0.00    +0.000 C 
BRANCH  17  18
ATOM     18  C   UNL     1       7.565   7.112  17.526  0.00  0.00    +0.000 C 
ATOM     19  O   UNL     1       7.304   8.213  17.059  0.00  0.00    +0.000 OA
BRANCH  18  20
ATOM     20  O   UNL     1       8.166   6.912  18.738  0.00  0.00    +0.000 OA
ATOM     21  C   UNL     1       7.828   5.667  19.351  0.00  0.00    +0.000 C 
ENDBRANCH  18  20
ENDBRANCH  17  18
ENDBRANCH  16  17
ENDBRANCH   5  16
TORSDOF 6
ENDMDL
MODEL 8
REMARK VINA RESULT:      -6.3      2.297      3.007
REMARK  Name = 
REMARK  7 active torsions:
REMARK  status: ('A' for Active; 'I' for Inactive)
REMARK    1  A    between atoms: C_2  and  C_3
REMARK    2  A    between atoms: C_3  and  N_4
REMARK    3  A    between atoms: C_8  and  S_9
REMARK    4  A    between atoms: S_9  and  C_10
REMARK    5  A    between atoms: C_10  and  C_11
REMARK    6  A    between atoms: C_11  and  O_13
REMARK    7  A    between atoms: O_13  and  C_14
REMARK                            x       y       z     vdW  Elec       q    Type
REMARK                         _______ _______ _______ _____ _____    ______ ____
ROOT
ATOM      1  N   UNL     1       2.925   2.995  18.993  0.00  0.00    +0.000 N 
ATOM      2  C   UNL     1       3.999   2.278  19.449  0.00  0.00    +0.000 A 
ATOM      3  N   UNL     1       5.096   3.001  19.478  0.00  0.00    +0.000 NA
ATOM      4  C   UNL     1       4.711   4.257  19.049  0.00  0.00    +0.000 A 
ATOM      5  C   UNL     1       5.382   5.467  18.864  0.00  0.00    +0.000 A 
ATOM      6  N   UNL     1       4.698   6.556  18.427  0.00  0.00    +0.000 NA
ATOM      7  C   UNL     1       3.378   6.431  18.194  0.00  0.00    +0.000 A 
ATOM      8  N   UNL     1       2.710   7.560  17.766  0.00  0.00    +0.000 N 
ATOM      9  N   UNL     1       2.640   5.315  18.307  0.00  0.00    +0.000 NA
ATOM     10  C   UNL     1       3.356   4.270  18.744  0.00  0.00    +0.000 A 
ATOM     11  H   UNL     1       3.345   8.199  17.309  0.00  0.00    +0.000 HD
ATOM     12  H   UNL     1       1.871   7.298  17.265  0.00  0.00    +0.000 HD
ENDROOT
BRANCH   1  13
ATOM     13  C   UNL     1       1.569   2.498  18.872  0.00  0.00    +0.000 C 
BRANCH  13  15
ATOM     14  C   UNL     1       1.215   2.990  21.319  0.00  0.00    +0.000 C 
ATOM     15  C   UNL     1       0.734   2.831  20.078  0.00  0.00    +0.000 C 
ENDBRANCH  13  15
ENDBRANCH   1  13
BRANCH   5  16
ATOM     16  S   UNL     1       7.129   5.528  19.143  0.00  0.00    +0.000 S 
BRANCH  16  17
ATOM     17  C   UNL     1       7.743   4.577  17.723  0.00  0.00    +0.000 C 
BRANCH  17  18
ATOM     18  C   UNL     1       7.376   5.194  16.392  0.00  0.00    +0.000 C 
ATOM     19  O   UNL     1       7.462   6.378  16.093  0.00  0.00    +0.000 OA
BRANCH  18  20
ATOM     20  O   UNL     1       6.994   4.206  15.526  0.00  0.00    +0.000 OA
ATOM     21  C   UNL     1       5.592   3.936  15.542  0.00  0.00    +0.000 C 
ENDBRANCH  18  20
ENDBRANCH  17  18
ENDBRANCH  16  17
ENDBRANCH   5  16
TORSDOF 6
ENDMDL
MODEL 9
REMARK VINA RESULT:      -6.3      2.398      3.134
REMARK  Name = 
REMARK  7 active torsions:
REMARK  status: ('A' for Active; 'I' for Inactive)
REMARK    1  A    between atoms: C_2  and  C_3
REMARK    2  A    between atoms: C_3  and  N_4
REMARK    3  A    between atoms: C_8  and  S_9
REMARK    4  A    between atoms: S_9  and  C_10
REMARK    5  A    between atoms: C_10  and  C_11
REMARK    6  A    between atoms: C_11  and  O_13
REMARK    7  A    between atoms: O_13  and  C_14
REMARK                            x       y       z     vdW  Elec       q    Type
REMARK                         _______ _______ _______ _____ _____    ______ ____
ROOT
ATOM      1  N   UNL     1       1.907   3.375  18.703  0.00  0.00    +0.000 N 
ATOM      2  C   UNL     1       2.655   2.836  17.690  0.00  0.00    +0.000 A 
ATOM      3  N   UNL     1       3.447   3.727  17.138  0.00  0.00    +0.000 NA
ATOM      4  C   UNL     1       3.226   4.894  17.845  0.00  0.00    +0.000 A 
ATOM      5  C   UNL     1       3.749   6.186  17.772  0.00  0.00    +0.000 A 
ATOM      6  N   UNL     1       3.320   7.136  18.644  0.00  0.00    +0.000 NA
ATOM      7  C   UNL     1       2.402   6.789  19.564  0.00  0.00    +0.000 A 
ATOM      8  N   UNL     1       1.999   7.773  20.444  0.00  0.00    +0.000 N 
ATOM      9  N   UNL     1       1.810   5.592  19.706  0.00  0.00    +0.000 NA
ATOM     10  C   UNL     1       2.268   4.689  18.829  0.00  0.00    +0.000 A 
ATOM     11  H   UNL     1       2.132   8.690  20.042  0.00  0.00    +0.000 HD
ATOM     12  H   UNL     1       1.082   7.556  20.813  0.00  0.00    +0.000 HD
ENDROOT
BRANCH   1  13
ATOM     13  C   UNL     1       0.962   2.651  19.531  0.00  0.00    +0.000 C 
BRANCH  13  15
ATOM     14  C   UNL     1       2.460   2.544  21.555  0.00  0.00    +0.000 C 
ATOM     15  C   UNL     1       1.269   2.794  20.996  0.00  0.00    +0.000 C 
ENDBRANCH  13  15
ENDBRANCH   1  13
BRANCH   5  16
ATOM     16  S   UNL     1       4.914   6.568  16.495  0.00  0.00    +0.000 S 
BRANCH  16  17
ATOM     17  C   UNL     1       6.483   6.200  17.332  0.00  0.00    +0.000 C 
BRANCH  17  18
ATOM     18  C   UNL     1       7.358   5.240  16.558  0.00  0.00    +0.000 C 
ATOM     19  O   UNL     1       7.915   4.245  17.003  0.00  0.00    +0.000 OA
BRANCH  18  20
ATOM     20  O   UNL     1       7.379   5.611  15.241  0.00  0.00    +0.000 OA
ATOM     21  C   UNL     1       6.978   4.575  14.344  0.00  0.00    +0.000 C 
ENDBRANCH  18  20
ENDBRANCH  17  18
ENDBRANCH  16  17
ENDBRANCH   5  16
TORSDOF 6
ENDMDL
