MODEL 1
REMARK VINA RESULT:      -8.2      0.000      0.000
REMARK  Name = 
REMARK  8 active torsions:
REMARK  status: ('A' for Active; 'I' for Inactive)
REMARK    1  A    between atoms: C_1  and  C_2
REMARK    2  A    between atoms: C_3  and  C_4
REMARK    3  A    between atoms: C_4  and  C_5
REMARK    4  A    between atoms: C_5  and  O_7
REMARK    5  A    between atoms: C_12  and  C_13
REMARK    6  A    between atoms: C_14  and  O_15
REMARK    7  A    between atoms: O_15  and  C_16
REMARK    8  A    between atoms: C_16  and  C_17
REMARK                            x       y       z     vdW  Elec       q    Type
REMARK                         _______ _______ _______ _____ _____    ______ ____
ROOT
ATOM      1  C   UNL     1       3.612   4.630  17.304  0.00  0.00    +0.000 C 
ATOM      2  C   UNL     1       2.863   4.936  18.577  0.00  0.00    +0.000 A 
ATOM      3  C   UNL     1       2.466   3.990  19.459  0.00  0.00    +0.000 A 
ATOM      4  C   UNL     1       1.674   4.373  20.658  0.00  0.00    +0.000 A 
ATOM      5  O   UNL     1       1.078   3.538  21.332  0.00  0.00    +0.000 OA
ATOM      6  O   UNL     1       1.643   5.709  21.002  0.00  0.00    +0.000 OA
ATOM      7  C   UNL     1       1.903   6.699  20.040  0.00  0.00    +0.000 A 
ATOM      8  C   UNL     1       1.483   8.008  20.334  0.00  0.00    +0.000 A 
ATOM      9  C   UNL     1       0.867   8.367  21.661  0.00  0.00    +0.000 C 
ATOM     10  C   UNL     1       1.641   9.001  19.355  0.00  0.00    +0.000 A 
ATOM     11  C   UNL     1       2.241   8.677  18.138  0.00  0.00    +0.000 A 
ATOM     12  C   UNL     1       2.677   7.371  17.885  0.00  0.00    +0.000 A 
ATOM     13  C   UNL     1       2.501   6.346  18.828  0.00  0.00    +0.000 A 
ENDROOT
BRANCH   3  14
ATOM     14  C   UNL     1       2.613   2.494  19.280  0.00  0.00    +0.000 C 
BRANCH  14  15
ATOM     15  C   UNL     1       4.021   1.921  19.303  0.00  0.00    +0.000 C 
ATOM     16  O   UNL     1       4.866   2.111  20.167  0.00  0.00    +0.000 OA
BRANCH  15  17
ATOM     17  O   UNL     1       4.270   1.157  18.207  0.00  0.00    +0.000 OA
ATOM     18  H   UNL     1       3.563   1.173  17.536  0.00  0.00    +0.000 HD
ENDBRANCH  15  17
ENDBRANCH  14  15
ENDBRANCH   3  14
BRANCH  10  19
ATOM     19  O   UNL     1       1.101  10.225  19.646  0.00  0.00    +0.000 OA
BRANCH  19  20
ATOM     20  C   UNL     1       0.680  11.026  18.543  0.00  0.00    +0.000 C 
BRANCH  20  21
ATOM     21  C   UNL     1      -0.830  10.984  18.420  0.00  0.00    +0.000 A 
ATOM     22  C   UNL     1      -1.655  11.886  19.110  0.00  0.00    +0.000 A 
ATOM     23  C   UNL     1      -3.042  11.851  18.947  0.00  0.00    +0.000 A 
ATOM     24  C   UNL     1      -3.615  10.919  18.085  0.00  0.00    +0.000 A 
ATOM     25 CL   UNL     1      -5.322  10.884  17.873  0.00  0.00    +0.000 Cl
ATOM     26  C   UNL     1      -2.813  10.021  17.387  0.00  0.00    +0.000 A 
ATOM     27  C   UNL     1      -1.426  10.057  17.550  0.00  0.00    +0.000 A 
ENDBRANCH  20  21
ENDBRANCH  19  20
ENDBRANCH  10  19
TORSDOF 6
ENDMDL
MODEL 2
REMARK VINA RESULT:      -8.2      1.147      1.609
REMARK  Name = 
REMARK  8 active torsions:
REMARK  status: ('A' for Active; 'I' for Inactive)
REMARK    1  A    between atoms: C_1  and  C_2
REMARK    2  A    between atoms: C_3  and  C_4
REMARK    3  A    between atoms: C_4  and  C_5
REMARK    4  A    between atoms: C_5  and  O_7
REMARK    5  A    between atoms: C_12  and  C_13
REMARK    6  A    between atoms: C_14  and  O_15
REMARK    7  A    between atoms: O_15  and  C_16
REMARK    8  A    between atoms: C_16  and  C_17
REMARK                            x       y       z     vdW  Elec       q    Type
REMARK                         _______ _______ _______ _____ _____    ______ ____
ROOT
ATOM      1  C   UNL     1       4.051   5.836  17.263  0.00  0.00    +0.000 C 
ATOM      2  C   UNL     1       3.182   5.934  18.492  0.00  0.00    +0.000 A 
ATOM      3  C   UNL     1       2.926   4.889  19.312  0.00  0.00    +0.000 A 
ATOM      4  C   UNL     1       2.005   5.058  20.469  0.00  0.00    +0.000 A 
ATOM      5  O   UNL     1       1.543   4.093  21.072  0.00  0.00    +0.000 OA
ATOM      6  O   UNL     1       1.695   6.345  20.855  0.00  0.00    +0.000 OA
ATOM      7  C   UNL     1       1.814   7.410  19.947  0.00  0.00    +0.000 A 
ATOM      8  C   UNL     1       1.132   8.599  20.256  0.00  0.00    +0.000 A 
ATOM      9  C   UNL     1       0.381   8.772  21.551  0.00  0.00    +0.000 C 
ATOM     10  C   UNL     1       1.152   9.649  19.324  0.00  0.00    +0.000 A 
ATOM     11  C   UNL     1       1.874   9.503  18.140  0.00  0.00    +0.000 A 
ATOM     12  C   UNL     1       2.569   8.317  17.872  0.00  0.00    +0.000 A 
ATOM     13  C   UNL     1       2.540   7.235  18.766  0.00  0.00    +0.000 A 
ENDROOT
BRANCH   3  14
ATOM     14  C   UNL     1       3.371   3.459  19.093  0.00  0.00    +0.000 C 
BRANCH  14  15
ATOM     15  C   UNL     1       2.549   2.609  18.136  0.00  0.00    +0.000 C 
ATOM     16  O   UNL     1       2.281   2.882  16.975  0.00  0.00    +0.000 OA
BRANCH  15  17
ATOM     17  O   UNL     1       2.103   1.473  18.732  0.00  0.00    +0.000 OA
ATOM     18  H   UNL     1       1.685   1.611  19.603  0.00  0.00    +0.000 HD
ENDBRANCH  15  17
ENDBRANCH  14  15
ENDBRANCH   3  14
BRANCH  10  19
ATOM     19  O   UNL     1       0.369  10.732  19.620  0.00  0.00    +0.000 OA
BRANCH  19  20
ATOM     20  C   UNL     1      -0.066  11.536  18.524  0.00  0.00    +0.000 C 
BRANCH  20  21
ATOM     21  C   UNL     1      -1.564  11.402  18.345  0.00  0.00    +0.000 A 
ATOM     22  C   UNL     1      -2.122  10.555  17.374  0.00  0.00    +0.000 A 
ATOM     23  C   UNL     1      -3.507  10.420  17.257  0.00  0.00    +0.000 A 
ATOM     24  C   UNL     1      -4.347  11.123  18.117  0.00  0.00    +0.000 A 
ATOM     25 CL   UNL     1      -6.053  10.947  17.983  0.00  0.00    +0.000 Cl
ATOM     26  C   UNL     1      -3.813  11.963  19.091  0.00  0.00    +0.000 A 
ATOM     27  C   UNL     1      -2.427  12.097  19.208  0.00  0.00    +0.000 A 
ENDBRANCH  20  21
ENDBRANCH  19  20
ENDBRANCH  10  19
TORSDOF 6
ENDMDL
MODEL 3
REMARK VINA RESULT:      -8.1      1.490      2.605
REMARK  Name = 
REMARK  8 active torsions:
REMARK  status: ('A' for Active; 'I' for Inactive)
REMARK    1  A    between atoms: C_1  and  C_2
REMARK    2  A    between atoms: C_3  and  C_4
REMARK    3  A    between atoms: C_4  and  C_5
REMARK    4  A    between atoms: C_5  and  O_7
REMARK    5  A    between atoms: C_12  and  C_13
REMARK    6  A    between atoms: C_14  and  O_15
REMARK    7  A    between atoms: O_15  and  C_16
REMARK    8  A    between atoms: C_16  and  C_17
REMARK                            x       y       z     vdW  Elec       q    Type
REMARK                         _______ _______ _______ _____ _____    ______ ____
ROOT
ATOM      1  C   UNL     1       2.219   3.932  21.238  0.00  0.00    +0.000 C 
ATOM      2  C   UNL     1       2.638   4.786  20.067  0.00  0.00    +0.000 A 
ATOM      3  C   UNL     1       3.477   4.361  19.094  0.00  0.00    +0.000 A 
ATOM      4  C   UNL     1       3.890   5.290  18.008  0.00  0.00    +0.000 A 
ATOM      5  O   UNL     1       4.836   5.038  17.268  0.00  0.00    +0.000 OA
ATOM      6  O   UNL     1       3.160   6.450  17.848  0.00  0.00    +0.000 OA
ATOM      7  C   UNL     1       2.412   6.974  18.915  0.00  0.00    +0.000 A 
ATOM      8  C   UNL     1       2.020   8.321  18.826  0.00  0.00    +0.000 A 
ATOM      9  C   UNL     1       2.298   9.151  17.599  0.00  0.00    +0.000 C 
ATOM     10  C   UNL     1       1.355   8.902  19.917  0.00  0.00    +0.000 A 
ATOM     11  C   UNL     1       1.068   8.127  21.040  0.00  0.00    +0.000 A 
ATOM     12  C   UNL     1       1.444   6.779  21.089  0.00  0.00    +0.000 A 
ATOM     13  C   UNL     1       2.143   6.177  20.030  0.00  0.00    +0.000 A 
ENDROOT
BRANCH   3  14
ATOM     14  C   UNL     1       4.197   3.030  19.062  0.00  0.00    +0.000 C 
BRANCH  14  15
ATOM     15  C   UNL     1       3.533   1.892  18.302  0.00  0.00    +0.000 C 
ATOM     16  O   UNL     1       2.515   1.969  17.628  0.00  0.00    +0.000 OA
BRANCH  15  17
ATOM     17  O   UNL     1       4.200   0.721  18.470  0.00  0.00    +0.000 OA
ATOM     18  H   UNL     1       4.256   0.169  17.668  0.00  0.00    +0.000 HD
ENDBRANCH  15  17
ENDBRANCH  14  15
ENDBRANCH   3  14
BRANCH  10  19
ATOM     19  O   UNL     1       1.110  10.246  19.826  0.00  0.00    +0.000 OA
BRANCH  19  20
ATOM     20  C   UNL     1      -0.057  10.738  20.484  0.00  0.00    +0.000 C 
BRANCH  20  21
ATOM     21  C   UNL     1      -1.172  10.938  19.478  0.00  0.00    +0.000 A 
ATOM     22  C   UNL     1      -1.242  10.194  18.290  0.00  0.00    +0.000 A 
ATOM     23  C   UNL     1      -2.304  10.371  17.399  0.00  0.00    +0.000 A 
ATOM     24  C   UNL     1      -3.309  11.288  17.694  0.00  0.00    +0.000 A 
ATOM     25 CL   UNL     1      -4.625  11.498  16.605  0.00  0.00    +0.000 Cl
ATOM     26  C   UNL     1      -3.261  12.031  18.871  0.00  0.00    +0.000 A 
ATOM     27  C   UNL     1      -2.200  11.853  19.761  0.00  0.00    +0.000 A 
ENDBRANCH  20  21
ENDBRANCH  19  20
ENDBRANCH  10  19
TORSDOF 6
ENDMDL
MODEL 4
REMARK VINA RESULT:      -8.0      1.260      1.621
REMARK  Name = 
REMARK  8 active torsions:
REMARK  status: ('A' for Active; 'I' for Inactive)
REMARK    1  A    between atoms: C_1  and  C_2
REMARK    2  A    between atoms: C_3  and  C_4
REMARK    3  A    between atoms: C_4  and  C_5
REMARK    4  A    between atoms: C_5  and  O_7
REMARK    5  A    between atoms: C_12  and  C_13
REMARK    6  A    between atoms: C_14  and  O_15
REMARK    7  A    between atoms: O_15  and  C_16
REMARK    8  A    between atoms: C_16  and  C_17
REMARK                            x       y       z     vdW  Elec       q    Type
REMARK                         _______ _______ _______ _____ _____    ______ ____
ROOT
ATOM      1  C   UNL     1       4.038   6.778  17.003  0.00  0.00    +0.000 C 
ATOM      2  C   UNL     1       3.202   6.665  18.253  0.00  0.00    +0.000 A 
ATOM      3  C   UNL     1       3.084   5.526  18.974  0.00  0.00    +0.000 A 
ATOM      4  C   UNL     1       2.186   5.484  20.159  0.00  0.00    +0.000 A 
ATOM      5  O   UNL     1       1.849   4.423  20.676  0.00  0.00    +0.000 OA
ATOM      6  O   UNL     1       1.750   6.688  20.673  0.00  0.00    +0.000 OA
ATOM      7  C   UNL     1       1.726   7.839  19.869  0.00  0.00    +0.000 A 
ATOM      8  C   UNL     1       0.929   8.912  20.304  0.00  0.00    +0.000 A 
ATOM      9  C   UNL     1       0.203   8.879  21.624  0.00  0.00    +0.000 C 
ATOM     10  C   UNL     1       0.808  10.039  19.477  0.00  0.00    +0.000 A 
ATOM     11  C   UNL     1       1.505  10.085  18.270  0.00  0.00    +0.000 A 
ATOM     12  C   UNL     1       2.316   9.013  17.876  0.00  0.00    +0.000 A 
ATOM     13  C   UNL     1       2.430   7.856  18.663  0.00  0.00    +0.000 A 
ENDROOT
BRANCH   3  14
ATOM     14  C   UNL     1       3.674   4.180  18.610  0.00  0.00    +0.000 C 
BRANCH  14  15
ATOM     15  C   UNL     1       5.017   3.815  19.223  0.00  0.00    +0.000 C 
ATOM     16  O   UNL     1       5.995   4.545  19.309  0.00  0.00    +0.000 OA
BRANCH  15  17
ATOM     17  O   UNL     1       5.033   2.531  19.666  0.00  0.00    +0.000 OA
ATOM     18  H   UNL     1       5.405   2.418  20.560  0.00  0.00    +0.000 HD
ENDBRANCH  15  17
ENDBRANCH  14  15
ENDBRANCH   3  14
BRANCH  10  19
ATOM     19  O   UNL     1      -0.079  10.997  19.890  0.00  0.00    +0.000 OA
BRANCH  19  20
ATOM     20  C   UNL     1      -0.537  11.923  18.907  0.00  0.00    +0.000 C 
BRANCH  20  21
ATOM     21  C   UNL     1      -2.030  11.765  18.703  0.00  0.00    +0.000 A 
ATOM     22  C   UNL     1      -2.962  12.288  19.613  0.00  0.00    +0.000 A 
ATOM     23  C   UNL     1      -4.334  12.162  19.380  0.00  0.00    +0.000 A 
ATOM     24  C   UNL     1      -4.785  11.521  18.229  0.00  0.00    +0.000 A 
ATOM     25 CL   UNL     1      -6.474  11.377  17.934  0.00  0.00    +0.000 Cl
ATOM     26  C   UNL     1      -3.876  11.001  17.311  0.00  0.00    +0.000 A 
ATOM     27  C   UNL     1      -2.505  11.127  17.545  0.00  0.00    +0.000 A 
ENDBRANCH  20  21
ENDBRANCH  19  20
ENDBRANCH  10  19
TORSDOF 6
ENDMDL
MODEL 5
REMARK VINA RESULT:      -8.0      5.823      7.595
REMARK  Name = 
REMARK  8 active torsions:
REMARK  status: ('A' for Active; 'I' for Inactive)
REMARK    1  A    between atoms: C_1  and  C_2
REMARK    2  A    between atoms: C_3  and  C_4
REMARK    3  A    between atoms: C_4  and  C_5
REMARK    4  A    between atoms: C_5  and  O_7
REMARK    5  A    between atoms: C_12  and  C_13
REMARK    6  A    between atoms: C_14  and  O_15
REMARK    7  A    between atoms: O_15  and  C_16
REMARK    8  A    between atoms: C_16  and  C_17
REMARK                            x       y       z     vdW  Elec       q    Type
REMARK                         _______ _______ _______ _____ _____    ______ ____
ROOT
ATOM      1  C   UNL     1       1.909   4.349  17.508  0.00  0.00    +0.000 C 
ATOM      2  C   UNL     1       3.201   4.106  18.248  0.00  0.00    +0.000 A 
ATOM      3  C   UNL     1       3.364   3.126  19.166  0.00  0.00    +0.000 A 
ATOM      4  C   UNL     1       4.653   2.997  19.898  0.00  0.00    +0.000 A 
ATOM      5  O   UNL     1       4.756   2.307  20.907  0.00  0.00    +0.000 OA
ATOM      6  O   UNL     1       5.744   3.674  19.392  0.00  0.00    +0.000 OA
ATOM      7  C   UNL     1       5.567   4.792  18.561  0.00  0.00    +0.000 A 
ATOM      8  C   UNL     1       6.665   5.655  18.401  0.00  0.00    +0.000 A 
ATOM      9  C   UNL     1       8.009   5.353  19.009  0.00  0.00    +0.000 C 
ATOM     10  C   UNL     1       6.492   6.832  17.655  0.00  0.00    +0.000 A 
ATOM     11  C   UNL     1       5.257   7.096  17.063  0.00  0.00    +0.000 A 
ATOM     12  C   UNL     1       4.190   6.203  17.215  0.00  0.00    +0.000 A 
ATOM     13  C   UNL     1       4.318   5.036  17.985  0.00  0.00    +0.000 A 
ENDROOT
BRANCH   3  14
ATOM     14  C   UNL     1       2.284   2.193  19.669  0.00  0.00    +0.000 C 
BRANCH  14  15
ATOM     15  C   UNL     1       1.409   2.684  20.812  0.00  0.00    +0.000 C 
ATOM     16  O   UNL     1       1.632   2.542  22.006  0.00  0.00    +0.000 OA
BRANCH  15  17
ATOM     17  O   UNL     1       0.293   3.308  20.355  0.00  0.00    +0.000 OA
ATOM     18  H   UNL     1       0.127   3.192  19.402  0.00  0.00    +0.000 HD
ENDBRANCH  15  17
ENDBRANCH  14  15
ENDBRANCH   3  14
BRANCH  10  19
ATOM     19  O   UNL     1       7.555   7.695  17.637  0.00  0.00    +0.000 OA
BRANCH  19  20
ATOM     20  C   UNL     1       7.264   9.077  17.440  0.00  0.00    +0.000 C 
BRANCH  20  21
ATOM     21  C   UNL     1       8.331   9.930  18.096  0.00  0.00    +0.000 A 
ATOM     22  C   UNL     1       8.738  11.158  17.549  0.00  0.00    +0.000 A 
ATOM     23  C   UNL     1       9.696  11.943  18.196  0.00  0.00    +0.000 A 
ATOM     24  C   UNL     1      10.248  11.511  19.399  0.00  0.00    +0.000 A 
ATOM     25 CL   UNL     1      11.418  12.483  20.203  0.00  0.00    +0.000 Cl
ATOM     26  C   UNL     1       9.852  10.300  19.960  0.00  0.00    +0.000 A 
ATOM     27  C   UNL     1       8.894   9.515  19.313  0.00  0.00    +0.000 A 
ENDBRANCH  20  21
ENDBRANCH  19  20
ENDBRANCH  10  19
TORSDOF 6
ENDMDL
MODEL 6
REMARK VINA RESULT:      -7.9      2.745      3.982
REMARK  Name = 
REMARK  8 active torsions:
REMARK  status: ('A' for Active; 'I' for Inactive)
REMARK    1  A    between atoms: C_1  and  C_2
REMARK    2  A    between atoms: C_3  and  C_4
REMARK    3  A    between atoms: C_4  and  C_5
REMARK    4  A    between atoms: C_5  and  O_7
REMARK    5  A    between atoms: C_12  and  C_13
REMARK    6  A    between atoms: C_14  and  O_15
REMARK    7  A    between atoms: O_15  and  C_16
REMARK    8  A    between atoms: C_16  and  C_17
REMARK                            x       y       z     vdW  Elec       q    Type
REMARK                         _______ _______ _______ _____ _____    ______ ____
ROOT
ATOM      1  C   UNL     1       4.950   7.175  15.732  0.00  0.00    +0.000 C 
ATOM      2  C   UNL     1       4.497   6.167  16.758  0.00  0.00    +0.000 A 
ATOM      3  C   UNL     1       4.814   4.853  16.706  0.00  0.00    +0.000 A 
ATOM      4  C   UNL     1       4.270   3.914  17.726  0.00  0.00    +0.000 A 
ATOM      5  O   UNL     1       4.312   2.698  17.570  0.00  0.00    +0.000 OA
ATOM      6  O   UNL     1       3.725   4.461  18.869  0.00  0.00    +0.000 OA
ATOM      7  C   UNL     1       3.251   5.782  18.872  0.00  0.00    +0.000 A 
ATOM      8  C   UNL     1       2.372   6.150  19.906  0.00  0.00    +0.000 A 
ATOM      9  C   UNL     1       2.023   5.204  21.026  0.00  0.00    +0.000 C 
ATOM     10  C   UNL     1       1.807   7.434  19.884  0.00  0.00    +0.000 A 
ATOM     11  C   UNL     1       2.154   8.321  18.866  0.00  0.00    +0.000 A 
ATOM     12  C   UNL     1       3.055   7.938  17.865  0.00  0.00    +0.000 A 
ATOM     13  C   UNL     1       3.611   6.649  17.837  0.00  0.00    +0.000 A 
ENDROOT
BRANCH   3  14
ATOM     14  C   UNL     1       5.573   4.166  15.592  0.00  0.00    +0.000 C 
BRANCH  14  15
ATOM     15  C   UNL     1       7.016   4.587  15.364  0.00  0.00    +0.000 C 
ATOM     16  O   UNL     1       7.473   5.085  14.345  0.00  0.00    +0.000 OA
BRANCH  15  17
ATOM     17  O   UNL     1       7.792   4.324  16.448  0.00  0.00    +0.000 OA
ATOM     18  H   UNL     1       8.610   4.852  16.497  0.00  0.00    +0.000 HD
ENDBRANCH  15  17
ENDBRANCH  14  15
ENDBRANCH   3  14
BRANCH  10  19
ATOM     19  O   UNL     1       0.864   7.693  20.843  0.00  0.00    +0.000 OA
BRANCH  19  20
ATOM     20  C   UNL     1       1.222   8.615  21.870  0.00  0.00    +0.000 C 
BRANCH  20  21
ATOM     21  C   UNL     1       0.234   9.764  21.901  0.00  0.00    +0.000 A 
ATOM     22  C   UNL     1      -0.047  10.530  20.759  0.00  0.00    +0.000 A 
ATOM     23  C   UNL     1      -0.992  11.559  20.806  0.00  0.00    +0.000 A 
ATOM     24  C   UNL     1      -1.669  11.824  21.994  0.00  0.00    +0.000 A 
ATOM     25 CL   UNL     1      -2.842  13.081  22.049  0.00  0.00    +0.000 Cl
ATOM     26  C   UNL     1      -1.408  11.071  23.135  0.00  0.00    +0.000 A 
ATOM     27  C   UNL     1      -0.464  10.042  23.088  0.00  0.00    +0.000 A 
ENDBRANCH  20  21
ENDBRANCH  19  20
ENDBRANCH  10  19
TORSDOF 6
ENDMDL
MODEL 7
REMARK VINA RESULT:      -7.9      2.925      3.914
REMARK  Name = 
REMARK  8 active torsions:
REMARK  status: ('A' for Active; 'I' for Inactive)
REMARK    1  A    between atoms: C_1  and  C_2
REMARK    2  A    between atoms: C_3  and  C_4
REMARK    3  A    between atoms: C_4  and  C_5
REMARK    4  A    between atoms: C_5  and  O_7
REMARK    5  A    between atoms: C_12  and  C_13
REMARK    6  A    between atoms: C_14  and  O_15
REMARK    7  A    between atoms: O_15  and  C_16
REMARK    8  A    between atoms: C_16  and  C_17
REMARK                            x       y       z     vdW  Elec       q    Type
REMARK                         _______ _______ _______ _____ _____    ______ ____
ROOT
ATOM      1  C   UNL     1       3.915   3.699  19.321  0.00  0.00    +0.000 C 
ATOM      2  C   UNL     1       3.890   4.964  18.500  0.00  0.00    +0.000 A 
ATOM      3  C   UNL     1       4.623   5.142  17.377  0.00  0.00    +0.000 A 
ATOM      4  C   UNL     1       4.588   6.447  16.663  0.00  0.00    +0.000 A 
ATOM      5  O   UNL     1       5.421   6.738  15.810  0.00  0.00    +0.000 OA
ATOM      6  O   UNL     1       3.571   7.322  16.983  0.00  0.00    +0.000 OA
ATOM      7  C   UNL     1       2.915   7.231  18.221  0.00  0.00    +0.000 A 
ATOM      8  C   UNL     1       2.184   8.354  18.646  0.00  0.00    +0.000 A 
ATOM      9  C   UNL     1       2.021   9.573  17.777  0.00  0.00    +0.000 C 
ATOM     10  C   UNL     1       1.597   8.331  19.921  0.00  0.00    +0.000 A 
ATOM     11  C   UNL     1       1.719   7.191  20.715  0.00  0.00    +0.000 A 
ATOM     12  C   UNL     1       2.429   6.075  20.252  0.00  0.00    +0.000 A 
ATOM     13  C   UNL     1       3.058   6.079  18.998  0.00  0.00    +0.000 A 
ENDROOT
BRANCH   3  14
ATOM     14  C   UNL     1       5.641   4.170  16.819  0.00  0.00    +0.000 C 
BRANCH  14  15
ATOM     15  C   UNL     1       7.109   4.465  17.084  0.00  0.00    +0.000 C 
ATOM     16  O   UNL     1       7.679   4.385  18.163  0.00  0.00    +0.000 OA
BRANCH  15  17
ATOM     17  O   UNL     1       7.751   4.866  15.956  0.00  0.00    +0.000 OA
ATOM     18  H   UNL     1       7.309   5.590  15.476  0.00  0.00    +0.000 HD
ENDBRANCH  15  17
ENDBRANCH  14  15
ENDBRANCH   3  14
BRANCH  10  19
ATOM     19  O   UNL     1       1.006   9.496  20.333  0.00  0.00    +0.000 OA
BRANCH  19  20
ATOM     20  C   UNL     1       0.614   9.575  21.702  0.00  0.00    +0.000 C 
BRANCH  20  21
ATOM     21  C   UNL     1      -0.523  10.564  21.860  0.00  0.00    +0.000 A 
ATOM     22  C   UNL     1      -1.132  10.801  23.102  0.00  0.00    +0.000 A 
ATOM     23  C   UNL     1      -2.153  11.748  23.226  0.00  0.00    +0.000 A 
ATOM     24  C   UNL     1      -2.565  12.472  22.110  0.00  0.00    +0.000 A 
ATOM     25 CL   UNL     1      -3.812  13.648  22.265  0.00  0.00    +0.000 Cl
ATOM     26  C   UNL     1      -1.968  12.255  20.871  0.00  0.00    +0.000 A 
ATOM     27  C   UNL     1      -0.948  11.309  20.748  0.00  0.00    +0.000 A 
ENDBRANCH  20  21
ENDBRANCH  19  20
ENDBRANCH  10  19
TORSDOF 6
ENDMDL
MODEL 8
REMARK VINA RESULT:      -7.9      1.107      1.278
REMARK  Name = 
REMARK  8 active torsions:
REMARK  status: ('A' for Active; 'I' for Inactive)
REMARK    1  A    between atoms: C_1  and  C_2
REMARK    2  A    between atoms: C_3  and  C_4
REMARK    3  A    between atoms: C_4  and  C_5
REMARK    4  A    between atoms: C_5  and  O_7
REMARK    5  A    between atoms: C_12  and  C_13
REMARK    6  A    between atoms: C_14  and  O_15
REMARK    7  A    between atoms: O_15  and  C_16
REMARK    8  A    between atoms: C_16  and  C_17
REMARK                            x       y       z     vdW  Elec       q    Type
REMARK                         _______ _______ _______ _____ _____    ______ ____
ROOT
ATOM      1  C   UNL     1       3.975   5.823  17.167  0.00  0.00    +0.000 C 
ATOM      2  C   UNL     1       3.138   5.914  18.418  0.00  0.00    +0.000 A 
ATOM      3  C   UNL     1       2.877   4.858  19.223  0.00  0.00    +0.000 A 
ATOM      4  C   UNL     1       1.987   5.023  20.404  0.00  0.00    +0.000 A 
ATOM      5  O   UNL     1       1.518   4.057  20.998  0.00  0.00    +0.000 OA
ATOM      6  O   UNL     1       1.715   6.309  20.823  0.00  0.00    +0.000 OA
ATOM      7  C   UNL     1       1.836   7.389  19.934  0.00  0.00    +0.000 A 
ATOM      8  C   UNL     1       1.187   8.587  20.284  0.00  0.00    +0.000 A 
ATOM      9  C   UNL     1       0.471   8.748  21.599  0.00  0.00    +0.000 C 
ATOM     10  C   UNL     1       1.209   9.654  19.373  0.00  0.00    +0.000 A 
ATOM     11  C   UNL     1       1.900   9.517  18.169  0.00  0.00    +0.000 A 
ATOM     12  C   UNL     1       2.563   8.323  17.861  0.00  0.00    +0.000 A 
ATOM     13  C   UNL     1       2.530   7.224  18.733  0.00  0.00    +0.000 A 
ENDROOT
BRANCH   3  14
ATOM     14  C   UNL     1       3.285   3.424  18.964  0.00  0.00    +0.000 C 
BRANCH  14  15
ATOM     15  C   UNL     1       4.581   2.940  19.595  0.00  0.00    +0.000 C 
ATOM     16  O   UNL     1       4.685   2.106  20.484  0.00  0.00    +0.000 OA
BRANCH  15  17
ATOM     17  O   UNL     1       5.662   3.569  19.065  0.00  0.00    +0.000 OA
ATOM     18  H   UNL     1       6.421   3.647  19.673  0.00  0.00    +0.000 HD
ENDBRANCH  15  17
ENDBRANCH  14  15
ENDBRANCH   3  14
BRANCH  10  19
ATOM     19  O   UNL     1       0.457  10.748  19.709  0.00  0.00    +0.000 OA
BRANCH  19  20
ATOM     20  C   UNL     1      -0.107  11.500  18.636  0.00  0.00    +0.000 C 
BRANCH  20  21
ATOM     21  C   UNL     1      -1.589  11.709  18.874  0.00  0.00    +0.000 A 
ATOM     22  C   UNL     1      -2.070  12.381  20.009  0.00  0.00    +0.000 A 
ATOM     23  C   UNL     1      -3.440  12.595  20.183  0.00  0.00    +0.000 A 
ATOM     24  C   UNL     1      -4.339  12.147  19.218  0.00  0.00    +0.000 A 
ATOM     25 CL   UNL     1      -6.025  12.422  19.424  0.00  0.00    +0.000 Cl
ATOM     26  C   UNL     1      -3.880  11.485  18.082  0.00  0.00    +0.000 A 
ATOM     27  C   UNL     1      -2.511  11.272  17.909  0.00  0.00    +0.000 A 
ENDBRANCH  20  21
ENDBRANCH  19  20
ENDBRANCH  10  19
TORSDOF 6
ENDMDL
MODEL 9
REMARK VINA RESULT:      -7.9      2.738      3.879
REMARK  Name = 
REMARK  8 active torsions:
REMARK  status: ('A' for Active; 'I' for Inactive)
REMARK    1  A    between atoms: C_1  and  C_2
REMARK    2  A    between atoms: C_3  and  C_4
REMARK    3  A    between atoms: C_4  and  C_5
REMARK    4  A    between atoms: C_5  and  O_7
REMARK    5  A    between atoms: C_12  and  C_13
REMARK    6  A    between atoms: C_14  and  O_15
REMARK    7  A    between atoms: O_15  and  C_16
REMARK    8  A    between atoms: C_16  and  C_17
REMARK                            x       y       z     vdW  Elec       q    Type
REMARK                         _______ _______ _______ _____ _____    ______ ____
ROOT
ATOM      1  C   UNL     1       4.940   7.030  15.751  0.00  0.00    +0.000 C 
ATOM      2  C   UNL     1       4.454   6.039  16.780  0.00  0.00    +0.000 A 
ATOM      3  C   UNL     1       4.722   4.714  16.728  0.00  0.00    +0.000 A 
ATOM      4  C   UNL     1       4.148   3.797  17.750  0.00  0.00    +0.000 A 
ATOM      5  O   UNL     1       4.145   2.580  17.595  0.00  0.00    +0.000 OA
ATOM      6  O   UNL     1       3.628   4.364  18.895  0.00  0.00    +0.000 OA
ATOM      7  C   UNL     1       3.203   5.702  18.899  0.00  0.00    +0.000 A 
ATOM      8  C   UNL     1       2.344   6.102  19.937  0.00  0.00    +0.000 A 
ATOM      9  C   UNL     1       1.965   5.171  21.059  0.00  0.00    +0.000 C 
ATOM     10  C   UNL     1       1.826   7.407  19.917  0.00  0.00    +0.000 A 
ATOM     11  C   UNL     1       2.202   8.280  18.897  0.00  0.00    +0.000 A 
ATOM     12  C   UNL     1       3.084   7.863  17.892  0.00  0.00    +0.000 A 
ATOM     13  C   UNL     1       3.591   6.555  17.863  0.00  0.00    +0.000 A 
ENDROOT
BRANCH   3  14
ATOM     14  C   UNL     1       5.451   4.000  15.610  0.00  0.00    +0.000 C 
BRANCH  14  15
ATOM     15  C   UNL     1       6.888   4.412  15.335  0.00  0.00    +0.000 C 
ATOM     16  O   UNL     1       7.798   4.451  16.152  0.00  0.00    +0.000 OA
BRANCH  15  17
ATOM     17  O   UNL     1       7.067   4.770  14.037  0.00  0.00    +0.000 OA
ATOM     18  H   UNL     1       7.425   5.668  13.913  0.00  0.00    +0.000 HD
ENDBRANCH  15  17
ENDBRANCH  14  15
ENDBRANCH   3  14
BRANCH  10  19
ATOM     19  O   UNL     1       0.897   7.700  20.879  0.00  0.00    +0.000 OA
BRANCH  19  20
ATOM     20  C   UNL     1       1.269   8.662  21.865  0.00  0.00    +0.000 C 
BRANCH  20  21
ATOM     21  C   UNL     1       0.230   9.763  21.932  0.00  0.00    +0.000 A 
ATOM     22  C   UNL     1      -0.496  10.027  23.104  0.00  0.00    +0.000 A 
ATOM     23  C   UNL     1      -1.420  11.075  23.150  0.00  0.00    +0.000 A 
ATOM     24  C   UNL     1      -1.617  11.873  22.026  0.00  0.00    +0.000 A 
ATOM     25 CL   UNL     1      -2.744  13.172  22.085  0.00  0.00    +0.000 Cl
ATOM     26  C   UNL     1      -0.901  11.632  20.856  0.00  0.00    +0.000 A 
ATOM     27  C   UNL     1       0.022  10.584  20.812  0.00  0.00    +0.000 A 
ENDBRANCH  20  21
ENDBRANCH  19  20
ENDBRANCH  10  19
TORSDOF 6
ENDMDL
