MODEL 1
REMARK VINA RESULT:      -7.1      0.000      0.000
REMARK  Name = 
REMARK  4 active torsions:
REMARK  status: ('A' for Active; 'I' for Inactive)
REMARK    1  A    between atoms: C_1  and  O_2
REMARK    2  A    between atoms: O_2  and  C_3
REMARK    3  A    between atoms: N_21  and  S_22
REMARK    4  A    between atoms: S_22  and  C_25
REMARK                            x       y       z     vdW  Elec       q    Type
REMARK                         _______ _______ _______ _____ _____    ______ ____
ROOT
ATOM      1  C   UNL     1       1.649   4.223  20.618  0.00  0.00    +0.000 A 
ATOM      2  C   UNL     1       1.652   5.462  21.267  0.00  0.00    +0.000 A 
ATOM      3  C   UNL     1       1.999   6.622  20.574  0.00  0.00    +0.000 A 
ATOM      4  C   UNL     1       2.324   6.548  19.213  0.00  0.00    +0.000 A 
ATOM      5  C   UNL     1       2.355   5.311  18.579  0.00  0.00    +0.000 A 
ATOM      6  C   UNL     1       2.004   4.152  19.269  0.00  0.00    +0.000 A 
ATOM      7  O   UNL     1       2.730   5.176  17.265  0.00  0.00    +0.000 OA
ATOM      8  C   UNL     1       4.030   5.579  17.061  0.00  0.00    +0.000 A 
ATOM      9  C   UNL     1       4.938   4.596  16.660  0.00  0.00    +0.000 A 
ATOM     10  C   UNL     1       6.279   4.927  16.486  0.00  0.00    +0.000 A 
ATOM     11  C   UNL     1       6.698   6.240  16.697  0.00  0.00    +0.000 A 
ATOM     12  C   UNL     1       5.775   7.223  17.075  0.00  0.00    +0.000 A 
ATOM     13  C   UNL     1       4.426   6.909  17.272  0.00  0.00    +0.000 A 
ATOM     14  N   UNL     1       3.535   7.952  17.589  0.00  0.00    +0.000 NA
ATOM     15  C   UNL     1       2.551   7.806  18.435  0.00  0.00    +0.000 C 
ATOM     16  N   UNL     1       1.671   8.863  18.674  0.00  0.00    +0.000 N 
ATOM     17  C   UNL     1       0.219   8.646  18.860  0.00  0.00    +0.000 C 
ATOM     18  C   UNL     1      -0.328   9.658  19.884  0.00  0.00    +0.000 C 
ATOM     19  N   UNL     1      -0.017  11.081  19.512  0.00  0.00    +0.000 NA
ATOM     20  C   UNL     1       1.469  11.226  19.263  0.00  0.00    +0.000 C 
ATOM     21  C   UNL     1       1.979  10.226  18.207  0.00  0.00    +0.000 C 
ENDROOT
BRANCH  19  22
ATOM     22  S   UNL     1      -0.984  11.788  18.297  0.00  0.00    +0.000 S 
ATOM     23  O   UNL     1      -0.442  13.096  17.992  0.00  0.00    +0.000 OA
ATOM     24  O   UNL     1      -1.183  10.809  17.251  0.00  0.00    +0.000 OA
BRANCH  22  25
ATOM     25  C   UNL     1      -2.548  12.060  19.091  0.00  0.00    +0.000 A 
ATOM     26  C   UNL     1      -2.588  12.754  20.304  0.00  0.00    +0.000 A 
ATOM     27  C   UNL     1      -3.823  13.064  20.876  0.00  0.00    +0.000 A 
ATOM     28  C   UNL     1      -5.003  12.685  20.233  0.00  0.00    +0.000 A 
ATOM     29 CL   UNL     1      -6.524  13.100  20.922  0.00  0.00    +0.000 Cl
ATOM     30  C   UNL     1      -4.961  11.987  19.026  0.00  0.00    +0.000 A 
ATOM     31  C   UNL     1      -3.730  11.669  18.450  0.00  0.00    +0.000 A 
ENDBRANCH  22  25
ENDBRANCH  19  22
BRANCH   1  33
ATOM     32  C   UNL     1       2.318   2.234  21.716  0.00  0.00    +0.000 C 
ATOM     33  O   UNL     1       1.285   3.162  21.400  0.00  0.00    +0.000 OA
ENDBRANCH   1  33
TORSDOF 3
ENDMDL
MODEL 2
REMARK VINA RESULT:      -7.1      4.129     10.333
REMARK  Name = 
REMARK  4 active torsions:
REMARK  status: ('A' for Active; 'I' for Inactive)
REMARK    1  A    between atoms: C_1  and  O_2
REMARK    2  A    between atoms: O_2  and  C_3
REMARK    3  A    between atoms: N_21  and  S_22
REMARK    4  A    between atoms: S_22  and  C_25
REMARK                            x       y       z     vdW  Elec       q    Type
REMARK                         _______ _______ _______ _____ _____    ______ ____
ROOT
ATOM      1  C   UNL     1      -6.847  11.616  20.843  0.00  0.00    +0.000 A 
ATOM      2  C   UNL     1      -6.092  11.788  19.679  0.00  0.00    +0.000 A 
ATOM      3  C   UNL     1      -4.971  12.620  19.679  0.00  0.00    +0.000 A 
ATOM      4  C   UNL     1      -4.586  13.267  20.860  0.00  0.00    +0.000 A 
ATOM      5  C   UNL     1      -5.359  13.123  22.008  0.00  0.00    +0.000 A 
ATOM      6  C   UNL     1      -6.476  12.289  22.009  0.00  0.00    +0.000 A 
ATOM      7  O   UNL     1      -5.063  13.787  23.172  0.00  0.00    +0.000 OA
ATOM      8  C   UNL     1      -5.129  15.153  23.012  0.00  0.00    +0.000 A 
ATOM      9  C   UNL     1      -6.116  15.825  23.738  0.00  0.00    +0.000 A 
ATOM     10  C   UNL     1      -6.270  17.199  23.583  0.00  0.00    +0.000 A 
ATOM     11  C   UNL     1      -5.425  17.893  22.717  0.00  0.00    +0.000 A 
ATOM     12  C   UNL     1      -4.424  17.214  22.012  0.00  0.00    +0.000 A 
ATOM     13  C   UNL     1      -4.263  15.831  22.141  0.00  0.00    +0.000 A 
ATOM     14  N   UNL     1      -3.198  15.215  21.456  0.00  0.00    +0.000 NA
ATOM     15  C   UNL     1      -3.304  14.038  20.901  0.00  0.00    +0.000 C 
ATOM     16  N   UNL     1      -2.199  13.457  20.276  0.00  0.00    +0.000 N 
ATOM     17  C   UNL     1      -1.915  12.008  20.377  0.00  0.00    +0.000 C 
ATOM     18  C   UNL     1      -1.298  11.508  19.057  0.00  0.00    +0.000 C 
ATOM     19  N   UNL     1      -0.080  12.292  18.656  0.00  0.00    +0.000 NA
ATOM     20  C   UNL     1      -0.411  13.768  18.640  0.00  0.00    +0.000 C 
ATOM     21  C   UNL     1      -0.990  14.247  19.987  0.00  0.00    +0.000 C 
ENDROOT
BRANCH  19  22
ATOM     22  S   UNL     1       1.373  11.928  19.472  0.00  0.00    +0.000 S 
ATOM     23  O   UNL     1       2.458  12.597  18.785  0.00  0.00    +0.000 OA
ATOM     24  O   UNL     1       1.159  12.130  20.889  0.00  0.00    +0.000 OA
BRANCH  22  25
ATOM     25  C   UNL     1       1.599  10.188  19.202  0.00  0.00    +0.000 A 
ATOM     26  C   UNL     1       2.084   9.746  17.966  0.00  0.00    +0.000 A 
ATOM     27  C   UNL     1       2.366   8.390  17.787  0.00  0.00    +0.000 A 
ATOM     28  C   UNL     1       2.166   7.492  18.837  0.00  0.00    +0.000 A 
ATOM     29 CL   UNL     1       2.547   5.828  18.623  0.00  0.00    +0.000 Cl
ATOM     30  C   UNL     1       1.675   7.934  20.066  0.00  0.00    +0.000 A 
ATOM     31  C   UNL     1       1.387   9.288  20.252  0.00  0.00    +0.000 A 
ENDBRANCH  22  25
ENDBRANCH  19  22
BRANCH   1  33
ATOM     32  C   UNL     1      -7.620   9.438  20.324  0.00  0.00    +0.000 C 
ATOM     33  O   UNL     1      -7.916  10.774  20.719  0.00  0.00    +0.000 OA
ENDBRANCH   1  33
TORSDOF 3
ENDMDL
MODEL 3
REMARK VINA RESULT:      -7.0      5.134      9.257
REMARK  Name = 
REMARK  4 active torsions:
REMARK  status: ('A' for Active; 'I' for Inactive)
REMARK    1  A    between atoms: C_1  and  O_2
REMARK    2  A    between atoms: O_2  and  C_3
REMARK    3  A    between atoms: N_21  and  S_22
REMARK    4  A    between atoms: S_22  and  C_25
REMARK                            x       y       z     vdW  Elec       q    Type
REMARK                         _______ _______ _______ _____ _____    ______ ____
ROOT
ATOM      1  C   UNL     1       0.019   9.104  21.495  0.00  0.00    +0.000 A 
ATOM      2  C   UNL     1       0.310   9.670  20.250  0.00  0.00    +0.000 A 
ATOM      3  C   UNL     1       0.174  11.044  20.048  0.00  0.00    +0.000 A 
ATOM      4  C   UNL     1      -0.235  11.865  21.107  0.00  0.00    +0.000 A 
ATOM      5  C   UNL     1      -0.558  11.296  22.334  0.00  0.00    +0.000 A 
ATOM      6  C   UNL     1      -0.417   9.924  22.537  0.00  0.00    +0.000 A 
ATOM      7  O   UNL     1      -1.026  12.047  23.384  0.00  0.00    +0.000 OA
ATOM      8  C   UNL     1      -2.223  12.656  23.083  0.00  0.00    +0.000 A 
ATOM      9  C   UNL     1      -3.337  12.256  23.825  0.00  0.00    +0.000 A 
ATOM     10  C   UNL     1      -4.587  12.796  23.536  0.00  0.00    +0.000 A 
ATOM     11  C   UNL     1      -4.711  13.743  22.520  0.00  0.00    +0.000 A 
ATOM     12  C   UNL     1      -3.584  14.154  21.798  0.00  0.00    +0.000 A 
ATOM     13  C   UNL     1      -2.321  13.613  22.061  0.00  0.00    +0.000 A 
ATOM     14  N   UNL     1      -1.216  14.113  21.345  0.00  0.00    +0.000 NA
ATOM     15  C   UNL     1      -0.238  13.352  20.936  0.00  0.00    +0.000 C 
ATOM     16  N   UNL     1       0.855  13.912  20.272  0.00  0.00    +0.000 N 
ATOM     17  C   UNL     1       2.237  13.440  20.503  0.00  0.00    +0.000 C 
ATOM     18  C   UNL     1       3.040  13.527  19.191  0.00  0.00    +0.000 C 
ATOM     19  N   UNL     1       3.011  14.903  18.587  0.00  0.00    +0.000 NA
ATOM     20  C   UNL     1       1.577  15.363  18.443  0.00  0.00    +0.000 C 
ATOM     21  C   UNL     1       0.811  15.300  19.779  0.00  0.00    +0.000 C 
ENDROOT
BRANCH  19  22
ATOM     22  S   UNL     1       4.034  16.073  19.291  0.00  0.00    +0.000 S 
ATOM     23  O   UNL     1       3.960  17.278  18.491  0.00  0.00    +0.000 OA
ATOM     24  O   UNL     1       3.767  16.112  20.712  0.00  0.00    +0.000 OA
BRANCH  22  25
ATOM     25  C   UNL     1       5.668  15.414  19.064  0.00  0.00    +0.000 A 
ATOM     26  C   UNL     1       6.534  15.345  20.160  0.00  0.00    +0.000 A 
ATOM     27  C   UNL     1       7.779  14.729  20.011  0.00  0.00    +0.000 A 
ATOM     28  C   UNL     1       8.144  14.186  18.777  0.00  0.00    +0.000 A 
ATOM     29 CL   UNL     1       9.663  13.397  18.607  0.00  0.00    +0.000 Cl
ATOM     30  C   UNL     1       7.280  14.263  17.684  0.00  0.00    +0.000 A 
ATOM     31  C   UNL     1       6.036  14.881  17.825  0.00  0.00    +0.000 A 
ENDBRANCH  22  25
ENDBRANCH  19  22
BRANCH   1  33
ATOM     32  C   UNL     1       1.290   7.220  20.827  0.00  0.00    +0.000 C 
ATOM     33  O   UNL     1       0.197   7.751  21.570  0.00  0.00    +0.000 OA
ENDBRANCH   1  33
TORSDOF 3
ENDMDL
MODEL 4
REMARK VINA RESULT:      -6.9      5.592      9.605
REMARK  Name = 
REMARK  4 active torsions:
REMARK  status: ('A' for Active; 'I' for Inactive)
REMARK    1  A    between atoms: C_1  and  O_2
REMARK    2  A    between atoms: O_2  and  C_3
REMARK    3  A    between atoms: N_21  and  S_22
REMARK    4  A    between atoms: S_22  and  C_25
REMARK                            x       y       z     vdW  Elec       q    Type
REMARK                         _______ _______ _______ _____ _____    ______ ____
ROOT
ATOM      1  C   UNL     1       0.011   9.422  21.350  0.00  0.00    +0.000 A 
ATOM      2  C   UNL     1       0.385  10.077  20.173  0.00  0.00    +0.000 A 
ATOM      3  C   UNL     1       0.272  11.464  20.069  0.00  0.00    +0.000 A 
ATOM      4  C   UNL     1      -0.198  12.207  21.160  0.00  0.00    +0.000 A 
ATOM      5  C   UNL     1      -0.603  11.550  22.317  0.00  0.00    +0.000 A 
ATOM      6  C   UNL     1      -0.486  10.165  22.423  0.00  0.00    +0.000 A 
ATOM      7  O   UNL     1      -1.132  12.225  23.389  0.00  0.00    +0.000 OA
ATOM      8  C   UNL     1      -2.302  12.870  23.060  0.00  0.00    +0.000 A 
ATOM      9  C   UNL     1      -3.465  12.428  23.697  0.00  0.00    +0.000 A 
ATOM     10  C   UNL     1      -4.690  13.004  23.372  0.00  0.00    +0.000 A 
ATOM     11  C   UNL     1      -4.741  14.027  22.425  0.00  0.00    +0.000 A 
ATOM     12  C   UNL     1      -3.567  14.478  21.810  0.00  0.00    +0.000 A 
ATOM     13  C   UNL     1      -2.328  13.903  22.110  0.00  0.00    +0.000 A 
ATOM     14  N   UNL     1      -1.176  14.442  21.507  0.00  0.00    +0.000 NA
ATOM     15  C   UNL     1      -0.179  13.702  21.103  0.00  0.00    +0.000 C 
ATOM     16  N   UNL     1       0.958  14.298  20.555  0.00  0.00    +0.000 N 
ATOM     17  C   UNL     1       2.320  13.792  20.836  0.00  0.00    +0.000 C 
ATOM     18  C   UNL     1       3.206  13.969  19.588  0.00  0.00    +0.000 C 
ATOM     19  N   UNL     1       3.226  15.387  19.091  0.00  0.00    +0.000 NA
ATOM     20  C   UNL     1       1.808  15.874  18.891  0.00  0.00    +0.000 C 
ATOM     21  C   UNL     1       0.957  15.720  20.168  0.00  0.00    +0.000 C 
ENDROOT
BRANCH  19  22
ATOM     22  S   UNL     1       4.211  16.488  19.946  0.00  0.00    +0.000 S 
ATOM     23  O   UNL     1       3.692  17.822  19.727  0.00  0.00    +0.000 OA
ATOM     24  O   UNL     1       4.400  15.979  21.287  0.00  0.00    +0.000 OA
BRANCH  22  25
ATOM     25  C   UNL     1       5.776  16.410  19.110  0.00  0.00    +0.000 A 
ATOM     26  C   UNL     1       6.707  17.434  19.308  0.00  0.00    +0.000 A 
ATOM     27  C   UNL     1       7.978  17.324  18.740  0.00  0.00    +0.000 A 
ATOM     28  C   UNL     1       8.308  16.194  17.987  0.00  0.00    +0.000 A 
ATOM     29 CL   UNL     1       9.886  16.045  17.319  0.00  0.00    +0.000 Cl
ATOM     30  C   UNL     1       7.375  15.177  17.786  0.00  0.00    +0.000 A 
ATOM     31  C   UNL     1       6.101  15.283  18.347  0.00  0.00    +0.000 A 
ENDBRANCH  22  25
ENDBRANCH  19  22
BRANCH   1  33
ATOM     32  C   UNL     1       1.464   7.593  20.962  0.00  0.00    +0.000 C 
ATOM     33  O   UNL     1       0.173   8.065  21.333  0.00  0.00    +0.000 OA
ENDBRANCH   1  33
TORSDOF 3
ENDMDL
MODEL 5
REMARK VINA RESULT:      -6.8      6.757      9.224
REMARK  Name = 
REMARK  4 active torsions:
REMARK  status: ('A' for Active; 'I' for Inactive)
REMARK    1  A    between atoms: C_1  and  O_2
REMARK    2  A    between atoms: O_2  and  C_3
REMARK    3  A    between atoms: N_21  and  S_22
REMARK    4  A    between atoms: S_22  and  C_25
REMARK                            x       y       z     vdW  Elec       q    Type
REMARK                         _______ _______ _______ _____ _____    ______ ____
ROOT
ATOM      1  C   UNL     1      -2.821  12.366  23.000  0.00  0.00    +0.000 A 
ATOM      2  C   UNL     1      -1.438  12.166  23.017  0.00  0.00    +0.000 A 
ATOM      3  C   UNL     1      -0.699  12.233  21.836  0.00  0.00    +0.000 A 
ATOM      4  C   UNL     1      -1.344  12.525  20.627  0.00  0.00    +0.000 A 
ATOM      5  C   UNL     1      -2.725  12.689  20.607  0.00  0.00    +0.000 A 
ATOM      6  C   UNL     1      -3.463  12.626  21.788  0.00  0.00    +0.000 A 
ATOM      7  O   UNL     1      -3.414  12.912  19.441  0.00  0.00    +0.000 OA
ATOM      8  C   UNL     1      -3.287  11.859  18.563  0.00  0.00    +0.000 A 
ATOM      9  C   UNL     1      -4.451  11.149  18.258  0.00  0.00    +0.000 A 
ATOM     10  C   UNL     1      -4.383  10.042  17.417  0.00  0.00    +0.000 A 
ATOM     11  C   UNL     1      -3.155   9.664  16.874  0.00  0.00    +0.000 A 
ATOM     12  C   UNL     1      -1.999  10.396  17.168  0.00  0.00    +0.000 A 
ATOM     13  C   UNL     1      -2.042  11.502  18.023  0.00  0.00    +0.000 A 
ATOM     14  N   UNL     1      -0.858  12.235  18.229  0.00  0.00    +0.000 NA
ATOM     15  C   UNL     1      -0.536  12.744  19.387  0.00  0.00    +0.000 C 
ATOM     16  N   UNL     1       0.628  13.503  19.519  0.00  0.00    +0.000 N 
ATOM     17  C   UNL     1       0.682  14.712  20.370  0.00  0.00    +0.000 C 
ATOM     18  C   UNL     1       2.076  14.830  21.016  0.00  0.00    +0.000 C 
ATOM     19  N   UNL     1       3.185  14.807  20.002  0.00  0.00    +0.000 NA
ATOM     20  C   UNL     1       3.037  13.590  19.116  0.00  0.00    +0.000 C 
ATOM     21  C   UNL     1       1.646  13.521  18.454  0.00  0.00    +0.000 C 
ENDROOT
BRANCH  19  22
ATOM     22  S   UNL     1       3.465  16.251  19.136  0.00  0.00    +0.000 S 
ATOM     23  O   UNL     1       2.691  16.201  17.913  0.00  0.00    +0.000 OA
ATOM     24  O   UNL     1       3.328  17.362  20.053  0.00  0.00    +0.000 OA
BRANCH  22  25
ATOM     25  C   UNL     1       5.172  16.148  18.661  0.00  0.00    +0.000 A 
ATOM     26  C   UNL     1       6.058  17.149  19.074  0.00  0.00    +0.000 A 
ATOM     27  C   UNL     1       7.420  17.016  18.794  0.00  0.00    +0.000 A 
ATOM     28  C   UNL     1       7.884  15.889  18.112  0.00  0.00    +0.000 A 
ATOM     29 CL   UNL     1       9.567  15.712  17.801  0.00  0.00    +0.000 Cl
ATOM     30  C   UNL     1       6.998  14.896  17.696  0.00  0.00    +0.000 A 
ATOM     31  C   UNL     1       5.635  15.023  17.968  0.00  0.00    +0.000 A 
ENDBRANCH  22  25
ENDBRANCH  19  22
BRANCH   1  33
ATOM     32  C   UNL     1      -3.908  13.506  24.768  0.00  0.00    +0.000 C 
ATOM     33  O   UNL     1      -3.432  12.281  24.220  0.00  0.00    +0.000 OA
ENDBRANCH   1  33
TORSDOF 3
ENDMDL
MODEL 6
REMARK VINA RESULT:      -6.8      7.469      8.759
REMARK  Name = 
REMARK  4 active torsions:
REMARK  status: ('A' for Active; 'I' for Inactive)
REMARK    1  A    between atoms: C_1  and  O_2
REMARK    2  A    between atoms: O_2  and  C_3
REMARK    3  A    between atoms: N_21  and  S_22
REMARK    4  A    between atoms: S_22  and  C_25
REMARK                            x       y       z     vdW  Elec       q    Type
REMARK                         _______ _______ _______ _____ _____    ______ ____
ROOT
ATOM      1  C   UNL     1       8.354  13.465  24.215  0.00  0.00    +0.000 A 
ATOM      2  C   UNL     1       7.987  14.759  23.833  0.00  0.00    +0.000 A 
ATOM      3  C   UNL     1       7.913  15.104  22.483  0.00  0.00    +0.000 A 
ATOM      4  C   UNL     1       8.186  14.141  21.503  0.00  0.00    +0.000 A 
ATOM      5  C   UNL     1       8.586  12.865  21.885  0.00  0.00    +0.000 A 
ATOM      6  C   UNL     1       8.655  12.519  23.233  0.00  0.00    +0.000 A 
ATOM      7  O   UNL     1       8.928  11.905  20.966  0.00  0.00    +0.000 OA
ATOM      8  C   UNL     1      10.020  12.281  20.217  0.00  0.00    +0.000 A 
ATOM      9  C   UNL     1      11.179  11.513  20.363  0.00  0.00    +0.000 A 
ATOM     10  C   UNL     1      12.333  11.870  19.672  0.00  0.00    +0.000 A 
ATOM     11  C   UNL     1      12.316  12.981  18.829  0.00  0.00    +0.000 A 
ATOM     12  C   UNL     1      11.144  13.729  18.672  0.00  0.00    +0.000 A 
ATOM     13  C   UNL     1       9.977  13.398  19.368  0.00  0.00    +0.000 A 
ATOM     14  N   UNL     1       8.812  14.149  19.119  0.00  0.00    +0.000 NA
ATOM     15  C   UNL     1       7.964  14.467  20.059  0.00  0.00    +0.000 C 
ATOM     16  N   UNL     1       6.802  15.173  19.744  0.00  0.00    +0.000 N 
ATOM     17  C   UNL     1       5.506  14.880  20.395  0.00  0.00    +0.000 C 
ATOM     18  C   UNL     1       4.706  16.184  20.569  0.00  0.00    +0.000 C 
ATOM     19  N   UNL     1       4.528  16.928  19.275  0.00  0.00    +0.000 NA
ATOM     20  C   UNL     1       5.876  17.136  18.620  0.00  0.00    +0.000 C 
ATOM     21  C   UNL     1       6.636  15.808  18.425  0.00  0.00    +0.000 C 
ENDROOT
BRANCH  19  22
ATOM     22  S   UNL     1       3.335  16.340  18.208  0.00  0.00    +0.000 S 
ATOM     23  O   UNL     1       2.722  17.473  17.545  0.00  0.00    +0.000 OA
ATOM     24  O   UNL     1       3.909  15.257  17.439  0.00  0.00    +0.000 OA
BRANCH  22  25
ATOM     25  C   UNL     1       2.098  15.648  19.277  0.00  0.00    +0.000 A 
ATOM     26  C   UNL     1       1.981  14.258  19.378  0.00  0.00    +0.000 A 
ATOM     27  C   UNL     1       1.084  13.711  20.297  0.00  0.00    +0.000 A 
ATOM     28  C   UNL     1       0.319  14.552  21.108  0.00  0.00    +0.000 A 
ATOM     29 CL   UNL     1      -0.760  13.874  22.265  0.00  0.00    +0.000 Cl
ATOM     30  C   UNL     1       0.432  15.938  21.001  0.00  0.00    +0.000 A 
ATOM     31  C   UNL     1       1.323  16.492  20.081  0.00  0.00    +0.000 A 
ENDBRANCH  22  25
ENDBRANCH  19  22
BRANCH   1  33
ATOM     32  C   UNL     1       7.451  12.297  26.066  0.00  0.00    +0.000 C 
ATOM     33  O   UNL     1       8.384  13.248  25.564  0.00  0.00    +0.000 OA
ENDBRANCH   1  33
TORSDOF 3
ENDMDL
MODEL 7
REMARK VINA RESULT:      -6.7      5.995      9.651
REMARK  Name = 
REMARK  4 active torsions:
REMARK  status: ('A' for Active; 'I' for Inactive)
REMARK    1  A    between atoms: C_1  and  O_2
REMARK    2  A    between atoms: O_2  and  C_3
REMARK    3  A    between atoms: N_21  and  S_22
REMARK    4  A    between atoms: S_22  and  C_25
REMARK                            x       y       z     vdW  Elec       q    Type
REMARK                         _______ _______ _______ _____ _____    ______ ____
ROOT
ATOM      1  C   UNL     1       1.093  10.129  18.651  0.00  0.00    +0.000 A 
ATOM      2  C   UNL     1       1.253  11.324  17.944  0.00  0.00    +0.000 A 
ATOM      3  C   UNL     1       1.240  12.549  18.612  0.00  0.00    +0.000 A 
ATOM      4  C   UNL     1       1.088  12.580  20.005  0.00  0.00    +0.000 A 
ATOM      5  C   UNL     1       0.893  11.392  20.702  0.00  0.00    +0.000 A 
ATOM      6  C   UNL     1       0.911  10.168  20.035  0.00  0.00    +0.000 A 
ATOM      7  O   UNL     1       0.674  11.372  22.057  0.00  0.00    +0.000 OA
ATOM      8  C   UNL     1      -0.481  12.039  22.398  0.00  0.00    +0.000 A 
ATOM      9  C   UNL     1      -1.508  11.275  22.958  0.00  0.00    +0.000 A 
ATOM     10  C   UNL     1      -2.720  11.879  23.278  0.00  0.00    +0.000 A 
ATOM     11  C   UNL     1      -2.890  13.245  23.051  0.00  0.00    +0.000 A 
ATOM     12  C   UNL     1      -1.847  14.006  22.511  0.00  0.00    +0.000 A 
ATOM     13  C   UNL     1      -0.626  13.416  22.168  0.00  0.00    +0.000 A 
ATOM     14  N   UNL     1       0.407  14.245  21.689  0.00  0.00    +0.000 NA
ATOM     15  C   UNL     1       1.222  13.877  20.738  0.00  0.00    +0.000 C 
ATOM     16  N   UNL     1       2.258  14.723  20.338  0.00  0.00    +0.000 N 
ATOM     17  C   UNL     1       3.599  14.208  19.986  0.00  0.00    +0.000 C 
ATOM     18  C   UNL     1       4.200  15.058  18.851  0.00  0.00    +0.000 C 
ATOM     19  N   UNL     1       4.232  16.524  19.183  0.00  0.00    +0.000 NA
ATOM     20  C   UNL     1       2.851  16.978  19.605  0.00  0.00    +0.000 C 
ATOM     21  C   UNL     1       2.293  16.132  20.767  0.00  0.00    +0.000 C 
ENDROOT
BRANCH  19  22
ATOM     22  S   UNL     1       5.471  17.048  20.232  0.00  0.00    +0.000 S 
ATOM     23  O   UNL     1       5.672  18.467  20.021  0.00  0.00    +0.000 OA
ATOM     24  O   UNL     1       5.196  16.529  21.554  0.00  0.00    +0.000 OA
BRANCH  22  25
ATOM     25  C   UNL     1       6.928  16.235  19.623  0.00  0.00    +0.000 A 
ATOM     26  C   UNL     1       7.531  16.701  18.450  0.00  0.00    +0.000 A 
ATOM     27  C   UNL     1       8.735  16.134  18.028  0.00  0.00    +0.000 A 
ATOM     28  C   UNL     1       9.327  15.116  18.779  0.00  0.00    +0.000 A 
ATOM     29 CL   UNL     1      10.829  14.445  18.274  0.00  0.00    +0.000 Cl
ATOM     30  C   UNL     1       8.720  14.649  19.944  0.00  0.00    +0.000 A 
ATOM     31  C   UNL     1       7.513  15.207  20.370  0.00  0.00    +0.000 A 
ENDBRANCH  22  25
ENDBRANCH  19  22
BRANCH   1  33
ATOM     32  C   UNL     1       2.375   8.307  17.849  0.00  0.00    +0.000 C 
ATOM     33  O   UNL     1       1.130   8.996  17.887  0.00  0.00    +0.000 OA
ENDBRANCH   1  33
TORSDOF 3
ENDMDL
MODEL 8
REMARK VINA RESULT:      -6.7      6.490     10.002
REMARK  Name = 
REMARK  4 active torsions:
REMARK  status: ('A' for Active; 'I' for Inactive)
REMARK    1  A    between atoms: C_1  and  O_2
REMARK    2  A    between atoms: O_2  and  C_3
REMARK    3  A    between atoms: N_21  and  S_22
REMARK    4  A    between atoms: S_22  and  C_25
REMARK                            x       y       z     vdW  Elec       q    Type
REMARK                         _______ _______ _______ _____ _____    ______ ____
ROOT
ATOM      1  C   UNL     1      -0.653  10.971  18.828  0.00  0.00    +0.000 A 
ATOM      2  C   UNL     1      -0.153  12.189  18.357  0.00  0.00    +0.000 A 
ATOM      3  C   UNL     1       0.224  13.192  19.251  0.00  0.00    +0.000 A 
ATOM      4  C   UNL     1       0.122  12.967  20.630  0.00  0.00    +0.000 A 
ATOM      5  C   UNL     1      -0.409  11.769  21.096  0.00  0.00    +0.000 A 
ATOM      6  C   UNL     1      -0.781  10.766  20.203  0.00  0.00    +0.000 A 
ATOM      7  O   UNL     1      -0.590  11.526  22.434  0.00  0.00    +0.000 OA
ATOM      8  C   UNL     1      -1.478  12.413  22.999  0.00  0.00    +0.000 A 
ATOM      9  C   UNL     1      -2.675  11.882  23.487  0.00  0.00    +0.000 A 
ATOM     10  C   UNL     1      -3.637  12.732  24.024  0.00  0.00    +0.000 A 
ATOM     11  C   UNL     1      -3.388  14.103  24.085  0.00  0.00    +0.000 A 
ATOM     12  C   UNL     1      -2.176  14.622  23.616  0.00  0.00    +0.000 A 
ATOM     13  C   UNL     1      -1.202  13.788  23.057  0.00  0.00    +0.000 A 
ATOM     14  N   UNL     1       0.022  14.360  22.661  0.00  0.00    +0.000 NA
ATOM     15  C   UNL     1       0.664  13.981  21.589  0.00  0.00    +0.000 C 
ATOM     16  N   UNL     1       1.898  14.552  21.273  0.00  0.00    +0.000 N 
ATOM     17  C   UNL     1       3.009  13.753  20.711  0.00  0.00    +0.000 C 
ATOM     18  C   UNL     1       3.813  14.612  19.716  0.00  0.00    +0.000 C 
ATOM     19  N   UNL     1       4.298  15.898  20.325  0.00  0.00    +0.000 NA
ATOM     20  C   UNL     1       3.132  16.636  20.947  0.00  0.00    +0.000 C 
ATOM     21  C   UNL     1       2.372  15.763  21.965  0.00  0.00    +0.000 C 
ENDROOT
BRANCH  19  22
ATOM     22  S   UNL     1       5.663  15.799  21.343  0.00  0.00    +0.000 S 
ATOM     23  O   UNL     1       6.026  17.143  21.744  0.00  0.00    +0.000 OA
ATOM     24  O   UNL     1       5.417  14.773  22.333  0.00  0.00    +0.000 OA
BRANCH  22  25
ATOM     25  C   UNL     1       6.960  15.223  20.276  0.00  0.00    +0.000 A 
ATOM     26  C   UNL     1       7.781  14.173  20.703  0.00  0.00    +0.000 A 
ATOM     27  C   UNL     1       8.730  13.646  19.826  0.00  0.00    +0.000 A 
ATOM     28  C   UNL     1       8.848  14.163  18.534  0.00  0.00    +0.000 A 
ATOM     29 CL   UNL     1       9.995  13.487  17.444  0.00  0.00    +0.000 Cl
ATOM     30  C   UNL     1       8.033  15.214  18.112  0.00  0.00    +0.000 A 
ATOM     31  C   UNL     1       7.085  15.750  18.986  0.00  0.00    +0.000 A 
ENDBRANCH  22  25
ENDBRANCH  19  22
BRANCH   1  33
ATOM     32  C   UNL     1      -2.348  10.044  17.458  0.00  0.00    +0.000 C 
ATOM     33  O   UNL     1      -0.982  10.067  17.856  0.00  0.00    +0.000 OA
ENDBRANCH   1  33
TORSDOF 3
ENDMDL
MODEL 9
REMARK VINA RESULT:      -6.6      4.529      7.335
REMARK  Name = 
REMARK  4 active torsions:
REMARK  status: ('A' for Active; 'I' for Inactive)
REMARK    1  A    between atoms: C_1  and  O_2
REMARK    2  A    between atoms: O_2  and  C_3
REMARK    3  A    between atoms: N_21  and  S_22
REMARK    4  A    between atoms: S_22  and  C_25
REMARK                            x       y       z     vdW  Elec       q    Type
REMARK                         _______ _______ _______ _____ _____    ______ ____
ROOT
ATOM      1  C   UNL     1       0.116   9.809  21.719  0.00  0.00    +0.000 A 
ATOM      2  C   UNL     1      -0.389  10.505  22.821  0.00  0.00    +0.000 A 
ATOM      3  C   UNL     1      -0.902  11.794  22.668  0.00  0.00    +0.000 A 
ATOM      4  C   UNL     1      -0.933  12.385  21.399  0.00  0.00    +0.000 A 
ATOM      5  C   UNL     1      -0.396  11.705  20.310  0.00  0.00    +0.000 A 
ATOM      6  C   UNL     1       0.112  10.416  20.461  0.00  0.00    +0.000 A 
ATOM      7  O   UNL     1      -0.342  12.265  19.058  0.00  0.00    +0.000 OA
ATOM      8  C   UNL     1       0.441  13.397  19.039  0.00  0.00    +0.000 A 
ATOM      9  C   UNL     1       1.605  13.345  18.268  0.00  0.00    +0.000 A 
ATOM     10  C   UNL     1       2.467  14.438  18.246  0.00  0.00    +0.000 A 
ATOM     11  C   UNL     1       2.149  15.581  18.981  0.00  0.00    +0.000 A 
ATOM     12  C   UNL     1       0.968  15.631  19.731  0.00  0.00    +0.000 A 
ATOM     13  C   UNL     1       0.096  14.539  19.780  0.00  0.00    +0.000 A 
ATOM     14  N   UNL     1      -1.106  14.673  20.500  0.00  0.00    +0.000 NA
ATOM     15  C   UNL     1      -1.616  13.703  21.209  0.00  0.00    +0.000 C 
ATOM     16  N   UNL     1      -2.836  13.880  21.863  0.00  0.00    +0.000 N 
ATOM     17  C   UNL     1      -3.846  12.801  21.943  0.00  0.00    +0.000 C 
ATOM     18  C   UNL     1      -4.583  12.880  23.293  0.00  0.00    +0.000 C 
ATOM     19  N   UNL     1      -5.188  14.234  23.541  0.00  0.00    +0.000 NA
ATOM     20  C   UNL     1      -4.128  15.300  23.375  0.00  0.00    +0.000 C 
ATOM     21  C   UNL     1      -3.435  15.219  22.000  0.00  0.00    +0.000 C 
ENDROOT
BRANCH  19  22
ATOM     22  S   UNL     1      -6.644  14.586  22.726  0.00  0.00    +0.000 S 
ATOM     23  O   UNL     1      -7.656  14.885  23.718  0.00  0.00    +0.000 OA
ATOM     24  O   UNL     1      -6.352  15.523  21.663  0.00  0.00    +0.000 OA
BRANCH  22  25
ATOM     25  C   UNL     1      -7.107  13.045  21.977  0.00  0.00    +0.000 A 
ATOM     26  C   UNL     1      -6.826  12.831  20.624  0.00  0.00    +0.000 A 
ATOM     27  C   UNL     1      -7.090  11.582  20.059  0.00  0.00    +0.000 A 
ATOM     28  C   UNL     1      -7.625  10.560  20.847  0.00  0.00    +0.000 A 
ATOM     29 CL   UNL     1      -7.917   9.011  20.156  0.00  0.00    +0.000 Cl
ATOM     30  C   UNL     1      -7.911  10.778  22.195  0.00  0.00    +0.000 A 
ATOM     31  C   UNL     1      -7.654  12.026  22.765  0.00  0.00    +0.000 A 
ENDBRANCH  22  25
ENDBRANCH  19  22
BRANCH   1  33
ATOM     32  C   UNL     1       1.381   7.948  20.981  0.00  0.00    +0.000 C 
ATOM     33  O   UNL     1       0.584   8.554  21.993  0.00  0.00    +0.000 OA
ENDBRANCH   1  33
TORSDOF 3
ENDMDL
