MODEL 1
REMARK VINA RESULT:      -7.7      0.000      0.000
REMARK  Name = 
REMARK  16 active torsions:
REMARK  status: ('A' for Active; 'I' for Inactive)
REMARK    1  A    between atoms: C_1  and  C_2
REMARK    2  A    between atoms: C_2  and  C_3
REMARK    3  A    between atoms: C_2  and  O_4
REMARK    4  A    between atoms: O_4  and  C_5
REMARK    5  A    between atoms: C_7  and  C_8
REMARK    6  A    between atoms: C_8  and  N_9
REMARK    7  A    between atoms: C_10  and  S_11
REMARK    8  A    between atoms: N_12  and  C_13
REMARK    9  A    between atoms: C_13  and  C_14
REMARK   10  A    between atoms: C_17  and  C_18
REMARK   11  A    between atoms: C_18  and  C_19
REMARK   12  A    between atoms: C_18  and  C_20
REMARK   13  A    between atoms: C_18  and  C_21
REMARK   14  A    between atoms: C_26  and  N_27
REMARK   15  A    between atoms: N_27  and  S_28
REMARK   16  A    between atoms: S_28  and  C_29
REMARK                            x       y       z     vdW  Elec       q    Type
REMARK                         _______ _______ _______ _____ _____    ______ ____
ROOT
ATOM      1  C   UNL     1       0.979   8.395  21.116  0.00  0.00    +0.000 C 
ENDROOT
BRANCH   1   4
ATOM      2  C   UNL     1       2.549   5.281  19.538  0.00  0.00    +0.000 A 
ATOM      3  C   UNL     1       1.890   6.158  20.421  0.00  0.00    +0.000 A 
ATOM      4  C   UNL     1       1.758   7.524  20.160  0.00  0.00    +0.000 A 
ATOM      5  C   UNL     1       2.326   8.019  18.986  0.00  0.00    +0.000 A 
ATOM      6  C   UNL     1       3.016   7.169  18.119  0.00  0.00    +0.000 A 
ATOM      7  C   UNL     1       3.138   5.798  18.374  0.00  0.00    +0.000 A 
BRANCH   7   8
ATOM      8  N   UNL     1       3.802   5.050  17.349  0.00  0.00    +0.000 N 
ATOM      9  H   UNL     1       3.241   4.378  16.833  0.00  0.00    +0.000 HD
BRANCH   8  10
ATOM     10  S   UNL     1       5.400   4.557  17.499  0.00  0.00    +0.000 S 
ATOM     11  C   UNL     1       6.286   6.080  17.224  0.00  0.00    +0.000 C 
ATOM     12  O   UNL     1       5.674   4.096  18.839  0.00  0.00    +0.000 OA
ATOM     13  O   UNL     1       5.659   3.734  16.334  0.00  0.00    +0.000 OA
ENDBRANCH   8  10
ENDBRANCH   7   8
BRANCH   2  14
ATOM     14  O   UNL     1       2.498   4.016  20.030  0.00  0.00    +0.000 OA
BRANCH  14  16
ATOM     15  C   UNL     1       0.931   2.486  19.155  0.00  0.00    +0.000 C 
ATOM     16  C   UNL     1       1.281   3.364  20.348  0.00  0.00    +0.000 C 
ATOM     17  C   UNL     1       1.519   2.552  21.617  0.00  0.00    +0.000 C 
ENDBRANCH  14  16
ENDBRANCH   2  14
ENDBRANCH   1   4
BRANCH   1  18
ATOM     18  N   UNL     1       0.344   9.523  20.453  0.00  0.00    +0.000 NA
ATOM     19  C   UNL     1      -0.380  10.412  21.022  0.00  0.00    +0.000 C 
ATOM     20  N   UNL     1      -1.016  11.406  20.341  0.00  0.00    +0.000 N 
ATOM     21  H   UNL     1      -1.606  12.026  20.878  0.00  0.00    +0.000 HD
BRANCH  19  22
ATOM     22  S   UNL     1      -0.702  10.544  22.740  0.00  0.00    +0.000 S 
ATOM     23  H   UNL     1       0.556  10.534  23.179  0.00  0.00    +0.000 HD
ENDBRANCH  19  22
BRANCH  20  24
ATOM     24  C   UNL     1      -0.763  11.775  18.973  0.00  0.00    +0.000 C 
BRANCH  24  25
ATOM     25  C   UNL     1       0.337  12.804  18.883  0.00  0.00    +0.000 A 
ATOM     26  C   UNL     1       1.667  12.422  18.679  0.00  0.00    +0.000 A 
ATOM     27  C   UNL     1       2.673  13.382  18.512  0.00  0.00    +0.000 A 
ATOM     28  C   UNL     1       2.388  14.758  18.544  0.00  0.00    +0.000 A 
ATOM     29  C   UNL     1       1.052  15.129  18.783  0.00  0.00    +0.000 A 
ATOM     30  C   UNL     1       0.043  14.170  18.947  0.00  0.00    +0.000 A 
BRANCH  28  31
ATOM     31  C   UNL     1       3.464  15.832  18.300  0.00  0.00    +0.000 C 
ATOM     32  C   UNL     1       3.780  16.681  19.553  0.00  0.00    +0.000 C 
ATOM     33  C   UNL     1       4.782  15.157  17.861  0.00  0.00    +0.000 C 
ATOM     34  C   UNL     1       3.012  16.807  17.192  0.00  0.00    +0.000 C 
ENDBRANCH  28  31
ENDBRANCH  24  25
ENDBRANCH  20  24
ENDBRANCH   1  18
TORSDOF 10
ENDMDL
MODEL 2
REMARK VINA RESULT:      -7.3      3.206      5.258
REMARK  Name = 
REMARK  16 active torsions:
REMARK  status: ('A' for Active; 'I' for Inactive)
REMARK    1  A    between atoms: C_1  and  C_2
REMARK    2  A    between atoms: C_2  and  C_3
REMARK    3  A    between atoms: C_2  and  O_4
REMARK    4  A    between atoms: O_4  and  C_5
REMARK    5  A    between atoms: C_7  and  C_8
REMARK    6  A    between atoms: C_8  and  N_9
REMARK    7  A    between atoms: C_10  and  S_11
REMARK    8  A    between atoms: N_12  and  C_13
REMARK    9  A    between atoms: C_13  and  C_14
REMARK   10  A    between atoms: C_17  and  C_18
REMARK   11  A    between atoms: C_18  and  C_19
REMARK   12  A    between atoms: C_18  and  C_20
REMARK   13  A    between atoms: C_18  and  C_21
REMARK   14  A    between atoms: C_26  and  N_27
REMARK   15  A    between atoms: N_27  and  S_28
REMARK   16  A    between atoms: S_28  and  C_29
REMARK                            x       y       z     vdW  Elec       q    Type
REMARK                         _______ _______ _______ _____ _____    ______ ____
ROOT
ATOM      1  C   UNL     1       1.044   9.318  20.152  0.00  0.00    +0.000 C 
ENDROOT
BRANCH   1   4
ATOM      2  C   UNL     1       2.759   5.940  19.606  0.00  0.00    +0.000 A 
ATOM      3  C   UNL     1       2.080   7.028  20.187  0.00  0.00    +0.000 A 
ATOM      4  C   UNL     1       1.840   8.217  19.493  0.00  0.00    +0.000 A 
ATOM      5  C   UNL     1       2.317   8.314  18.186  0.00  0.00    +0.000 A 
ATOM      6  C   UNL     1       3.026   7.259  17.610  0.00  0.00    +0.000 A 
ATOM      7  C   UNL     1       3.257   6.062  18.300  0.00  0.00    +0.000 A 
BRANCH   7   8
ATOM      8  N   UNL     1       3.926   5.048  17.542  0.00  0.00    +0.000 N 
ATOM      9  H   UNL     1       3.364   4.258  17.236  0.00  0.00    +0.000 HD
BRANCH   8  10
ATOM     10  S   UNL     1       5.518   4.613  17.845  0.00  0.00    +0.000 S 
ATOM     11  C   UNL     1       6.329   6.199  17.925  0.00  0.00    +0.000 C 
ATOM     12  O   UNL     1       5.640   3.965  19.130  0.00  0.00    +0.000 OA
ATOM     13  O   UNL     1       5.987   3.991  16.623  0.00  0.00    +0.000 OA
ENDBRANCH   8  10
ENDBRANCH   7   8
BRANCH   2  14
ATOM     14  O   UNL     1       2.821   4.914  20.495  0.00  0.00    +0.000 OA
BRANCH  14  16
ATOM     15  C   UNL     1       2.643   2.749  21.413  0.00  0.00    +0.000 C 
ATOM     16  C   UNL     1       2.305   3.625  20.215  0.00  0.00    +0.000 C 
ATOM     17  C   UNL     1       0.800   3.774  20.010  0.00  0.00    +0.000 C 
ENDBRANCH  14  16
ENDBRANCH   2  14
ENDBRANCH   1   4
BRANCH   1  18
ATOM     18  N   UNL     1       0.112   9.958  19.237  0.00  0.00    +0.000 NA
ATOM     19  C   UNL     1       0.240  11.132  18.744  0.00  0.00    +0.000 C 
ATOM     20  N   UNL     1      -0.702  11.716  17.951  0.00  0.00    +0.000 N 
ATOM     21  H   UNL     1      -0.529  12.666  17.655  0.00  0.00    +0.000 HD
BRANCH  19  22
ATOM     22  S   UNL     1       1.604  12.211  18.967  0.00  0.00    +0.000 S 
ATOM     23  H   UNL     1       0.959  13.372  18.863  0.00  0.00    +0.000 HD
ENDBRANCH  19  22
BRANCH  20  24
ATOM     24  C   UNL     1      -1.811  11.037  17.333  0.00  0.00    +0.000 C 
BRANCH  24  25
ATOM     25  C   UNL     1      -3.113  11.409  17.997  0.00  0.00    +0.000 A 
ATOM     26  C   UNL     1      -3.130  12.066  19.233  0.00  0.00    +0.000 A 
ATOM     27  C   UNL     1      -4.337  12.485  19.807  0.00  0.00    +0.000 A 
ATOM     28  C   UNL     1      -5.570  12.263  19.170  0.00  0.00    +0.000 A 
ATOM     29  C   UNL     1      -5.541  11.573  17.944  0.00  0.00    +0.000 A 
ATOM     30  C   UNL     1      -4.334  11.155  17.366  0.00  0.00    +0.000 A 
BRANCH  28  31
ATOM     31  C   UNL     1      -6.904  12.770  19.748  0.00  0.00    +0.000 C 
ATOM     32  C   UNL     1      -7.666  11.700  20.564  0.00  0.00    +0.000 C 
ATOM     33  C   UNL     1      -6.640  13.964  20.693  0.00  0.00    +0.000 C 
ATOM     34  C   UNL     1      -7.843  13.233  18.614  0.00  0.00    +0.000 C 
ENDBRANCH  28  31
ENDBRANCH  24  25
ENDBRANCH  20  24
ENDBRANCH   1  18
TORSDOF 10
ENDMDL
MODEL 3
REMARK VINA RESULT:      -7.3      3.203      5.342
REMARK  Name = 
REMARK  16 active torsions:
REMARK  status: ('A' for Active; 'I' for Inactive)
REMARK    1  A    between atoms: C_1  and  C_2
REMARK    2  A    between atoms: C_2  and  C_3
REMARK    3  A    between atoms: C_2  and  O_4
REMARK    4  A    between atoms: O_4  and  C_5
REMARK    5  A    between atoms: C_7  and  C_8
REMARK    6  A    between atoms: C_8  and  N_9
REMARK    7  A    between atoms: C_10  and  S_11
REMARK    8  A    between atoms: N_12  and  C_13
REMARK    9  A    between atoms: C_13  and  C_14
REMARK   10  A    between atoms: C_17  and  C_18
REMARK   11  A    between atoms: C_18  and  C_19
REMARK   12  A    between atoms: C_18  and  C_20
REMARK   13  A    between atoms: C_18  and  C_21
REMARK   14  A    between atoms: C_26  and  N_27
REMARK   15  A    between atoms: N_27  and  S_28
REMARK   16  A    between atoms: S_28  and  C_29
REMARK                            x       y       z     vdW  Elec       q    Type
REMARK                         _______ _______ _______ _____ _____    ______ ____
ROOT
ATOM      1  C   UNL     1       0.973   9.224  20.335  0.00  0.00    +0.000 C 
ENDROOT
BRANCH   1   4
ATOM      2  C   UNL     1       2.896   6.017  19.515  0.00  0.00    +0.000 A 
ATOM      3  C   UNL     1       2.145   7.006  20.180  0.00  0.00    +0.000 A 
ATOM      4  C   UNL     1       1.841   8.236  19.592  0.00  0.00    +0.000 A 
ATOM      5  C   UNL     1       2.326   8.481  18.308  0.00  0.00    +0.000 A 
ATOM      6  C   UNL     1       3.104   7.526  17.650  0.00  0.00    +0.000 A 
ATOM      7  C   UNL     1       3.400   6.288  18.233  0.00  0.00    +0.000 A 
BRANCH   7   8
ATOM      8  N   UNL     1       4.137   5.388  17.398  0.00  0.00    +0.000 N 
ATOM      9  H   UNL     1       3.628   4.597  17.014  0.00  0.00    +0.000 HD
BRANCH   8  10
ATOM     10  S   UNL     1       5.750   5.024  17.686  0.00  0.00    +0.000 S 
ATOM     11  C   UNL     1       6.546   6.589  17.376  0.00  0.00    +0.000 C 
ATOM     12  O   UNL     1       5.958   4.664  19.069  0.00  0.00    +0.000 OA
ATOM     13  O   UNL     1       6.149   4.154  16.597  0.00  0.00    +0.000 OA
ENDBRANCH   8  10
ENDBRANCH   7   8
BRANCH   2  14
ATOM     14  O   UNL     1       3.009   4.921  20.309  0.00  0.00    +0.000 OA
BRANCH  14  16
ATOM     15  C   UNL     1       3.435   2.601  20.286  0.00  0.00    +0.000 C 
ATOM     16  C   UNL     1       2.402   3.680  19.994  0.00  0.00    +0.000 C 
ATOM     17  C   UNL     1       1.160   3.548  20.871  0.00  0.00    +0.000 C 
ENDBRANCH  14  16
ENDBRANCH   2  14
ENDBRANCH   1   4
BRANCH   1  18
ATOM     18  N   UNL     1       0.077   9.955  19.452  0.00  0.00    +0.000 NA
ATOM     19  C   UNL     1       0.214  11.176  19.096  0.00  0.00    +0.000 C 
ATOM     20  N   UNL     1      -0.696  11.837  18.328  0.00  0.00    +0.000 N 
ATOM     21  H   UNL     1      -0.521  12.815  18.146  0.00  0.00    +0.000 HD
BRANCH  19  22
ATOM     22  S   UNL     1       1.554  12.232  19.499  0.00  0.00    +0.000 S 
ATOM     23  H   UNL     1       0.877  13.166  20.166  0.00  0.00    +0.000 HD
ENDBRANCH  19  22
BRANCH  20  24
ATOM     24  C   UNL     1      -1.768  11.222  17.589  0.00  0.00    +0.000 C 
BRANCH  24  25
ATOM     25  C   UNL     1      -3.101  11.493  18.240  0.00  0.00    +0.000 A 
ATOM     26  C   UNL     1      -4.270  10.883  17.770  0.00  0.00    +0.000 A 
ATOM     27  C   UNL     1      -5.492  11.071  18.427  0.00  0.00    +0.000 A 
ATOM     28  C   UNL     1      -5.593  11.873  19.576  0.00  0.00    +0.000 A 
ATOM     29  C   UNL     1      -4.417  12.506  20.019  0.00  0.00    +0.000 A 
ATOM     30  C   UNL     1      -3.192  12.318  19.365  0.00  0.00    +0.000 A 
BRANCH  28  31
ATOM     31  C   UNL     1      -6.911  12.043  20.355  0.00  0.00    +0.000 C 
ATOM     32  C   UNL     1      -7.674  10.715  20.568  0.00  0.00    +0.000 C 
ATOM     33  C   UNL     1      -6.616  12.630  21.753  0.00  0.00    +0.000 C 
ATOM     34  C   UNL     1      -7.862  12.999  19.605  0.00  0.00    +0.000 C 
ENDBRANCH  28  31
ENDBRANCH  24  25
ENDBRANCH  20  24
ENDBRANCH   1  18
TORSDOF 10
ENDMDL
MODEL 4
REMARK VINA RESULT:      -7.3      3.383      5.947
REMARK  Name = 
REMARK  16 active torsions:
REMARK  status: ('A' for Active; 'I' for Inactive)
REMARK    1  A    between atoms: C_1  and  C_2
REMARK    2  A    between atoms: C_2  and  C_3
REMARK    3  A    between atoms: C_2  and  O_4
REMARK    4  A    between atoms: O_4  and  C_5
REMARK    5  A    between atoms: C_7  and  C_8
REMARK    6  A    between atoms: C_8  and  N_9
REMARK    7  A    between atoms: C_10  and  S_11
REMARK    8  A    between atoms: N_12  and  C_13
REMARK    9  A    between atoms: C_13  and  C_14
REMARK   10  A    between atoms: C_17  and  C_18
REMARK   11  A    between atoms: C_18  and  C_19
REMARK   12  A    between atoms: C_18  and  C_20
REMARK   13  A    between atoms: C_18  and  C_21
REMARK   14  A    between atoms: C_26  and  N_27
REMARK   15  A    between atoms: N_27  and  S_28
REMARK   16  A    between atoms: S_28  and  C_29
REMARK                            x       y       z     vdW  Elec       q    Type
REMARK                         _______ _______ _______ _____ _____    ______ ____
ROOT
ATOM      1  C   UNL     1       1.364   9.105  20.322  0.00  0.00    +0.000 C 
ENDROOT
BRANCH   1   4
ATOM      2  C   UNL     1       2.934   6.094  18.555  0.00  0.00    +0.000 A 
ATOM      3  C   UNL     1       2.470   7.389  18.855  0.00  0.00    +0.000 A 
ATOM      4  C   UNL     1       1.772   7.681  20.030  0.00  0.00    +0.000 A 
ATOM      5  C   UNL     1       1.519   6.631  20.913  0.00  0.00    +0.000 A 
ATOM      6  C   UNL     1       1.939   5.334  20.611  0.00  0.00    +0.000 A 
ATOM      7  C   UNL     1       2.648   5.043  19.440  0.00  0.00    +0.000 A 
BRANCH   7   8
ATOM      8  N   UNL     1       3.079   3.683  19.317  0.00  0.00    +0.000 N 
ATOM      9  H   UNL     1       4.067   3.498  19.471  0.00  0.00    +0.000 HD
BRANCH   8  10
ATOM     10  S   UNL     1       2.405   2.633  18.195  0.00  0.00    +0.000 S 
ATOM     11  C   UNL     1       0.817   2.277  18.925  0.00  0.00    +0.000 C 
ATOM     12  O   UNL     1       2.196   3.295  16.929  0.00  0.00    +0.000 OA
ATOM     13  O   UNL     1       3.173   1.408  18.304  0.00  0.00    +0.000 OA
ENDBRANCH   8  10
ENDBRANCH   7   8
BRANCH   2  14
ATOM     14  O   UNL     1       3.600   6.112  17.371  0.00  0.00    +0.000 OA
BRANCH  14  16
ATOM     15  C   UNL     1       5.818   5.846  18.127  0.00  0.00    +0.000 C 
ATOM     16  C   UNL     1       4.899   6.662  17.231  0.00  0.00    +0.000 C 
ATOM     17  C   UNL     1       5.279   6.554  15.756  0.00  0.00    +0.000 C 
ENDBRANCH  14  16
ENDBRANCH   2  14
ENDBRANCH   1   4
BRANCH   1  18
ATOM     18  N   UNL     1       0.372   9.605  19.384  0.00  0.00    +0.000 NA
ATOM     19  C   UNL     1       0.449  10.705  18.734  0.00  0.00    +0.000 C 
ATOM     20  N   UNL     1      -0.545  11.165  17.924  0.00  0.00    +0.000 N 
ATOM     21  H   UNL     1      -0.409  12.071  17.497  0.00  0.00    +0.000 HD
BRANCH  19  22
ATOM     22  S   UNL     1       1.800  11.823  18.739  0.00  0.00    +0.000 S 
ATOM     23  H   UNL     1       2.758  10.977  18.364  0.00  0.00    +0.000 HD
ENDBRANCH  19  22
BRANCH  20  24
ATOM     24  C   UNL     1      -1.671  10.395  17.463  0.00  0.00    +0.000 C 
BRANCH  24  25
ATOM     25  C   UNL     1      -2.957  10.896  18.071  0.00  0.00    +0.000 A 
ATOM     26  C   UNL     1      -2.949  11.879  19.066  0.00  0.00    +0.000 A 
ATOM     27  C   UNL     1      -4.148  12.402  19.569  0.00  0.00    +0.000 A 
ATOM     28  C   UNL     1      -5.396  11.962  19.098  0.00  0.00    +0.000 A 
ATOM     29  C   UNL     1      -5.390  10.950  18.121  0.00  0.00    +0.000 A 
ATOM     30  C   UNL     1      -4.193  10.427  17.613  0.00  0.00    +0.000 A 
BRANCH  28  31
ATOM     31  C   UNL     1      -6.725  12.566  19.587  0.00  0.00    +0.000 C 
ATOM     32  C   UNL     1      -7.542  11.607  20.483  0.00  0.00    +0.000 C 
ATOM     33  C   UNL     1      -6.444  13.839  20.417  0.00  0.00    +0.000 C 
ATOM     34  C   UNL     1      -7.622  12.943  18.388  0.00  0.00    +0.000 C 
ENDBRANCH  28  31
ENDBRANCH  24  25
ENDBRANCH  20  24
ENDBRANCH   1  18
TORSDOF 10
ENDMDL
MODEL 5
REMARK VINA RESULT:      -7.3      0.898      1.602
REMARK  Name = 
REMARK  16 active torsions:
REMARK  status: ('A' for Active; 'I' for Inactive)
REMARK    1  A    between atoms: C_1  and  C_2
REMARK    2  A    between atoms: C_2  and  C_3
REMARK    3  A    between atoms: C_2  and  O_4
REMARK    4  A    between atoms: O_4  and  C_5
REMARK    5  A    between atoms: C_7  and  C_8
REMARK    6  A    between atoms: C_8  and  N_9
REMARK    7  A    between atoms: C_10  and  S_11
REMARK    8  A    between atoms: N_12  and  C_13
REMARK    9  A    between atoms: C_13  and  C_14
REMARK   10  A    between atoms: C_17  and  C_18
REMARK   11  A    between atoms: C_18  and  C_19
REMARK   12  A    between atoms: C_18  and  C_20
REMARK   13  A    between atoms: C_18  and  C_21
REMARK   14  A    between atoms: C_26  and  N_27
REMARK   15  A    between atoms: N_27  and  S_28
REMARK   16  A    between atoms: S_28  and  C_29
REMARK                            x       y       z     vdW  Elec       q    Type
REMARK                         _______ _______ _______ _____ _____    ______ ____
ROOT
ATOM      1  C   UNL     1       0.697   8.970  21.320  0.00  0.00    +0.000 C 
ENDROOT
BRANCH   1   4
ATOM      2  C   UNL     1       2.321   5.785  19.951  0.00  0.00    +0.000 A 
ATOM      3  C   UNL     1       1.673   6.716  20.786  0.00  0.00    +0.000 A 
ATOM      4  C   UNL     1       1.460   8.043  20.404  0.00  0.00    +0.000 A 
ATOM      5  C   UNL     1       1.934   8.443  19.155  0.00  0.00    +0.000 A 
ATOM      6  C   UNL     1       2.612   7.543  18.332  0.00  0.00    +0.000 A 
ATOM      7  C   UNL     1       2.816   6.209  18.708  0.00  0.00    +0.000 A 
BRANCH   7   8
ATOM      8  N   UNL     1       3.454   5.394  17.720  0.00  0.00    +0.000 N 
ATOM      9  H   UNL     1       2.853   4.798  17.157  0.00  0.00    +0.000 HD
BRANCH   8  10
ATOM     10  S   UNL     1       4.966   4.710  17.970  0.00  0.00    +0.000 S 
ATOM     11  C   UNL     1       4.546   3.087  18.576  0.00  0.00    +0.000 C 
ATOM     12  O   UNL     1       5.681   4.568  16.723  0.00  0.00    +0.000 OA
ATOM     13  O   UNL     1       5.529   5.421  19.101  0.00  0.00    +0.000 OA
ENDBRANCH   8  10
ENDBRANCH   7   8
BRANCH   2  14
ATOM     14  O   UNL     1       2.361   4.573  20.564  0.00  0.00    +0.000 OA
BRANCH  14  16
ATOM     15  C   UNL     1       0.909   3.198  19.313  0.00  0.00    +0.000 C 
ATOM     16  C   UNL     1       1.219   3.745  20.699  0.00  0.00    +0.000 C 
ATOM     17  C   UNL     1       1.575   2.642  21.693  0.00  0.00    +0.000 C 
ENDBRANCH  14  16
ENDBRANCH   2  14
ENDBRANCH   1   4
BRANCH   1  18
ATOM     18  N   UNL     1      -0.004  10.018  20.595  0.00  0.00    +0.000 NA
ATOM     19  C   UNL     1      -0.732  10.929  21.122  0.00  0.00    +0.000 C 
ATOM     20  N   UNL     1      -1.430  11.843  20.391  0.00  0.00    +0.000 N 
ATOM     21  H   UNL     1      -2.017  12.488  20.901  0.00  0.00    +0.000 HD
BRANCH  19  22
ATOM     22  S   UNL     1      -0.983  11.197  22.836  0.00  0.00    +0.000 S 
ATOM     23  H   UNL     1       0.293  11.249  23.218  0.00  0.00    +0.000 HD
ENDBRANCH  19  22
BRANCH  20  24
ATOM     24  C   UNL     1      -1.250  12.102  18.986  0.00  0.00    +0.000 C 
BRANCH  24  25
ATOM     25  C   UNL     1      -0.088  13.035  18.751  0.00  0.00    +0.000 A 
ATOM     26  C   UNL     1      -0.232  14.418  18.898  0.00  0.00    +0.000 A 
ATOM     27  C   UNL     1       0.868  15.274  18.761  0.00  0.00    +0.000 A 
ATOM     28  C   UNL     1       2.151  14.781  18.472  0.00  0.00    +0.000 A 
ATOM     29  C   UNL     1       2.277  13.391  18.295  0.00  0.00    +0.000 A 
ATOM     30  C   UNL     1       1.178  12.531  18.434  0.00  0.00    +0.000 A 
BRANCH  28  31
ATOM     31  C   UNL     1       3.388  15.693  18.380  0.00  0.00    +0.000 C 
ATOM     32  C   UNL     1       4.666  14.950  17.925  0.00  0.00    +0.000 C 
ATOM     33  C   UNL     1       3.127  16.822  17.358  0.00  0.00    +0.000 C 
ATOM     34  C   UNL     1       3.696  16.328  19.753  0.00  0.00    +0.000 C 
ENDBRANCH  28  31
ENDBRANCH  24  25
ENDBRANCH  20  24
ENDBRANCH   1  18
TORSDOF 10
ENDMDL
MODEL 6
REMARK VINA RESULT:      -7.2      3.280      5.439
REMARK  Name = 
REMARK  16 active torsions:
REMARK  status: ('A' for Active; 'I' for Inactive)
REMARK    1  A    between atoms: C_1  and  C_2
REMARK    2  A    between atoms: C_2  and  C_3
REMARK    3  A    between atoms: C_2  and  O_4
REMARK    4  A    between atoms: O_4  and  C_5
REMARK    5  A    between atoms: C_7  and  C_8
REMARK    6  A    between atoms: C_8  and  N_9
REMARK    7  A    between atoms: C_10  and  S_11
REMARK    8  A    between atoms: N_12  and  C_13
REMARK    9  A    between atoms: C_13  and  C_14
REMARK   10  A    between atoms: C_17  and  C_18
REMARK   11  A    between atoms: C_18  and  C_19
REMARK   12  A    between atoms: C_18  and  C_20
REMARK   13  A    between atoms: C_18  and  C_21
REMARK   14  A    between atoms: C_26  and  N_27
REMARK   15  A    between atoms: N_27  and  S_28
REMARK   16  A    between atoms: S_28  and  C_29
REMARK                            x       y       z     vdW  Elec       q    Type
REMARK                         _______ _______ _______ _____ _____    ______ ____
ROOT
ATOM      1  C   UNL     1       0.968   9.187  20.154  0.00  0.00    +0.000 C 
ENDROOT
BRANCH   1   4
ATOM      2  C   UNL     1       2.988   6.017  19.434  0.00  0.00    +0.000 A 
ATOM      3  C   UNL     1       2.192   6.994  20.061  0.00  0.00    +0.000 A 
ATOM      4  C   UNL     1       1.885   8.213  19.453  0.00  0.00    +0.000 A 
ATOM      5  C   UNL     1       2.415   8.460  18.187  0.00  0.00    +0.000 A 
ATOM      6  C   UNL     1       3.238   7.517  17.567  0.00  0.00    +0.000 A 
ATOM      7  C   UNL     1       3.537   6.290  18.171  0.00  0.00    +0.000 A 
BRANCH   7   8
ATOM      8  N   UNL     1       4.325   5.400  17.372  0.00  0.00    +0.000 N 
ATOM      9  H   UNL     1       3.860   4.572  17.012  0.00  0.00    +0.000 HD
BRANCH   8  10
ATOM     10  S   UNL     1       5.951   5.128  17.683  0.00  0.00    +0.000 S 
ATOM     11  C   UNL     1       6.474   4.272  16.209  0.00  0.00    +0.000 C 
ATOM     12  O   UNL     1       6.675   6.374  17.777  0.00  0.00    +0.000 OA
ATOM     13  O   UNL     1       5.981   4.140  18.745  0.00  0.00    +0.000 OA
ENDBRANCH   8  10
ENDBRANCH   7   8
BRANCH   2  14
ATOM     14  O   UNL     1       3.094   4.928  20.239  0.00  0.00    +0.000 OA
BRANCH  14  16
ATOM     15  C   UNL     1       1.712   3.334  21.293  0.00  0.00    +0.000 C 
ATOM     16  C   UNL     1       2.397   3.720  19.990  0.00  0.00    +0.000 C 
ATOM     17  C   UNL     1       1.400   3.994  18.868  0.00  0.00    +0.000 C 
ENDBRANCH  14  16
ENDBRANCH   2  14
ENDBRANCH   1   4
BRANCH   1  18
ATOM     18  N   UNL     1       0.042   9.838  19.240  0.00  0.00    +0.000 NA
ATOM     19  C   UNL     1       0.189  11.005  18.736  0.00  0.00    +0.000 C 
ATOM     20  N   UNL     1      -0.747  11.601  17.945  0.00  0.00    +0.000 N 
ATOM     21  H   UNL     1      -0.557  12.545  17.640  0.00  0.00    +0.000 HD
BRANCH  19  22
ATOM     22  S   UNL     1       1.576  12.058  18.939  0.00  0.00    +0.000 S 
ATOM     23  H   UNL     1       1.053  12.908  19.822  0.00  0.00    +0.000 HD
ENDBRANCH  19  22
BRANCH  20  24
ATOM     24  C   UNL     1      -1.874  10.939  17.342  0.00  0.00    +0.000 C 
BRANCH  24  25
ATOM     25  C   UNL     1      -3.143  11.222  18.107  0.00  0.00    +0.000 A 
ATOM     26  C   UNL     1      -3.156  12.132  19.169  0.00  0.00    +0.000 A 
ATOM     27  C   UNL     1      -4.351  12.455  19.824  0.00  0.00    +0.000 A 
ATOM     28  C   UNL     1      -5.576  11.882  19.443  0.00  0.00    +0.000 A 
ATOM     29  C   UNL     1      -5.544  10.943  18.395  0.00  0.00    +0.000 A 
ATOM     30  C   UNL     1      -4.349  10.620  17.736  0.00  0.00    +0.000 A 
BRANCH  28  31
ATOM     31  C   UNL     1      -6.913  12.268  20.102  0.00  0.00    +0.000 C 
ATOM     32  C   UNL     1      -7.811  13.146  19.200  0.00  0.00    +0.000 C 
ATOM     33  C   UNL     1      -7.713  10.991  20.440  0.00  0.00    +0.000 C 
ATOM     34  C   UNL     1      -6.665  13.058  21.404  0.00  0.00    +0.000 C 
ENDBRANCH  28  31
ENDBRANCH  24  25
ENDBRANCH  20  24
ENDBRANCH   1  18
TORSDOF 10
ENDMDL
MODEL 7
REMARK VINA RESULT:      -7.2      3.434      5.941
REMARK  Name = 
REMARK  16 active torsions:
REMARK  status: ('A' for Active; 'I' for Inactive)
REMARK    1  A    between atoms: C_1  and  C_2
REMARK    2  A    between atoms: C_2  and  C_3
REMARK    3  A    between atoms: C_2  and  O_4
REMARK    4  A    between atoms: O_4  and  C_5
REMARK    5  A    between atoms: C_7  and  C_8
REMARK    6  A    between atoms: C_8  and  N_9
REMARK    7  A    between atoms: C_10  and  S_11
REMARK    8  A    between atoms: N_12  and  C_13
REMARK    9  A    between atoms: C_13  and  C_14
REMARK   10  A    between atoms: C_17  and  C_18
REMARK   11  A    between atoms: C_18  and  C_19
REMARK   12  A    between atoms: C_18  and  C_20
REMARK   13  A    between atoms: C_18  and  C_21
REMARK   14  A    between atoms: C_26  and  N_27
REMARK   15  A    between atoms: N_27  and  S_28
REMARK   16  A    between atoms: S_28  and  C_29
REMARK                            x       y       z     vdW  Elec       q    Type
REMARK                         _______ _______ _______ _____ _____    ______ ____
ROOT
ATOM      1  C   UNL     1       1.284   9.254  20.328  0.00  0.00    +0.000 C 
ENDROOT
BRANCH   1   4
ATOM      2  C   UNL     1       3.028   6.391  18.480  0.00  0.00    +0.000 A 
ATOM      3  C   UNL     1       2.505   7.652  18.823  0.00  0.00    +0.000 A 
ATOM      4  C   UNL     1       1.756   7.862  19.984  0.00  0.00    +0.000 A 
ATOM      5  C   UNL     1       1.512   6.762  20.807  0.00  0.00    +0.000 A 
ATOM      6  C   UNL     1       1.990   5.497  20.460  0.00  0.00    +0.000 A 
ATOM      7  C   UNL     1       2.751   5.289  19.304  0.00  0.00    +0.000 A 
BRANCH   7   8
ATOM      8  N   UNL     1       3.237   3.953  19.133  0.00  0.00    +0.000 N 
ATOM      9  H   UNL     1       4.240   3.840  19.014  0.00  0.00    +0.000 HD
BRANCH   8  10
ATOM     10  S   UNL     1       2.365   2.787  18.297  0.00  0.00    +0.000 S 
ATOM     11  C   UNL     1       3.503   1.415  18.275  0.00  0.00    +0.000 C 
ATOM     12  O   UNL     1       1.185   2.399  19.033  0.00  0.00    +0.000 OA
ATOM     13  O   UNL     1       2.295   3.265  16.930  0.00  0.00    +0.000 OA
ENDBRANCH   8  10
ENDBRANCH   7   8
BRANCH   2  14
ATOM     14  O   UNL     1       3.734   6.490  17.324  0.00  0.00    +0.000 OA
BRANCH  14  16
ATOM     15  C   UNL     1       5.198   5.656  15.673  0.00  0.00    +0.000 C 
ATOM     16  C   UNL     1       5.022   5.922  17.161  0.00  0.00    +0.000 C 
ATOM     17  C   UNL     1       6.034   6.933  17.695  0.00  0.00    +0.000 C 
ENDBRANCH  14  16
ENDBRANCH   2  14
ENDBRANCH   1   4
BRANCH   1  18
ATOM     18  N   UNL     1       0.299   9.759  19.385  0.00  0.00    +0.000 NA
ATOM     19  C   UNL     1       0.375  10.867  18.748  0.00  0.00    +0.000 C 
ATOM     20  N   UNL     1      -0.614  11.329  17.933  0.00  0.00    +0.000 N 
ATOM     21  H   UNL     1      -0.479  12.240  17.518  0.00  0.00    +0.000 HD
BRANCH  19  22
ATOM     22  S   UNL     1       1.717  11.993  18.779  0.00  0.00    +0.000 S 
ATOM     23  H   UNL     1       1.085  13.069  18.314  0.00  0.00    +0.000 HD
ENDBRANCH  19  22
BRANCH  20  24
ATOM     24  C   UNL     1      -1.730  10.556  17.452  0.00  0.00    +0.000 C 
BRANCH  24  25
ATOM     25  C   UNL     1      -3.034  11.095  17.985  0.00  0.00    +0.000 A 
ATOM     26  C   UNL     1      -4.255  10.716  17.418  0.00  0.00    +0.000 A 
ATOM     27  C   UNL     1      -5.468  11.152  17.967  0.00  0.00    +0.000 A 
ATOM     28  C   UNL     1      -5.505  11.983  19.100  0.00  0.00    +0.000 A 
ATOM     29  C   UNL     1      -4.269  12.383  19.640  0.00  0.00    +0.000 A 
ATOM     30  C   UNL     1      -3.055  11.946  19.095  0.00  0.00    +0.000 A 
BRANCH  28  31
ATOM     31  C   UNL     1      -6.824  12.423  19.761  0.00  0.00    +0.000 C 
ATOM     32  C   UNL     1      -6.627  13.455  20.896  0.00  0.00    +0.000 C 
ATOM     33  C   UNL     1      -7.743  13.076  18.704  0.00  0.00    +0.000 C 
ATOM     34  C   UNL     1      -7.555  11.209  20.372  0.00  0.00    +0.000 C 
ENDBRANCH  28  31
ENDBRANCH  24  25
ENDBRANCH  20  24
ENDBRANCH   1  18
TORSDOF 10
ENDMDL
MODEL 8
REMARK VINA RESULT:      -7.2      3.422      5.939
REMARK  Name = 
REMARK  16 active torsions:
REMARK  status: ('A' for Active; 'I' for Inactive)
REMARK    1  A    between atoms: C_1  and  C_2
REMARK    2  A    between atoms: C_2  and  C_3
REMARK    3  A    between atoms: C_2  and  O_4
REMARK    4  A    between atoms: O_4  and  C_5
REMARK    5  A    between atoms: C_7  and  C_8
REMARK    6  A    between atoms: C_8  and  N_9
REMARK    7  A    between atoms: C_10  and  S_11
REMARK    8  A    between atoms: N_12  and  C_13
REMARK    9  A    between atoms: C_13  and  C_14
REMARK   10  A    between atoms: C_17  and  C_18
REMARK   11  A    between atoms: C_18  and  C_19
REMARK   12  A    between atoms: C_18  and  C_20
REMARK   13  A    between atoms: C_18  and  C_21
REMARK   14  A    between atoms: C_26  and  N_27
REMARK   15  A    between atoms: N_27  and  S_28
REMARK   16  A    between atoms: S_28  and  C_29
REMARK                            x       y       z     vdW  Elec       q    Type
REMARK                         _______ _______ _______ _____ _____    ______ ____
ROOT
ATOM      1  C   UNL     1       1.463   9.164  20.237  0.00  0.00    +0.000 C 
ENDROOT
BRANCH   1   4
ATOM      2  C   UNL     1       2.952   6.064  18.556  0.00  0.00    +0.000 A 
ATOM      3  C   UNL     1       2.532   7.381  18.824  0.00  0.00    +0.000 A 
ATOM      4  C   UNL     1       1.822   7.720  19.979  0.00  0.00    +0.000 A 
ATOM      5  C   UNL     1       1.510   6.698  20.874  0.00  0.00    +0.000 A 
ATOM      6  C   UNL     1       1.886   5.380  20.604  0.00  0.00    +0.000 A 
ATOM      7  C   UNL     1       2.608   5.041  19.453  0.00  0.00    +0.000 A 
BRANCH   7   8
ATOM      8  N   UNL     1       2.988   3.663  19.363  0.00  0.00    +0.000 N 
ATOM      9  H   UNL     1       3.958   3.440  19.570  0.00  0.00    +0.000 HD
BRANCH   8  10
ATOM     10  S   UNL     1       2.332   2.631  18.215  0.00  0.00    +0.000 S 
ATOM     11  C   UNL     1       0.739   2.252  18.922  0.00  0.00    +0.000 C 
ATOM     12  O   UNL     1       2.131   3.315  16.960  0.00  0.00    +0.000 OA
ATOM     13  O   UNL     1       3.106   1.408  18.308  0.00  0.00    +0.000 OA
ENDBRANCH   8  10
ENDBRANCH   7   8
BRANCH   2  14
ATOM     14  O   UNL     1       3.643   6.035  17.387  0.00  0.00    +0.000 OA
BRANCH  14  16
ATOM     15  C   UNL     1       5.892   5.945  18.091  0.00  0.00    +0.000 C 
ATOM     16  C   UNL     1       4.890   6.686  17.217  0.00  0.00    +0.000 C 
ATOM     17  C   UNL     1       5.243   6.608  15.734  0.00  0.00    +0.000 C 
ENDBRANCH  14  16
ENDBRANCH   2  14
ENDBRANCH   1   4
BRANCH   1  18
ATOM     18  N   UNL     1       0.430   9.652  19.337  0.00  0.00    +0.000 NA
ATOM     19  C   UNL     1       0.483  10.737  18.660  0.00  0.00    +0.000 C 
ATOM     20  N   UNL     1      -0.546  11.188  17.889  0.00  0.00    +0.000 N 
ATOM     21  H   UNL     1      -0.423  12.082  17.436  0.00  0.00    +0.000 HD
BRANCH  19  22
ATOM     22  S   UNL     1       1.842  11.842  18.573  0.00  0.00    +0.000 S 
ATOM     23  H   UNL     1       1.865  12.024  17.253  0.00  0.00    +0.000 HD
ENDBRANCH  19  22
BRANCH  20  24
ATOM     24  C   UNL     1      -1.699  10.418  17.502  0.00  0.00    +0.000 C 
BRANCH  24  25
ATOM     25  C   UNL     1      -2.976  11.119  17.891  0.00  0.00    +0.000 A 
ATOM     26  C   UNL     1      -4.111  11.053  17.076  0.00  0.00    +0.000 A 
ATOM     27  C   UNL     1      -5.320  11.636  17.479  0.00  0.00    +0.000 A 
ATOM     28  C   UNL     1      -5.439  12.305  18.709  0.00  0.00    +0.000 A 
ATOM     29  C   UNL     1      -4.281  12.392  19.504  0.00  0.00    +0.000 A 
ATOM     30  C   UNL     1      -3.071  11.808  19.104  0.00  0.00    +0.000 A 
BRANCH  28  31
ATOM     31  C   UNL     1      -6.771  12.897  19.204  0.00  0.00    +0.000 C 
ATOM     32  C   UNL     1      -7.770  13.201  18.064  0.00  0.00    +0.000 C 
ATOM     33  C   UNL     1      -7.459  11.897  20.161  0.00  0.00    +0.000 C 
ATOM     34  C   UNL     1      -6.527  14.220  19.961  0.00  0.00    +0.000 C 
ENDBRANCH  28  31
ENDBRANCH  24  25
ENDBRANCH  20  24
ENDBRANCH   1  18
TORSDOF 10
ENDMDL
MODEL 9
REMARK VINA RESULT:      -7.2      1.070      1.324
REMARK  Name = 
REMARK  16 active torsions:
REMARK  status: ('A' for Active; 'I' for Inactive)
REMARK    1  A    between atoms: C_1  and  C_2
REMARK    2  A    between atoms: C_2  and  C_3
REMARK    3  A    between atoms: C_2  and  O_4
REMARK    4  A    between atoms: O_4  and  C_5
REMARK    5  A    between atoms: C_7  and  C_8
REMARK    6  A    between atoms: C_8  and  N_9
REMARK    7  A    between atoms: C_10  and  S_11
REMARK    8  A    between atoms: N_12  and  C_13
REMARK    9  A    between atoms: C_13  and  C_14
REMARK   10  A    between atoms: C_17  and  C_18
REMARK   11  A    between atoms: C_18  and  C_19
REMARK   12  A    between atoms: C_18  and  C_20
REMARK   13  A    between atoms: C_18  and  C_21
REMARK   14  A    between atoms: C_26  and  N_27
REMARK   15  A    between atoms: N_27  and  S_28
REMARK   16  A    between atoms: S_28  and  C_29
REMARK                            x       y       z     vdW  Elec       q    Type
REMARK                         _______ _______ _______ _____ _____    ______ ____
ROOT
ATOM      1  C   UNL     1       1.109   8.284  20.996  0.00  0.00    +0.000 C 
ENDROOT
BRANCH   1   4
ATOM      2  C   UNL     1       2.520   5.196  19.228  0.00  0.00    +0.000 A 
ATOM      3  C   UNL     1       1.893   6.048  20.158  0.00  0.00    +0.000 A 
ATOM      4  C   UNL     1       1.858   7.435  19.997  0.00  0.00    +0.000 A 
ATOM      5  C   UNL     1       2.490   7.976  18.878  0.00  0.00    +0.000 A 
ATOM      6  C   UNL     1       3.149   7.148  17.967  0.00  0.00    +0.000 A 
ATOM      7  C   UNL     1       3.175   5.756  18.121  0.00  0.00    +0.000 A 
BRANCH   7   8
ATOM      8  N   UNL     1       3.820   5.043  17.059  0.00  0.00    +0.000 N 
ATOM      9  H   UNL     1       3.589   4.058  16.961  0.00  0.00    +0.000 HD
BRANCH   8  10
ATOM     10  S   UNL     1       5.397   5.374  16.593  0.00  0.00    +0.000 S 
ATOM     11  C   UNL     1       5.883   3.846  15.813  0.00  0.00    +0.000 C 
ATOM     12  O   UNL     1       5.434   6.429  15.608  0.00  0.00    +0.000 OA
ATOM     13  O   UNL     1       6.157   5.447  17.826  0.00  0.00    +0.000 OA
ENDBRANCH   8  10
ENDBRANCH   7   8
BRANCH   2  14
ATOM     14  O   UNL     1       2.373   3.904  19.622  0.00  0.00    +0.000 OA
BRANCH  14  16
ATOM     15  C   UNL     1       2.536   2.536  21.537  0.00  0.00    +0.000 C 
ATOM     16  C   UNL     1       3.321   3.239  20.438  0.00  0.00    +0.000 C 
ATOM     17  C   UNL     1       4.077   2.258  19.546  0.00  0.00    +0.000 C 
ENDBRANCH  14  16
ENDBRANCH   2  14
ENDBRANCH   1   4
BRANCH   1  18
ATOM     18  N   UNL     1       0.438   9.416  20.376  0.00  0.00    +0.000 NA
ATOM     19  C   UNL     1      -0.284  10.280  20.985  0.00  0.00    +0.000 C 
ATOM     20  N   UNL     1      -0.953  11.279  20.345  0.00  0.00    +0.000 N 
ATOM     21  H   UNL     1      -1.538  11.877  20.911  0.00  0.00    +0.000 HD
BRANCH  19  22
ATOM     22  S   UNL     1      -0.561  10.369  22.714  0.00  0.00    +0.000 S 
ATOM     23  H   UNL     1      -1.356  11.438  22.733  0.00  0.00    +0.000 HD
ENDBRANCH  19  22
BRANCH  20  24
ATOM     24  C   UNL     1      -0.743  11.683  18.979  0.00  0.00    +0.000 C 
BRANCH  24  25
ATOM     25  C   UNL     1       0.359  12.707  18.879  0.00  0.00    +0.000 A 
ATOM     26  C   UNL     1       1.666  12.330  18.552  0.00  0.00    +0.000 A 
ATOM     27  C   UNL     1       2.670  13.292  18.378  0.00  0.00    +0.000 A 
ATOM     28  C   UNL     1       2.405  14.664  18.525  0.00  0.00    +0.000 A 
ATOM     29  C   UNL     1       1.095  15.027  18.887  0.00  0.00    +0.000 A 
ATOM     30  C   UNL     1       0.088  14.067  19.058  0.00  0.00    +0.000 A 
BRANCH  28  31
ATOM     31  C   UNL     1       3.474  15.744  18.277  0.00  0.00    +0.000 C 
ATOM     32  C   UNL     1       3.803  16.582  19.534  0.00  0.00    +0.000 C 
ATOM     33  C   UNL     1       4.789  15.078  17.814  0.00  0.00    +0.000 C 
ATOM     34  C   UNL     1       3.004  16.728  17.184  0.00  0.00    +0.000 C 
ENDBRANCH  28  31
ENDBRANCH  24  25
ENDBRANCH  20  24
ENDBRANCH   1  18
TORSDOF 10
ENDMDL
