MODEL 1
REMARK VINA RESULT:      -5.9      0.000      0.000
REMARK  Name = 
REMARK  7 active torsions:
REMARK  status: ('A' for Active; 'I' for Inactive)
REMARK    1  A    between atoms: C_1  and  C_2
REMARK    2  A    between atoms: C_2  and  C_3
REMARK    3  A    between atoms: C_6  and  O_7
REMARK    4  A    between atoms: O_7  and  C_8
REMARK    5  A    between atoms: C_8  and  C_9
REMARK    6  A    between atoms: C_9  and  C_10
REMARK    7  A    between atoms: C_10  and  N_11
REMARK                            x       y       z     vdW  Elec       q    Type
REMARK                         _______ _______ _______ _____ _____    ______ ____
ROOT
ATOM      1  O   UNL     1       3.616   5.991  19.768  0.00  0.00    +0.000 OA
ENDROOT
BRANCH   1   5
ATOM      2  C   UNL     1       6.087   4.785  16.611  0.00  0.00    +0.000 A 
ATOM      3  C   UNL     1       4.804   5.259  16.326  0.00  0.00    +0.000 A 
ATOM      4  C   UNL     1       3.954   5.654  17.356  0.00  0.00    +0.000 A 
ATOM      5  C   UNL     1       4.367   5.589  18.689  0.00  0.00    +0.000 A 
ATOM      6  C   UNL     1       5.642   5.097  18.978  0.00  0.00    +0.000 A 
ATOM      7  C   UNL     1       6.498   4.698  17.948  0.00  0.00    +0.000 A 
BRANCH   2   9
ATOM      8  C   UNL     1       6.241   4.068  14.234  0.00  0.00    +0.000 C 
ATOM      9  C   UNL     1       7.023   4.457  15.479  0.00  0.00    +0.000 C 
ENDBRANCH   2   9
ENDBRANCH   1   5
BRANCH   1  10
ATOM     10  C   UNL     1       2.210   5.862  19.579  0.00  0.00    +0.000 C 
BRANCH  10  11
ATOM     11  C   UNL     1       1.591   4.984  20.656  0.00  0.00    +0.000 C 
BRANCH  11  12
ATOM     12  C   UNL     1       1.072   3.708  20.001  0.00  0.00    +0.000 C 
BRANCH  12  13
ATOM     13  N   UNL     1       2.121   2.904  19.423  0.00  0.00    +0.000 N 
ATOM     14  C   UNL     1       2.206   2.507  18.121  0.00  0.00    +0.000 A 
ATOM     15  C   UNL     1       3.393   1.817  18.042  0.00  0.00    +0.000 A 
ATOM     16  N   UNL     1       4.026   1.797  19.259  0.00  0.00    +0.000 NA
ATOM     17  C   UNL     1       3.238   2.464  20.071  0.00  0.00    +0.000 A 
ENDBRANCH  12  13
ENDBRANCH  11  12
ENDBRANCH  10  11
ENDBRANCH   1  10
TORSDOF 6
ENDMDL
MODEL 2
REMARK VINA RESULT:      -5.8      1.377      1.607
REMARK  Name = 
REMARK  7 active torsions:
REMARK  status: ('A' for Active; 'I' for Inactive)
REMARK    1  A    between atoms: C_1  and  C_2
REMARK    2  A    between atoms: C_2  and  C_3
REMARK    3  A    between atoms: C_6  and  O_7
REMARK    4  A    between atoms: O_7  and  C_8
REMARK    5  A    between atoms: C_8  and  C_9
REMARK    6  A    between atoms: C_9  and  C_10
REMARK    7  A    between atoms: C_10  and  N_11
REMARK                            x       y       z     vdW  Elec       q    Type
REMARK                         _______ _______ _______ _____ _____    ______ ____
ROOT
ATOM      1  O   UNL     1       2.487   6.077  18.275  0.00  0.00    +0.000 OA
ENDROOT
BRANCH   1   5
ATOM      2  C   UNL     1       5.765   5.067  15.875  0.00  0.00    +0.000 A 
ATOM      3  C   UNL     1       4.913   4.055  16.321  0.00  0.00    +0.000 A 
ATOM      4  C   UNL     1       3.822   4.357  17.132  0.00  0.00    +0.000 A 
ATOM      5  C   UNL     1       3.557   5.677  17.511  0.00  0.00    +0.000 A 
ATOM      6  C   UNL     1       4.419   6.689  17.083  0.00  0.00    +0.000 A 
ATOM      7  C   UNL     1       5.516   6.389  16.269  0.00  0.00    +0.000 A 
BRANCH   2   9
ATOM      8  C   UNL     1       6.338   3.977  13.714  0.00  0.00    +0.000 C 
ATOM      9  C   UNL     1       6.879   4.731  14.920  0.00  0.00    +0.000 C 
ENDBRANCH   2   9
ENDBRANCH   1   5
BRANCH   1  10
ATOM     10  C   UNL     1       2.826   6.430  19.613  0.00  0.00    +0.000 C 
BRANCH  10  11
ATOM     11  C   UNL     1       1.772   5.937  20.593  0.00  0.00    +0.000 C 
BRANCH  11  12
ATOM     12  C   UNL     1       2.227   4.596  21.159  0.00  0.00    +0.000 C 
BRANCH  12  13
ATOM     13  N   UNL     1       1.984   3.492  20.262  0.00  0.00    +0.000 N 
ATOM     14  C   UNL     1       0.847   3.279  19.538  0.00  0.00    +0.000 A 
ATOM     15  C   UNL     1       1.109   2.148  18.801  0.00  0.00    +0.000 A 
ATOM     16  N   UNL     1       2.374   1.682  19.057  0.00  0.00    +0.000 NA
ATOM     17  C   UNL     1       2.879   2.515  19.937  0.00  0.00    +0.000 A 
ENDBRANCH  12  13
ENDBRANCH  11  12
ENDBRANCH  10  11
ENDBRANCH   1  10
TORSDOF 6
ENDMDL
MODEL 3
REMARK VINA RESULT:      -5.8      2.473      4.522
REMARK  Name = 
REMARK  7 active torsions:
REMARK  status: ('A' for Active; 'I' for Inactive)
REMARK    1  A    between atoms: C_1  and  C_2
REMARK    2  A    between atoms: C_2  and  C_3
REMARK    3  A    between atoms: C_6  and  O_7
REMARK    4  A    between atoms: O_7  and  C_8
REMARK    5  A    between atoms: C_8  and  C_9
REMARK    6  A    between atoms: C_9  and  C_10
REMARK    7  A    between atoms: C_10  and  N_11
REMARK                            x       y       z     vdW  Elec       q    Type
REMARK                         _______ _______ _______ _____ _____    ______ ____
ROOT
ATOM      1  O   UNL     1       7.443   5.757  15.443  0.00  0.00    +0.000 OA
ENDROOT
BRANCH   1   5
ATOM      2  C   UNL     1       5.908   3.362  12.371  0.00  0.00    +0.000 A 
ATOM      3  C   UNL     1       7.084   4.082  12.148  0.00  0.00    +0.000 A 
ATOM      4  C   UNL     1       7.612   4.899  13.145  0.00  0.00    +0.000 A 
ATOM      5  C   UNL     1       6.980   5.009  14.387  0.00  0.00    +0.000 A 
ATOM      6  C   UNL     1       5.794   4.306  14.607  0.00  0.00    +0.000 A 
ATOM      7  C   UNL     1       5.260   3.486  13.608  0.00  0.00    +0.000 A 
BRANCH   2   9
ATOM      8  C   UNL     1       6.417   1.293  11.087  0.00  0.00    +0.000 C 
ATOM      9  C   UNL     1       5.410   2.411  11.317  0.00  0.00    +0.000 C 
ENDBRANCH   2   9
ENDBRANCH   1   5
BRANCH   1  10
ATOM     10  C   UNL     1       7.290   5.130  16.714  0.00  0.00    +0.000 C 
BRANCH  10  11
ATOM     11  C   UNL     1       6.814   6.124  17.761  0.00  0.00    +0.000 C 
BRANCH  11  12
ATOM     12  C   UNL     1       5.291   6.186  17.713  0.00  0.00    +0.000 C 
BRANCH  12  13
ATOM     13  N   UNL     1       4.662   4.962  18.146  0.00  0.00    +0.000 N 
ATOM     14  C   UNL     1       3.680   4.284  17.486  0.00  0.00    +0.000 A 
ATOM     15  C   UNL     1       3.450   3.167  18.253  0.00  0.00    +0.000 A 
ATOM     16  N   UNL     1       4.273   3.151  19.350  0.00  0.00    +0.000 NA
ATOM     17  C   UNL     1       4.996   4.243  19.257  0.00  0.00    +0.000 A 
ENDBRANCH  12  13
ENDBRANCH  11  12
ENDBRANCH  10  11
ENDBRANCH   1  10
TORSDOF 6
ENDMDL
MODEL 4
REMARK VINA RESULT:      -5.8      2.322      5.250
REMARK  Name = 
REMARK  7 active torsions:
REMARK  status: ('A' for Active; 'I' for Inactive)
REMARK    1  A    between atoms: C_1  and  C_2
REMARK    2  A    between atoms: C_2  and  C_3
REMARK    3  A    between atoms: C_6  and  O_7
REMARK    4  A    between atoms: O_7  and  C_8
REMARK    5  A    between atoms: C_8  and  C_9
REMARK    6  A    between atoms: C_9  and  C_10
REMARK    7  A    between atoms: C_10  and  N_11
REMARK                            x       y       z     vdW  Elec       q    Type
REMARK                         _______ _______ _______ _____ _____    ______ ____
ROOT
ATOM      1  O   UNL     1       2.722   7.129  17.505  0.00  0.00    +0.000 OA
ENDROOT
BRANCH   1   5
ATOM      2  C   UNL     1       1.500   4.135  20.164  0.00  0.00    +0.000 A 
ATOM      3  C   UNL     1       1.444   3.888  18.791  0.00  0.00    +0.000 A 
ATOM      4  C   UNL     1       1.830   4.868  17.881  0.00  0.00    +0.000 A 
ATOM      5  C   UNL     1       2.285   6.114  18.323  0.00  0.00    +0.000 A 
ATOM      6  C   UNL     1       2.323   6.372  19.695  0.00  0.00    +0.000 A 
ATOM      7  C   UNL     1       1.935   5.390  20.612  0.00  0.00    +0.000 A 
BRANCH   2   9
ATOM      8  C   UNL     1       2.447   2.399  21.673  0.00  0.00    +0.000 C 
ATOM      9  C   UNL     1       1.172   3.029  21.131  0.00  0.00    +0.000 C 
ENDBRANCH   2   9
ENDBRANCH   1   5
BRANCH   1  10
ATOM     10  C   UNL     1       4.135   7.310  17.505  0.00  0.00    +0.000 C 
BRANCH  10  11
ATOM     11  C   UNL     1       4.773   6.637  16.299  0.00  0.00    +0.000 C 
BRANCH  11  12
ATOM     12  C   UNL     1       5.355   5.299  16.744  0.00  0.00    +0.000 C 
BRANCH  12  13
ATOM     13  N   UNL     1       6.266   5.420  17.855  0.00  0.00    +0.000 N 
ATOM     14  C   UNL     1       7.490   6.022  17.830  0.00  0.00    +0.000 A 
ATOM     15  C   UNL     1       7.948   5.937  19.124  0.00  0.00    +0.000 A 
ATOM     16  N   UNL     1       7.029   5.308  19.925  0.00  0.00    +0.000 NA
ATOM     17  C   UNL     1       6.024   5.012  19.134  0.00  0.00    +0.000 A 
ENDBRANCH  12  13
ENDBRANCH  11  12
ENDBRANCH  10  11
ENDBRANCH   1  10
TORSDOF 6
ENDMDL
MODEL 5
REMARK VINA RESULT:      -5.8      2.456      4.556
REMARK  Name = 
REMARK  7 active torsions:
REMARK  status: ('A' for Active; 'I' for Inactive)
REMARK    1  A    between atoms: C_1  and  C_2
REMARK    2  A    between atoms: C_2  and  C_3
REMARK    3  A    between atoms: C_6  and  O_7
REMARK    4  A    between atoms: O_7  and  C_8
REMARK    5  A    between atoms: C_8  and  C_9
REMARK    6  A    between atoms: C_9  and  C_10
REMARK    7  A    between atoms: C_10  and  N_11
REMARK                            x       y       z     vdW  Elec       q    Type
REMARK                         _______ _______ _______ _____ _____    ______ ____
ROOT
ATOM      1  O   UNL     1       7.351   5.680  15.940  0.00  0.00    +0.000 OA
ENDROOT
BRANCH   1   5
ATOM      2  C   UNL     1       5.778   3.597  12.668  0.00  0.00    +0.000 A 
ATOM      3  C   UNL     1       7.022   4.219  12.542  0.00  0.00    +0.000 A 
ATOM      4  C   UNL     1       7.565   4.931  13.608  0.00  0.00    +0.000 A 
ATOM      5  C   UNL     1       6.881   5.033  14.822  0.00  0.00    +0.000 A 
ATOM      6  C   UNL     1       5.628   4.429  14.945  0.00  0.00    +0.000 A 
ATOM      7  C   UNL     1       5.078   3.714  13.876  0.00  0.00    +0.000 A 
BRANCH   2   9
ATOM      8  C   UNL     1       3.880   3.233  11.102  0.00  0.00    +0.000 C 
ATOM      9  C   UNL     1       5.255   2.750  11.538  0.00  0.00    +0.000 C 
ENDBRANCH   2   9
ENDBRANCH   1   5
BRANCH   1  10
ATOM     10  C   UNL     1       7.296   4.901  17.132  0.00  0.00    +0.000 C 
BRANCH  10  11
ATOM     11  C   UNL     1       7.482   5.772  18.364  0.00  0.00    +0.000 C 
BRANCH  11  12
ATOM     12  C   UNL     1       6.357   5.465  19.348  0.00  0.00    +0.000 C 
BRANCH  12  13
ATOM     13  N   UNL     1       5.130   5.075  18.698  0.00  0.00    +0.000 N 
ATOM     14  C   UNL     1       4.614   3.813  18.644  0.00  0.00    +0.000 A 
ATOM     15  C   UNL     1       3.420   3.952  17.976  0.00  0.00    +0.000 A 
ATOM     16  N   UNL     1       3.203   5.263  17.635  0.00  0.00    +0.000 NA
ATOM     17  C   UNL     1       4.247   5.917  18.087  0.00  0.00    +0.000 A 
ENDBRANCH  12  13
ENDBRANCH  11  12
ENDBRANCH  10  11
ENDBRANCH   1  10
TORSDOF 6
ENDMDL
MODEL 6
REMARK VINA RESULT:      -5.7      2.427      3.534
REMARK  Name = 
REMARK  7 active torsions:
REMARK  status: ('A' for Active; 'I' for Inactive)
REMARK    1  A    between atoms: C_1  and  C_2
REMARK    2  A    between atoms: C_2  and  C_3
REMARK    3  A    between atoms: C_6  and  O_7
REMARK    4  A    between atoms: O_7  and  C_8
REMARK    5  A    between atoms: C_8  and  C_9
REMARK    6  A    between atoms: C_9  and  C_10
REMARK    7  A    between atoms: C_10  and  N_11
REMARK                            x       y       z     vdW  Elec       q    Type
REMARK                         _______ _______ _______ _____ _____    ______ ____
ROOT
ATOM      1  O   UNL     1       5.260   4.012  18.097  0.00  0.00    +0.000 OA
ENDROOT
BRANCH   1   5
ATOM      2  C   UNL     1       7.391   7.600  17.757  0.00  0.00    +0.000 A 
ATOM      3  C   UNL     1       7.904   6.579  18.561  0.00  0.00    +0.000 A 
ATOM      4  C   UNL     1       7.212   5.380  18.705  0.00  0.00    +0.000 A 
ATOM      5  C   UNL     1       5.996   5.172  18.047  0.00  0.00    +0.000 A 
ATOM      6  C   UNL     1       5.471   6.199  17.259  0.00  0.00    +0.000 A 
ATOM      7  C   UNL     1       6.163   7.405  17.112  0.00  0.00    +0.000 A 
BRANCH   2   9
ATOM      8  C   UNL     1       8.816   9.325  18.845  0.00  0.00    +0.000 C 
ATOM      9  C   UNL     1       8.203   8.848  17.537  0.00  0.00    +0.000 C 
ENDBRANCH   2   9
ENDBRANCH   1   5
BRANCH   1  10
ATOM     10  C   UNL     1       3.850   4.215  18.080  0.00  0.00    +0.000 C 
BRANCH  10  11
ATOM     11  C   UNL     1       3.132   3.018  17.476  0.00  0.00    +0.000 C 
BRANCH  11  12
ATOM     12  C   UNL     1       3.117   1.893  18.505  0.00  0.00    +0.000 C 
BRANCH  12  13
ATOM     13  N   UNL     1       2.594   2.305  19.785  0.00  0.00    +0.000 N 
ATOM     14  C   UNL     1       1.289   2.584  20.068  0.00  0.00    +0.000 A 
ATOM     15  C   UNL     1       1.278   2.872  21.413  0.00  0.00    +0.000 A 
ATOM     16  N   UNL     1       2.538   2.765  21.945  0.00  0.00    +0.000 NA
ATOM     17  C   UNL     1       3.310   2.417  20.941  0.00  0.00    +0.000 A 
ENDBRANCH  12  13
ENDBRANCH  11  12
ENDBRANCH  10  11
ENDBRANCH   1  10
TORSDOF 6
ENDMDL
MODEL 7
REMARK VINA RESULT:      -5.7      2.699      5.775
REMARK  Name = 
REMARK  7 active torsions:
REMARK  status: ('A' for Active; 'I' for Inactive)
REMARK    1  A    between atoms: C_1  and  C_2
REMARK    2  A    between atoms: C_2  and  C_3
REMARK    3  A    between atoms: C_6  and  O_7
REMARK    4  A    between atoms: O_7  and  C_8
REMARK    5  A    between atoms: C_8  and  C_9
REMARK    6  A    between atoms: C_9  and  C_10
REMARK    7  A    between atoms: C_10  and  N_11
REMARK                            x       y       z     vdW  Elec       q    Type
REMARK                         _______ _______ _______ _____ _____    ______ ____
ROOT
ATOM      1  O   UNL     1       5.008   3.436  16.499  0.00  0.00    +0.000 OA
ENDROOT
BRANCH   1   5
ATOM      2  C   UNL     1       2.058   3.487  19.469  0.00  0.00    +0.000 A 
ATOM      3  C   UNL     1       3.402   3.466  19.848  0.00  0.00    +0.000 A 
ATOM      4  C   UNL     1       4.406   3.434  18.884  0.00  0.00    +0.000 A 
ATOM      5  C   UNL     1       4.089   3.429  17.522  0.00  0.00    +0.000 A 
ATOM      6  C   UNL     1       2.746   3.429  17.140  0.00  0.00    +0.000 A 
ATOM      7  C   UNL     1       1.735   3.460  18.106  0.00  0.00    +0.000 A 
BRANCH   2   9
ATOM      8  C   UNL     1       1.289   2.704  21.702  0.00  0.00    +0.000 C 
ATOM      9  C   UNL     1       0.992   3.621  20.524  0.00  0.00    +0.000 C 
ENDBRANCH   2   9
ENDBRANCH   1   5
BRANCH   1  10
ATOM     10  C   UNL     1       4.674   4.307  15.422  0.00  0.00    +0.000 C 
BRANCH  10  11
ATOM     11  C   UNL     1       5.340   5.664  15.588  0.00  0.00    +0.000 C 
BRANCH  11  12
ATOM     12  C   UNL     1       6.848   5.454  15.693  0.00  0.00    +0.000 C 
BRANCH  12  13
ATOM     13  N   UNL     1       7.349   5.616  17.036  0.00  0.00    +0.000 N 
ATOM     14  C   UNL     1       7.475   6.795  17.710  0.00  0.00    +0.000 A 
ATOM     15  C   UNL     1       7.936   6.437  18.955  0.00  0.00    +0.000 A 
ATOM     16  N   UNL     1       8.082   5.076  19.048  0.00  0.00    +0.000 NA
ATOM     17  C   UNL     1       7.716   4.607  17.878  0.00  0.00    +0.000 A 
ENDBRANCH  12  13
ENDBRANCH  11  12
ENDBRANCH  10  11
ENDBRANCH   1  10
TORSDOF 6
ENDMDL
MODEL 8
REMARK VINA RESULT:      -5.7      2.539      4.763
REMARK  Name = 
REMARK  7 active torsions:
REMARK  status: ('A' for Active; 'I' for Inactive)
REMARK    1  A    between atoms: C_1  and  C_2
REMARK    2  A    between atoms: C_2  and  C_3
REMARK    3  A    between atoms: C_6  and  O_7
REMARK    4  A    between atoms: O_7  and  C_8
REMARK    5  A    between atoms: C_8  and  C_9
REMARK    6  A    between atoms: C_9  and  C_10
REMARK    7  A    between atoms: C_10  and  N_11
REMARK                            x       y       z     vdW  Elec       q    Type
REMARK                         _______ _______ _______ _____ _____    ______ ____
ROOT
ATOM      1  O   UNL     1       7.437   5.796  15.394  0.00  0.00    +0.000 OA
ENDROOT
BRANCH   1   5
ATOM      2  C   UNL     1       5.914   3.345  12.361  0.00  0.00    +0.000 A 
ATOM      3  C   UNL     1       7.099   4.048  12.134  0.00  0.00    +0.000 A 
ATOM      4  C   UNL     1       7.623   4.883  13.118  0.00  0.00    +0.000 A 
ATOM      5  C   UNL     1       6.978   5.028  14.350  0.00  0.00    +0.000 A 
ATOM      6  C   UNL     1       5.783   4.342  14.572  0.00  0.00    +0.000 A 
ATOM      7  C   UNL     1       5.252   3.504  13.586  0.00  0.00    +0.000 A 
BRANCH   2   9
ATOM      8  C   UNL     1       6.439   1.270  11.094  0.00  0.00    +0.000 C 
ATOM      9  C   UNL     1       5.418   2.374  11.323  0.00  0.00    +0.000 C 
ENDBRANCH   2   9
ENDBRANCH   1   5
BRANCH   1  10
ATOM     10  C   UNL     1       7.292   5.187  16.674  0.00  0.00    +0.000 C 
BRANCH  10  11
ATOM     11  C   UNL     1       6.834   6.198  17.713  0.00  0.00    +0.000 C 
BRANCH  11  12
ATOM     12  C   UNL     1       5.374   6.546  17.439  0.00  0.00    +0.000 C 
BRANCH  12  13
ATOM     13  N   UNL     1       4.449   5.633  18.066  0.00  0.00    +0.000 N 
ATOM     14  C   UNL     1       4.337   5.394  19.404  0.00  0.00    +0.000 A 
ATOM     15  C   UNL     1       3.295   4.504  19.513  0.00  0.00    +0.000 A 
ATOM     16  N   UNL     1       2.773   4.211  18.279  0.00  0.00    +0.000 NA
ATOM     17  C   UNL     1       3.485   4.909  17.426  0.00  0.00    +0.000 A 
ENDBRANCH  12  13
ENDBRANCH  11  12
ENDBRANCH  10  11
ENDBRANCH   1  10
TORSDOF 6
ENDMDL
MODEL 9
REMARK VINA RESULT:      -5.7      2.350      3.295
REMARK  Name = 
REMARK  7 active torsions:
REMARK  status: ('A' for Active; 'I' for Inactive)
REMARK    1  A    between atoms: C_1  and  C_2
REMARK    2  A    between atoms: C_2  and  C_3
REMARK    3  A    between atoms: C_6  and  O_7
REMARK    4  A    between atoms: O_7  and  C_8
REMARK    5  A    between atoms: C_8  and  C_9
REMARK    6  A    between atoms: C_9  and  C_10
REMARK    7  A    between atoms: C_10  and  N_11
REMARK                            x       y       z     vdW  Elec       q    Type
REMARK                         _______ _______ _______ _____ _____    ______ ____
ROOT
ATOM      1  O   UNL     1       5.165   3.862  17.684  0.00  0.00    +0.000 OA
ENDROOT
BRANCH   1   5
ATOM      2  C   UNL     1       7.706   7.141  18.250  0.00  0.00    +0.000 A 
ATOM      3  C   UNL     1       6.664   7.241  17.325  0.00  0.00    +0.000 A 
ATOM      4  C   UNL     1       5.811   6.163  17.104  0.00  0.00    +0.000 A 
ATOM      5  C   UNL     1       5.977   4.965  17.805  0.00  0.00    +0.000 A 
ATOM      6  C   UNL     1       7.030   4.855  18.715  0.00  0.00    +0.000 A 
ATOM      7  C   UNL     1       7.889   5.935  18.939  0.00  0.00    +0.000 A 
BRANCH   2   9
ATOM      8  C   UNL     1       8.104   9.535  17.703  0.00  0.00    +0.000 C 
ATOM      9  C   UNL     1       8.553   8.349  18.544  0.00  0.00    +0.000 C 
ENDBRANCH   2   9
ENDBRANCH   1   5
BRANCH   1  10
ATOM     10  C   UNL     1       4.069   4.039  16.792  0.00  0.00    +0.000 C 
BRANCH  10  11
ATOM     11  C   UNL     1       2.750   3.714  17.474  0.00  0.00    +0.000 C 
BRANCH  11  12
ATOM     12  C   UNL     1       2.930   2.439  18.293  0.00  0.00    +0.000 C 
BRANCH  12  13
ATOM     13  N   UNL     1       2.529   2.592  19.670  0.00  0.00    +0.000 N 
ATOM     14  C   UNL     1       1.250   2.733  20.125  0.00  0.00    +0.000 A 
ATOM     15  C   UNL     1       1.370   2.786  21.494  0.00  0.00    +0.000 A 
ATOM     16  N   UNL     1       2.684   2.673  21.872  0.00  0.00    +0.000 NA
ATOM     17  C   UNL     1       3.359   2.553  20.752  0.00  0.00    +0.000 A 
ENDBRANCH  12  13
ENDBRANCH  11  12
ENDBRANCH  10  11
ENDBRANCH   1  10
TORSDOF 6
ENDMDL
