MODEL 1
REMARK VINA RESULT:      -8.7      0.000      0.000
REMARK  Name = 
REMARK  4 active torsions:
REMARK  status: ('A' for Active; 'I' for Inactive)
REMARK    1  A    between atoms: C_1  and  S_2
REMARK    2  A    between atoms: S_2  and  N_5
REMARK    3  A    between atoms: C_13  and  C_14
REMARK    4  A    between atoms: C_19  and  C_20
REMARK                            x       y       z     vdW  Elec       q    Type
REMARK                         _______ _______ _______ _____ _____    ______ ____
ROOT
ATOM      1  N   UNL     1       2.975   4.858  19.256  0.00  0.00    +0.000 N 
ATOM      2  C   UNL     1       4.445   4.638  19.307  0.00  0.00    +0.000 C 
ATOM      3  C   UNL     1       5.177   4.816  17.972  0.00  0.00    +0.000 C 
ATOM      4  C   UNL     1       5.046   6.185  17.304  0.00  0.00    +0.000 C 
ATOM      5  C   UNL     1       3.606   6.551  16.967  0.00  0.00    +0.000 C 
ATOM      6  C   UNL     1       2.901   7.060  18.197  0.00  0.00    +0.000 A 
ATOM      7  C   UNL     1       2.593   8.420  18.239  0.00  0.00    +0.000 A 
ATOM      8  C   UNL     1       1.879   8.936  19.328  0.00  0.00    +0.000 A 
ATOM      9  C   UNL     1       0.964  10.013  19.454  0.00  0.00    +0.000 A 
ATOM     10  C   UNL     1       0.660  10.109  20.801  0.00  0.00    +0.000 A 
ATOM     11  O   UNL     1       0.954   8.884  21.382  0.00  0.00    +0.000 OA
ATOM     12  C   UNL     1       1.599   8.127  20.417  0.00  0.00    +0.000 A 
ATOM     13  C   UNL     1       1.901   6.755  20.425  0.00  0.00    +0.000 A 
ATOM     14  C   UNL     1       2.551   6.234  19.277  0.00  0.00    +0.000 A 
ENDROOT
BRANCH  10  15
ATOM     15  C   UNL     1      -0.142  11.100  21.531  0.00  0.00    +0.000 A 
ATOM     16  C   UNL     1       0.107  12.475  21.459  0.00  0.00    +0.000 A 
ATOM     17  C   UNL     1      -0.581  13.363  22.300  0.00  0.00    +0.000 A 
ATOM     18  C   UNL     1      -1.527  12.885  23.204  0.00  0.00    +0.000 A 
ATOM     19  F   UNL     1      -2.162  13.742  24.015  0.00  0.00    +0.000 F 
ATOM     20  C   UNL     1      -1.806  11.531  23.285  0.00  0.00    +0.000 A 
ATOM     21  C   UNL     1      -1.118  10.646  22.447  0.00  0.00    +0.000 A 
ENDBRANCH  10  15
BRANCH   9  22
ATOM     22  C   UNL     1       0.104  10.393  18.358  0.00  0.00    +0.000 C 
ATOM     23  N   UNL     1      -0.932   9.667  18.030  0.00  0.00    +0.000 NA
ATOM     24  C   UNL     1      -1.911  10.715  17.593  0.00  0.00    +0.000 C 
ATOM     25  C   UNL     1      -1.326  12.053  18.077  0.00  0.00    +0.000 C 
ATOM     26  N   UNL     1       0.083  11.730  18.050  0.00  0.00    +0.000 N 
ATOM     27  H   UNL     1       0.655  12.338  18.623  0.00  0.00    +0.000 HD
ENDBRANCH   9  22
BRANCH   1  29
ATOM     28  C   UNL     1       0.907   3.240  19.822  0.00  0.00    +0.000 C 
ATOM     29  S   UNL     1       1.991   3.698  18.478  0.00  0.00    +0.000 S 
ATOM     30  O   UNL     1       2.786   2.518  18.186  0.00  0.00    +0.000 OA
ATOM     31  O   UNL     1       1.173   4.334  17.471  0.00  0.00    +0.000 OA
ENDBRANCH   1  29
TORSDOF 3
ENDMDL
MODEL 2
REMARK VINA RESULT:      -8.7      0.755      1.215
REMARK  Name = 
REMARK  4 active torsions:
REMARK  status: ('A' for Active; 'I' for Inactive)
REMARK    1  A    between atoms: C_1  and  S_2
REMARK    2  A    between atoms: S_2  and  N_5
REMARK    3  A    between atoms: C_13  and  C_14
REMARK    4  A    between atoms: C_19  and  C_20
REMARK                            x       y       z     vdW  Elec       q    Type
REMARK                         _______ _______ _______ _____ _____    ______ ____
ROOT
ATOM      1  N   UNL     1       2.748   4.864  19.562  0.00  0.00    +0.000 N 
ATOM      2  C   UNL     1       4.219   4.644  19.528  0.00  0.00    +0.000 C 
ATOM      3  C   UNL     1       4.869   4.805  18.148  0.00  0.00    +0.000 C 
ATOM      4  C   UNL     1       4.699   6.166  17.474  0.00  0.00    +0.000 C 
ATOM      5  C   UNL     1       3.241   6.529  17.219  0.00  0.00    +0.000 C 
ATOM      6  C   UNL     1       2.611   7.053  18.484  0.00  0.00    +0.000 A 
ATOM      7  C   UNL     1       2.307   8.414  18.527  0.00  0.00    +0.000 A 
ATOM      8  C   UNL     1       1.660   8.944  19.651  0.00  0.00    +0.000 A 
ATOM      9  C   UNL     1       0.754  10.023  19.819  0.00  0.00    +0.000 A 
ATOM     10  C   UNL     1       0.532  10.136  21.181  0.00  0.00    +0.000 A 
ATOM     11  O   UNL     1       0.860   8.918  21.758  0.00  0.00    +0.000 OA
ATOM     12  C   UNL     1       1.446   8.148  20.765  0.00  0.00    +0.000 A 
ATOM     13  C   UNL     1       1.747   6.776  20.771  0.00  0.00    +0.000 A 
ATOM     14  C   UNL     1       2.328   6.241  19.592  0.00  0.00    +0.000 A 
ENDROOT
BRANCH  10  15
ATOM     15  C   UNL     1      -0.224  11.136  21.946  0.00  0.00    +0.000 A 
ATOM     16  C   UNL     1      -1.248  10.792  22.834  0.00  0.00    +0.000 A 
ATOM     17  C   UNL     1      -2.046  11.791  23.415  0.00  0.00    +0.000 A 
ATOM     18  C   UNL     1      -1.817  13.133  23.122  0.00  0.00    +0.000 A 
ATOM     19  F   UNL     1      -2.597  14.075  23.667  0.00  0.00    +0.000 F 
ATOM     20  C   UNL     1      -0.798  13.503  22.259  0.00  0.00    +0.000 A 
ATOM     21  C   UNL     1      -0.005  12.507  21.679  0.00  0.00    +0.000 A 
ENDBRANCH  10  15
BRANCH   9  22
ATOM     22  C   UNL     1      -0.170  10.391  18.773  0.00  0.00    +0.000 C 
ATOM     23  N   UNL     1      -1.407   9.969  18.786  0.00  0.00    +0.000 NA
ATOM     24  C   UNL     1      -2.133  11.141  18.197  0.00  0.00    +0.000 C 
ATOM     25  C   UNL     1      -1.126  12.303  18.217  0.00  0.00    +0.000 C 
ATOM     26  N   UNL     1       0.110  11.560  18.111  0.00  0.00    +0.000 N 
ATOM     27  H   UNL     1       0.926  12.074  18.420  0.00  0.00    +0.000 HD
ENDBRANCH   9  22
BRANCH   1  29
ATOM     28  C   UNL     1       2.765   2.251  18.942  0.00  0.00    +0.000 C 
ATOM     29  S   UNL     1       1.719   3.696  18.859  0.00  0.00    +0.000 S 
ATOM     30  O   UNL     1       1.559   3.993  17.446  0.00  0.00    +0.000 OA
ATOM     31  O   UNL     1       0.585   3.450  19.719  0.00  0.00    +0.000 OA
ENDBRANCH   1  29
TORSDOF 3
ENDMDL
MODEL 3
REMARK VINA RESULT:      -8.6      3.816      8.282
REMARK  Name = 
REMARK  4 active torsions:
REMARK  status: ('A' for Active; 'I' for Inactive)
REMARK    1  A    between atoms: C_1  and  S_2
REMARK    2  A    between atoms: S_2  and  N_5
REMARK    3  A    between atoms: C_13  and  C_14
REMARK    4  A    between atoms: C_19  and  C_20
REMARK                            x       y       z     vdW  Elec       q    Type
REMARK                         _______ _______ _______ _____ _____    ______ ____
ROOT
ATOM      1  N   UNL     1      -0.814  11.154  18.579  0.00  0.00    +0.000 N 
ATOM      2  C   UNL     1      -0.589  12.429  19.310  0.00  0.00    +0.000 C 
ATOM      3  C   UNL     1      -1.117  12.456  20.749  0.00  0.00    +0.000 C 
ATOM      4  C   UNL     1      -0.553  11.399  21.698  0.00  0.00    +0.000 C 
ATOM      5  C   UNL     1      -0.841   9.973  21.245  0.00  0.00    +0.000 C 
ATOM      6  C   UNL     1       0.137   9.564  20.174  0.00  0.00    +0.000 A 
ATOM      7  C   UNL     1       1.097   8.611  20.517  0.00  0.00    +0.000 A 
ATOM      8  C   UNL     1       1.989   8.145  19.543  0.00  0.00    +0.000 A 
ATOM      9  C   UNL     1       2.645   6.901  19.357  0.00  0.00    +0.000 A 
ATOM     10  C   UNL     1       3.487   7.063  18.270  0.00  0.00    +0.000 A 
ATOM     11  O   UNL     1       3.014   8.141  17.536  0.00  0.00    +0.000 OA
ATOM     12  C   UNL     1       2.005   8.725  18.284  0.00  0.00    +0.000 A 
ATOM     13  C   UNL     1       1.066   9.695  17.899  0.00  0.00    +0.000 A 
ATOM     14  C   UNL     1       0.118  10.096  18.875  0.00  0.00    +0.000 A 
ENDROOT
BRANCH  10  15
ATOM     15  C   UNL     1       4.485   6.154  17.690  0.00  0.00    +0.000 A 
ATOM     16  C   UNL     1       5.306   5.335  18.473  0.00  0.00    +0.000 A 
ATOM     17  C   UNL     1       6.351   4.610  17.880  0.00  0.00    +0.000 A 
ATOM     18  C   UNL     1       6.572   4.688  16.508  0.00  0.00    +0.000 A 
ATOM     19  F   UNL     1       7.586   4.006  15.958  0.00  0.00    +0.000 F 
ATOM     20  C   UNL     1       5.764   5.478  15.707  0.00  0.00    +0.000 A 
ATOM     21  C   UNL     1       4.723   6.203  16.298  0.00  0.00    +0.000 A 
ENDBRANCH  10  15
BRANCH   9  22
ATOM     22  C   UNL     1       2.033   5.664  19.781  0.00  0.00    +0.000 C 
ATOM     23  N   UNL     1       1.502   4.842  18.915  0.00  0.00    +0.000 NA
ATOM     24  C   UNL     1       1.810   3.511  19.532  0.00  0.00    +0.000 C 
ATOM     25  C   UNL     1       2.851   3.795  20.627  0.00  0.00    +0.000 C 
ATOM     26  N   UNL     1       2.484   5.150  20.971  0.00  0.00    +0.000 N 
ATOM     27  H   UNL     1       3.215   5.668  21.442  0.00  0.00    +0.000 HD
ENDBRANCH   9  22
BRANCH   1  29
ATOM     28  C   UNL     1      -2.304  11.154  16.345  0.00  0.00    +0.000 C 
ATOM     29  S   UNL     1      -2.398  10.751  18.083  0.00  0.00    +0.000 S 
ATOM     30  O   UNL     1      -3.333  11.699  18.663  0.00  0.00    +0.000 OA
ATOM     31  O   UNL     1      -2.602   9.324  18.178  0.00  0.00    +0.000 OA
ENDBRANCH   1  29
TORSDOF 3
ENDMDL
MODEL 4
REMARK VINA RESULT:      -8.6      3.877      8.356
REMARK  Name = 
REMARK  4 active torsions:
REMARK  status: ('A' for Active; 'I' for Inactive)
REMARK    1  A    between atoms: C_1  and  S_2
REMARK    2  A    between atoms: S_2  and  N_5
REMARK    3  A    between atoms: C_13  and  C_14
REMARK    4  A    between atoms: C_19  and  C_20
REMARK                            x       y       z     vdW  Elec       q    Type
REMARK                         _______ _______ _______ _____ _____    ______ ____
ROOT
ATOM      1  N   UNL     1      -0.143  11.080  19.545  0.00  0.00    +0.000 N 
ATOM      2  C   UNL     1       0.196  12.010  20.656  0.00  0.00    +0.000 C 
ATOM      3  C   UNL     1      -0.386  11.630  22.022  0.00  0.00    +0.000 C 
ATOM      4  C   UNL     1       0.012  10.261  22.572  0.00  0.00    +0.000 C 
ATOM      5  C   UNL     1      -0.420   9.108  21.675  0.00  0.00    +0.000 C 
ATOM      6  C   UNL     1       0.549   8.953  20.531  0.00  0.00    +0.000 A 
ATOM      7  C   UNL     1       1.377   7.830  20.544  0.00  0.00    +0.000 A 
ATOM      8  C   UNL     1       2.249   7.600  19.473  0.00  0.00    +0.000 A 
ATOM      9  C   UNL     1       2.764   6.414  18.889  0.00  0.00    +0.000 A 
ATOM     10  C   UNL     1       3.664   6.816  17.918  0.00  0.00    +0.000 A 
ATOM     11  O   UNL     1       3.352   8.124  17.578  0.00  0.00    +0.000 OA
ATOM     12  C   UNL     1       2.386   8.552  18.475  0.00  0.00    +0.000 A 
ATOM     13  C   UNL     1       1.582   9.703  18.428  0.00  0.00    +0.000 A 
ATOM     14  C   UNL     1       0.646   9.877  19.479  0.00  0.00    +0.000 A 
ENDROOT
BRANCH  10  15
ATOM     15  C   UNL     1       4.575   6.031  17.074  0.00  0.00    +0.000 A 
ATOM     16  C   UNL     1       4.934   6.423  15.781  0.00  0.00    +0.000 A 
ATOM     17  C   UNL     1       5.674   5.558  14.959  0.00  0.00    +0.000 A 
ATOM     18  C   UNL     1       6.067   4.308  15.429  0.00  0.00    +0.000 A 
ATOM     19  F   UNL     1       6.756   3.484  14.627  0.00  0.00    +0.000 F 
ATOM     20  C   UNL     1       5.740   3.900  16.711  0.00  0.00    +0.000 A 
ATOM     21  C   UNL     1       5.001   4.761  17.529  0.00  0.00    +0.000 A 
ENDBRANCH  10  15
BRANCH   9  22
ATOM     22  C   UNL     1       1.996   5.191  18.883  0.00  0.00    +0.000 C 
ATOM     23  N   UNL     1       1.557   4.677  17.765  0.00  0.00    +0.000 NA
ATOM     24  C   UNL     1       1.654   3.208  18.049  0.00  0.00    +0.000 C 
ATOM     25  C   UNL     1       2.513   3.089  19.318  0.00  0.00    +0.000 C 
ATOM     26  N   UNL     1       2.198   4.351  19.948  0.00  0.00    +0.000 N 
ATOM     27  H   UNL     1       2.876   4.647  20.639  0.00  0.00    +0.000 HD
ENDBRANCH   9  22
BRANCH   1  29
ATOM     28  C   UNL     1      -1.540  12.043  17.463  0.00  0.00    +0.000 C 
ATOM     29  S   UNL     1      -1.740  11.059  18.941  0.00  0.00    +0.000 S 
ATOM     30  O   UNL     1      -2.593  11.836  19.824  0.00  0.00    +0.000 OA
ATOM     31  O   UNL     1      -2.096   9.725  18.518  0.00  0.00    +0.000 OA
ENDBRANCH   1  29
TORSDOF 3
ENDMDL
MODEL 5
REMARK VINA RESULT:      -8.3      2.955      4.214
REMARK  Name = 
REMARK  4 active torsions:
REMARK  status: ('A' for Active; 'I' for Inactive)
REMARK    1  A    between atoms: C_1  and  S_2
REMARK    2  A    between atoms: S_2  and  N_5
REMARK    3  A    between atoms: C_13  and  C_14
REMARK    4  A    between atoms: C_19  and  C_20
REMARK                            x       y       z     vdW  Elec       q    Type
REMARK                         _______ _______ _______ _____ _____    ______ ____
ROOT
ATOM      1  N   UNL     1       5.551   5.481  17.204  0.00  0.00    +0.000 N 
ATOM      2  C   UNL     1       5.262   4.428  16.195  0.00  0.00    +0.000 C 
ATOM      3  C   UNL     1       4.785   3.089  16.769  0.00  0.00    +0.000 C 
ATOM      4  C   UNL     1       3.511   3.129  17.614  0.00  0.00    +0.000 C 
ATOM      5  C   UNL     1       3.639   4.014  18.847  0.00  0.00    +0.000 C 
ATOM      6  C   UNL     1       3.457   5.461  18.466  0.00  0.00    +0.000 A 
ATOM      7  C   UNL     1       2.284   6.088  18.888  0.00  0.00    +0.000 A 
ATOM      8  C   UNL     1       2.092   7.449  18.620  0.00  0.00    +0.000 A 
ATOM      9  C   UNL     1       1.396   8.476  19.308  0.00  0.00    +0.000 A 
ATOM     10  C   UNL     1       1.471   9.602  18.507  0.00  0.00    +0.000 A 
ATOM     11  O   UNL     1       2.549   9.432  17.651  0.00  0.00    +0.000 OA
ATOM     12  C   UNL     1       2.997   8.132  17.824  0.00  0.00    +0.000 A 
ATOM     13  C   UNL     1       4.185   7.538  17.366  0.00  0.00    +0.000 A 
ATOM     14  C   UNL     1       4.401   6.181  17.718  0.00  0.00    +0.000 A 
ENDROOT
BRANCH  10  15
ATOM     15  C   UNL     1       0.845  10.923  18.654  0.00  0.00    +0.000 A 
ATOM     16  C   UNL     1      -0.540  11.113  18.603  0.00  0.00    +0.000 A 
ATOM     17  C   UNL     1      -1.076  12.410  18.585  0.00  0.00    +0.000 A 
ATOM     18  C   UNL     1      -0.235  13.519  18.632  0.00  0.00    +0.000 A 
ATOM     19  F   UNL     1      -0.758  14.752  18.594  0.00  0.00    +0.000 F 
ATOM     20  C   UNL     1       1.139  13.360  18.700  0.00  0.00    +0.000 A 
ATOM     21  C   UNL     1       1.673  12.067  18.716  0.00  0.00    +0.000 A 
ENDBRANCH  10  15
BRANCH   9  22
ATOM     22  C   UNL     1       1.278   8.462  20.747  0.00  0.00    +0.000 C 
ATOM     23  N   UNL     1       1.874   9.364  21.481  0.00  0.00    +0.000 NA
ATOM     24  C   UNL     1       0.890   9.545  22.598  0.00  0.00    +0.000 C 
ATOM     25  C   UNL     1      -0.404   8.864  22.121  0.00  0.00    +0.000 C 
ATOM     26  N   UNL     1       0.156   7.855  21.250  0.00  0.00    +0.000 N 
ATOM     27  H   UNL     1      -0.502   7.483  20.576  0.00  0.00    +0.000 HD
ENDBRANCH   9  22
BRANCH   1  29
ATOM     28  C   UNL     1       7.624   6.969  18.042  0.00  0.00    +0.000 C 
ATOM     29  S   UNL     1       6.937   5.326  18.190  0.00  0.00    +0.000 S 
ATOM     30  O   UNL     1       7.884   4.437  17.541  0.00  0.00    +0.000 OA
ATOM     31  O   UNL     1       6.550   5.151  19.571  0.00  0.00    +0.000 OA
ENDBRANCH   1  29
TORSDOF 3
ENDMDL
MODEL 6
REMARK VINA RESULT:      -7.9      3.927      8.361
REMARK  Name = 
REMARK  4 active torsions:
REMARK  status: ('A' for Active; 'I' for Inactive)
REMARK    1  A    between atoms: C_1  and  S_2
REMARK    2  A    between atoms: S_2  and  N_5
REMARK    3  A    between atoms: C_13  and  C_14
REMARK    4  A    between atoms: C_19  and  C_20
REMARK                            x       y       z     vdW  Elec       q    Type
REMARK                         _______ _______ _______ _____ _____    ______ ____
ROOT
ATOM      1  N   UNL     1       0.035  11.362  19.191  0.00  0.00    +0.000 N 
ATOM      2  C   UNL     1       0.406  12.330  20.258  0.00  0.00    +0.000 C 
ATOM      3  C   UNL     1      -0.219  12.055  21.631  0.00  0.00    +0.000 C 
ATOM      4  C   UNL     1       0.096  10.698  22.259  0.00  0.00    +0.000 C 
ATOM      5  C   UNL     1      -0.382   9.523  21.415  0.00  0.00    +0.000 C 
ATOM      6  C   UNL     1       0.596   9.257  20.300  0.00  0.00    +0.000 A 
ATOM      7  C   UNL     1       1.362   8.094  20.387  0.00  0.00    +0.000 A 
ATOM      8  C   UNL     1       2.239   7.762  19.347  0.00  0.00    +0.000 A 
ATOM      9  C   UNL     1       2.699   6.520  18.836  0.00  0.00    +0.000 A 
ATOM     10  C   UNL     1       3.635   6.823  17.863  0.00  0.00    +0.000 A 
ATOM     11  O   UNL     1       3.399   8.126  17.449  0.00  0.00    +0.000 OA
ATOM     12  C   UNL     1       2.442   8.651  18.303  0.00  0.00    +0.000 A 
ATOM     13  C   UNL     1       1.702   9.838  18.180  0.00  0.00    +0.000 A 
ATOM     14  C   UNL     1       0.760  10.117  19.203  0.00  0.00    +0.000 A 
ENDROOT
BRANCH  10  15
ATOM     15  C   UNL     1       4.516   5.946  17.079  0.00  0.00    +0.000 A 
ATOM     16  C   UNL     1       5.125   4.809  17.619  0.00  0.00    +0.000 A 
ATOM     17  C   UNL     1       6.084   4.101  16.876  0.00  0.00    +0.000 A 
ATOM     18  C   UNL     1       6.425   4.516  15.592  0.00  0.00    +0.000 A 
ATOM     19  F   UNL     1       7.355   3.842  14.902  0.00  0.00    +0.000 F 
ATOM     20  C   UNL     1       5.825   5.628  15.026  0.00  0.00    +0.000 A 
ATOM     21  C   UNL     1       4.872   6.335  15.767  0.00  0.00    +0.000 A 
ENDBRANCH  10  15
BRANCH   9  22
ATOM     22  C   UNL     1       1.866   5.342  18.878  0.00  0.00    +0.000 C 
ATOM     23  N   UNL     1       1.469   4.757  17.779  0.00  0.00    +0.000 NA
ATOM     24  C   UNL     1       1.467   3.314  18.187  0.00  0.00    +0.000 C 
ATOM     25  C   UNL     1       2.239   3.261  19.516  0.00  0.00    +0.000 C 
ATOM     26  N   UNL     1       1.956   4.586  20.019  0.00  0.00    +0.000 N 
ATOM     27  H   UNL     1       2.606   4.905  20.727  0.00  0.00    +0.000 HD
ENDBRANCH   9  22
BRANCH   1  29
ATOM     28  C   UNL     1      -1.675   9.731  17.915  0.00  0.00    +0.000 C 
ATOM     29  S   UNL     1      -1.551  11.393  18.558  0.00  0.00    +0.000 S 
ATOM     30  O   UNL     1      -1.584  12.272  17.402  0.00  0.00    +0.000 OA
ATOM     31  O   UNL     1      -2.513  11.507  19.629  0.00  0.00    +0.000 OA
ENDBRANCH   1  29
TORSDOF 3
ENDMDL
MODEL 7
REMARK VINA RESULT:      -7.8      1.173      1.797
REMARK  Name = 
REMARK  4 active torsions:
REMARK  status: ('A' for Active; 'I' for Inactive)
REMARK    1  A    between atoms: C_1  and  S_2
REMARK    2  A    between atoms: S_2  and  N_5
REMARK    3  A    between atoms: C_13  and  C_14
REMARK    4  A    between atoms: C_19  and  C_20
REMARK                            x       y       z     vdW  Elec       q    Type
REMARK                         _______ _______ _______ _____ _____    ______ ____
ROOT
ATOM      1  N   UNL     1       2.689   5.851  19.794  0.00  0.00    +0.000 N 
ATOM      2  C   UNL     1       4.151   5.831  19.521  0.00  0.00    +0.000 C 
ATOM      3  C   UNL     1       4.538   5.968  18.043  0.00  0.00    +0.000 C 
ATOM      4  C   UNL     1       4.062   7.234  17.332  0.00  0.00    +0.000 C 
ATOM      5  C   UNL     1       2.545   7.373  17.311  0.00  0.00    +0.000 C 
ATOM      6  C   UNL     1       2.057   7.907  18.633  0.00  0.00    +0.000 A 
ATOM      7  C   UNL     1       1.566   9.213  18.651  0.00  0.00    +0.000 A 
ATOM      8  C   UNL     1       1.038   9.738  19.838  0.00  0.00    +0.000 A 
ATOM      9  C   UNL     1       0.022  10.693  20.098  0.00  0.00    +0.000 A 
ATOM     10  C   UNL     1       0.008  10.884  21.468  0.00  0.00    +0.000 A 
ATOM     11  O   UNL     1       0.602   9.772  22.049  0.00  0.00    +0.000 OA
ATOM     12  C   UNL     1       1.127   9.013  21.015  0.00  0.00    +0.000 A 
ATOM     13  C   UNL     1       1.625   7.700  21.047  0.00  0.00    +0.000 A 
ATOM     14  C   UNL     1       2.080   7.156  19.818  0.00  0.00    +0.000 A 
ENDROOT
BRANCH  10  15
ATOM     15  C   UNL     1      -0.754  11.830  22.294  0.00  0.00    +0.000 A 
ATOM     16  C   UNL     1      -1.903  11.461  23.001  0.00  0.00    +0.000 A 
ATOM     17  C   UNL     1      -2.684  12.437  23.641  0.00  0.00    +0.000 A 
ATOM     18  C   UNL     1      -2.315  13.778  23.588  0.00  0.00    +0.000 A 
ATOM     19  F   UNL     1      -3.079  14.702  24.186  0.00  0.00    +0.000 F 
ATOM     20  C   UNL     1      -1.173  14.170  22.909  0.00  0.00    +0.000 A 
ATOM     21  C   UNL     1      -0.396  13.198  22.270  0.00  0.00    +0.000 A 
ENDBRANCH  10  15
BRANCH   9  22
ATOM     22  C   UNL     1      -1.104  10.847  19.206  0.00  0.00    +0.000 C 
ATOM     23  N   UNL     1      -1.301  11.962  18.555  0.00  0.00    +0.000 NA
ATOM     24  C   UNL     1      -1.874  11.462  17.263  0.00  0.00    +0.000 C 
ATOM     25  C   UNL     1      -1.608   9.947  17.253  0.00  0.00    +0.000 C 
ATOM     26  N   UNL     1      -1.610   9.687  18.675  0.00  0.00    +0.000 N 
ATOM     27  H   UNL     1      -1.145   8.826  18.937  0.00  0.00    +0.000 HD
ENDBRANCH   9  22
BRANCH   1  29
ATOM     28  C   UNL     1       2.902   3.177  19.658  0.00  0.00    +0.000 C 
ATOM     29  S   UNL     1       1.744   4.501  19.345  0.00  0.00    +0.000 S 
ATOM     30  O   UNL     1       1.539   4.521  17.907  0.00  0.00    +0.000 OA
ATOM     31  O   UNL     1       0.646   4.332  20.269  0.00  0.00    +0.000 OA
ENDBRANCH   1  29
TORSDOF 3
ENDMDL
MODEL 8
REMARK VINA RESULT:      -7.8      4.008      8.504
REMARK  Name = 
REMARK  4 active torsions:
REMARK  status: ('A' for Active; 'I' for Inactive)
REMARK    1  A    between atoms: C_1  and  S_2
REMARK    2  A    between atoms: S_2  and  N_5
REMARK    3  A    between atoms: C_13  and  C_14
REMARK    4  A    between atoms: C_19  and  C_20
REMARK                            x       y       z     vdW  Elec       q    Type
REMARK                         _______ _______ _______ _____ _____    ______ ____
ROOT
ATOM      1  N   UNL     1       0.246  10.747  19.006  0.00  0.00    +0.000 N 
ATOM      2  C   UNL     1       0.587  11.759  20.041  0.00  0.00    +0.000 C 
ATOM      3  C   UNL     1       0.065  11.451  21.449  0.00  0.00    +0.000 C 
ATOM      4  C   UNL     1       0.531  10.136  22.073  0.00  0.00    +0.000 C 
ATOM      5  C   UNL     1       0.113   8.912  21.268  0.00  0.00    +0.000 C 
ATOM      6  C   UNL     1       1.048   8.715  20.103  0.00  0.00    +0.000 A 
ATOM      7  C   UNL     1       1.917   7.625  20.160  0.00  0.00    +0.000 A 
ATOM      8  C   UNL     1       2.762   7.355  19.076  0.00  0.00    +0.000 A 
ATOM      9  C   UNL     1       3.301   6.151  18.553  0.00  0.00    +0.000 A 
ATOM     10  C   UNL     1       4.153   6.519  17.526  0.00  0.00    +0.000 A 
ATOM     11  O   UNL     1       3.780   7.790  17.113  0.00  0.00    +0.000 OA
ATOM     12  C   UNL     1       2.829   8.243  18.014  0.00  0.00    +0.000 A 
ATOM     13  C   UNL     1       1.982   9.359  17.920  0.00  0.00    +0.000 A 
ATOM     14  C   UNL     1       1.076   9.570  18.991  0.00  0.00    +0.000 A 
ENDROOT
BRANCH  10  15
ATOM     15  C   UNL     1       5.063   5.712  16.704  0.00  0.00    +0.000 A 
ATOM     16  C   UNL     1       6.455   5.815  16.793  0.00  0.00    +0.000 A 
ATOM     17  C   UNL     1       7.274   5.142  15.873  0.00  0.00    +0.000 A 
ATOM     18  C   UNL     1       6.710   4.355  14.872  0.00  0.00    +0.000 A 
ATOM     19  F   UNL     1       7.502   3.734  13.989  0.00  0.00    +0.000 F 
ATOM     20  C   UNL     1       5.335   4.221  14.771  0.00  0.00    +0.000 A 
ATOM     21  C   UNL     1       4.518   4.894  15.687  0.00  0.00    +0.000 A 
ENDBRANCH  10  15
BRANCH   9  22
ATOM     22  C   UNL     1       2.579   4.905  18.653  0.00  0.00    +0.000 C 
ATOM     23  N   UNL     1       1.722   4.546  17.734  0.00  0.00    +0.000 NA
ATOM     24  C   UNL     1       1.906   3.058  17.714  0.00  0.00    +0.000 C 
ATOM     25  C   UNL     1       3.200   2.792  18.500  0.00  0.00    +0.000 C 
ATOM     26  N   UNL     1       3.179   3.923  19.399  0.00  0.00    +0.000 N 
ATOM     27  H   UNL     1       4.082   4.145  19.802  0.00  0.00    +0.000 HD
ENDBRANCH   9  22
BRANCH   1  29
ATOM     28  C   UNL     1      -1.646  12.306  17.908  0.00  0.00    +0.000 C 
ATOM     29  S   UNL     1      -1.369  10.630  18.462  0.00  0.00    +0.000 S 
ATOM     30  O   UNL     1      -2.244  10.438  19.605  0.00  0.00    +0.000 OA
ATOM     31  O   UNL     1      -1.442   9.780  17.296  0.00  0.00    +0.000 OA
ENDBRANCH   1  29
TORSDOF 3
ENDMDL
MODEL 9
REMARK VINA RESULT:      -7.7      2.736      3.952
REMARK  Name = 
REMARK  4 active torsions:
REMARK  status: ('A' for Active; 'I' for Inactive)
REMARK    1  A    between atoms: C_1  and  S_2
REMARK    2  A    between atoms: S_2  and  N_5
REMARK    3  A    between atoms: C_13  and  C_14
REMARK    4  A    between atoms: C_19  and  C_20
REMARK                            x       y       z     vdW  Elec       q    Type
REMARK                         _______ _______ _______ _____ _____    ______ ____
ROOT
ATOM      1  N   UNL     1       5.066   5.468  17.369  0.00  0.00    +0.000 N 
ATOM      2  C   UNL     1       4.656   4.347  16.481  0.00  0.00    +0.000 C 
ATOM      3  C   UNL     1       4.135   3.100  17.206  0.00  0.00    +0.000 C 
ATOM      4  C   UNL     1       2.918   3.300  18.108  0.00  0.00    +0.000 C 
ATOM      5  C   UNL     1       3.171   4.285  19.243  0.00  0.00    +0.000 C 
ATOM      6  C   UNL     1       3.053   5.699  18.735  0.00  0.00    +0.000 A 
ATOM      7  C   UNL     1       1.946   6.437  19.157  0.00  0.00    +0.000 A 
ATOM      8  C   UNL     1       1.819   7.777  18.770  0.00  0.00    +0.000 A 
ATOM      9  C   UNL     1       1.227   8.906  19.393  0.00  0.00    +0.000 A 
ATOM     10  C   UNL     1       1.322   9.946  18.485  0.00  0.00    +0.000 A 
ATOM     11  O   UNL     1       2.336   9.629  17.594  0.00  0.00    +0.000 OA
ATOM     12  C   UNL     1       2.716   8.324  17.866  0.00  0.00    +0.000 A 
ATOM     13  C   UNL     1       3.837   7.615  17.405  0.00  0.00    +0.000 A 
ATOM     14  C   UNL     1       3.992   6.285  17.873  0.00  0.00    +0.000 A 
ENDROOT
BRANCH  10  15
ATOM     15  C   UNL     1       0.785  11.313  18.538  0.00  0.00    +0.000 A 
ATOM     16  C   UNL     1       1.603  12.442  18.655  0.00  0.00    +0.000 A 
ATOM     17  C   UNL     1       1.034  13.708  18.865  0.00  0.00    +0.000 A 
ATOM     18  C   UNL     1      -0.349  13.853  18.947  0.00  0.00    +0.000 A 
ATOM     19  F   UNL     1      -0.878  15.064  19.167  0.00  0.00    +0.000 F 
ATOM     20  C   UNL     1      -1.183  12.755  18.817  0.00  0.00    +0.000 A 
ATOM     21  C   UNL     1      -0.615  11.493  18.610  0.00  0.00    +0.000 A 
ENDBRANCH  10  15
BRANCH   9  22
ATOM     22  C   UNL     1       1.194   9.033  20.831  0.00  0.00    +0.000 C 
ATOM     23  N   UNL     1       1.356  10.192  21.410  0.00  0.00    +0.000 NA
ATOM     24  C   UNL     1       0.447  10.070  22.596  0.00  0.00    +0.000 C 
ATOM     25  C   UNL     1      -0.425   8.834  22.320  0.00  0.00    +0.000 C 
ATOM     26  N   UNL     1       0.486   8.067  21.501  0.00  0.00    +0.000 N 
ATOM     27  H   UNL     1       0.034   7.359  20.935  0.00  0.00    +0.000 HD
ENDBRANCH   9  22
BRANCH   1  29
ATOM     28  C   UNL     1       7.538   4.446  17.128  0.00  0.00    +0.000 C 
ATOM     29  S   UNL     1       6.497   5.315  18.290  0.00  0.00    +0.000 S 
ATOM     30  O   UNL     1       6.261   4.390  19.384  0.00  0.00    +0.000 OA
ATOM     31  O   UNL     1       7.092   6.613  18.505  0.00  0.00    +0.000 OA
ENDBRANCH   1  29
TORSDOF 3
ENDMDL
