MODEL 1
REMARK VINA RESULT:      -6.1      0.000      0.000
REMARK  Name = 
REMARK  11 active torsions:
REMARK  status: ('A' for Active; 'I' for Inactive)
REMARK    1  A    between atoms: C_1  and  O_2
REMARK    2  A    between atoms: O_2  and  C_3
REMARK    3  A    between atoms: C_3  and  C_4
REMARK    4  A    between atoms: C_4  and  N_5
REMARK    5  A    between atoms: N_5  and  C_6
REMARK    6  A    between atoms: N_5  and  C_10
REMARK    7  A    between atoms: C_6  and  C_7
REMARK    8  A    between atoms: C_7  and  O_8
REMARK    9  A    between atoms: O_8  and  C_9
REMARK   10  A    between atoms: C_10  and  C_11
REMARK   11  A    between atoms: N_17  and  C_18
REMARK                            x       y       z     vdW  Elec       q    Type
REMARK                         _______ _______ _______ _____ _____    ______ ____
ROOT
ATOM      1  C   UNL     1       3.937   5.367  18.230  0.00  0.00    +0.000 A 
ATOM      2  N   UNL     1       4.266   5.088  17.000  0.00  0.00    +0.000 NA
ATOM      3  C   UNL     1       5.595   4.865  16.848  0.00  0.00    +0.000 A 
ATOM      4  C   UNL     1       6.565   4.902  17.820  0.00  0.00    +0.000 A 
ATOM      5  C   UNL     1       7.763   4.588  17.171  0.00  0.00    +0.000 A 
ATOM      6  N   UNL     1       7.585   4.379  15.858  0.00  0.00    +0.000 NA
ATOM      7  N   UNL     1       6.252   4.561  15.685  0.00  0.00    +0.000 N 
ATOM      8  C   UNL     1       5.669   4.429  14.373  0.00  0.00    +0.000 C 
ATOM      9  C   UNL     1       6.188   5.219  19.167  0.00  0.00    +0.000 A 
ATOM     10  O   UNL     1       6.972   5.283  20.103  0.00  0.00    +0.000 OA
ATOM     11  N   UNL     1       4.830   5.444  19.290  0.00  0.00    +0.000 N 
ATOM     12  H   UNL     1       4.492   5.745  20.196  0.00  0.00    +0.000 HD
ENDROOT
BRANCH   1  13
ATOM     13  C   UNL     1       2.484   5.611  18.610  0.00  0.00    +0.000 C 
BRANCH  13  14
ATOM     14  N   UNL     1       2.175   5.069  19.960  0.00  0.00    +0.000 NA
BRANCH  14  15
ATOM     15  C   UNL     1       1.511   6.128  20.773  0.00  0.00    +0.000 C 
BRANCH  15  16
ATOM     16  C   UNL     1       1.771   7.611  20.425  0.00  0.00    +0.000 C 
BRANCH  16  18
ATOM     17  C   UNL     1       1.274   9.131  22.148  0.00  0.00    +0.000 C 
ATOM     18  O   UNL     1       0.781   8.471  20.986  0.00  0.00    +0.000 OA
ENDBRANCH  16  18
ENDBRANCH  15  16
ENDBRANCH  14  15
BRANCH  14  19
ATOM     19  C   UNL     1       1.316   3.868  19.829  0.00  0.00    +0.000 C 
BRANCH  19  20
ATOM     20  C   UNL     1       1.999   2.510  20.127  0.00  0.00    +0.000 C 
BRANCH  20  21
ATOM     21  O   UNL     1       3.336   2.403  19.634  0.00  0.00    +0.000 OA
ATOM     22  C   UNL     1       3.427   1.674  18.417  0.00  0.00    +0.000 C 
ENDBRANCH  20  21
ENDBRANCH  19  20
ENDBRANCH  14  19
ENDBRANCH  13  14
ENDBRANCH   1  13
TORSDOF 8
ENDMDL
MODEL 2
REMARK VINA RESULT:      -6.0      2.343      6.789
REMARK  Name = 
REMARK  11 active torsions:
REMARK  status: ('A' for Active; 'I' for Inactive)
REMARK    1  A    between atoms: C_1  and  O_2
REMARK    2  A    between atoms: O_2  and  C_3
REMARK    3  A    between atoms: C_3  and  C_4
REMARK    4  A    between atoms: C_4  and  N_5
REMARK    5  A    between atoms: N_5  and  C_6
REMARK    6  A    between atoms: N_5  and  C_10
REMARK    7  A    between atoms: C_6  and  C_7
REMARK    8  A    between atoms: C_7  and  O_8
REMARK    9  A    between atoms: O_8  and  C_9
REMARK   10  A    between atoms: C_10  and  C_11
REMARK   11  A    between atoms: N_17  and  C_18
REMARK                            x       y       z     vdW  Elec       q    Type
REMARK                         _______ _______ _______ _____ _____    ______ ____
ROOT
ATOM      1  C   UNL     1       4.164   4.358  17.386  0.00  0.00    +0.000 A 
ATOM      2  N   UNL     1       3.507   5.088  18.245  0.00  0.00    +0.000 NA
ATOM      3  C   UNL     1       2.941   4.353  19.235  0.00  0.00    +0.000 A 
ATOM      4  C   UNL     1       3.001   2.991  19.404  0.00  0.00    +0.000 A 
ATOM      5  C   UNL     1       2.281   2.722  20.571  0.00  0.00    +0.000 A 
ATOM      6  N   UNL     1       1.771   3.837  21.116  0.00  0.00    +0.000 NA
ATOM      7  N   UNL     1       2.183   4.819  20.276  0.00  0.00    +0.000 N 
ATOM      8  C   UNL     1       1.813   6.189  20.530  0.00  0.00    +0.000 C 
ATOM      9  C   UNL     1       3.721   2.203  18.446  0.00  0.00    +0.000 A 
ATOM     10  O   UNL     1       3.831   0.986  18.501  0.00  0.00    +0.000 OA
ATOM     11  N   UNL     1       4.282   2.977  17.449  0.00  0.00    +0.000 N 
ATOM     12  H   UNL     1       4.747   2.490  16.693  0.00  0.00    +0.000 HD
ENDROOT
BRANCH   1  13
ATOM     13  C   UNL     1       4.901   5.004  16.223  0.00  0.00    +0.000 C 
BRANCH  13  14
ATOM     14  N   UNL     1       6.362   4.731  16.285  0.00  0.00    +0.000 NA
BRANCH  14  15
ATOM     15  C   UNL     1       6.847   4.347  14.928  0.00  0.00    +0.000 C 
BRANCH  15  16
ATOM     16  C   UNL     1       5.818   3.902  13.865  0.00  0.00    +0.000 C 
BRANCH  16  18
ATOM     17  C   UNL     1       5.595   2.717  11.847  0.00  0.00    +0.000 C 
ATOM     18  O   UNL     1       6.444   3.548  12.633  0.00  0.00    +0.000 OA
ENDBRANCH  16  18
ENDBRANCH  15  16
ENDBRANCH  14  15
BRANCH  14  19
ATOM     19  C   UNL     1       7.071   5.929  16.794  0.00  0.00    +0.000 C 
BRANCH  19  20
ATOM     20  C   UNL     1       7.631   5.824  18.235  0.00  0.00    +0.000 C 
BRANCH  20  21
ATOM     21  O   UNL     1       8.076   7.066  18.785  0.00  0.00    +0.000 OA
ATOM     22  C   UNL     1       8.041   8.136  17.850  0.00  0.00    +0.000 C 
ENDBRANCH  20  21
ENDBRANCH  19  20
ENDBRANCH  14  19
ENDBRANCH  13  14
ENDBRANCH   1  13
TORSDOF 8
ENDMDL
MODEL 3
REMARK VINA RESULT:      -5.9      2.557      6.082
REMARK  Name = 
REMARK  11 active torsions:
REMARK  status: ('A' for Active; 'I' for Inactive)
REMARK    1  A    between atoms: C_1  and  O_2
REMARK    2  A    between atoms: O_2  and  C_3
REMARK    3  A    between atoms: C_3  and  C_4
REMARK    4  A    between atoms: C_4  and  N_5
REMARK    5  A    between atoms: N_5  and  C_6
REMARK    6  A    between atoms: N_5  and  C_10
REMARK    7  A    between atoms: C_6  and  C_7
REMARK    8  A    between atoms: C_7  and  O_8
REMARK    9  A    between atoms: O_8  and  C_9
REMARK   10  A    between atoms: C_10  and  C_11
REMARK   11  A    between atoms: N_17  and  C_18
REMARK                            x       y       z     vdW  Elec       q    Type
REMARK                         _______ _______ _______ _____ _____    ______ ____
ROOT
ATOM      1  C   UNL     1       4.278   4.721  17.439  0.00  0.00    +0.000 A 
ATOM      2  N   UNL     1       3.984   3.927  18.431  0.00  0.00    +0.000 NA
ATOM      3  C   UNL     1       3.173   4.510  19.349  0.00  0.00    +0.000 A 
ATOM      4  C   UNL     1       2.662   5.784  19.324  0.00  0.00    +0.000 A 
ATOM      5  C   UNL     1       1.876   5.900  20.474  0.00  0.00    +0.000 A 
ATOM      6  N   UNL     1       1.891   4.778  21.209  0.00  0.00    +0.000 NA
ATOM      7  N   UNL     1       2.697   3.946  20.503  0.00  0.00    +0.000 N 
ATOM      8  C   UNL     1       2.971   2.618  20.993  0.00  0.00    +0.000 C 
ATOM      9  C   UNL     1       3.001   6.648  18.230  0.00  0.00    +0.000 A 
ATOM     10  O   UNL     1       2.604   7.799  18.115  0.00  0.00    +0.000 OA
ATOM     11  N   UNL     1       3.829   6.029  17.314  0.00  0.00    +0.000 N 
ATOM     12  H   UNL     1       4.174   6.595  16.548  0.00  0.00    +0.000 HD
ENDROOT
BRANCH   1  13
ATOM     13  C   UNL     1       5.145   4.238  16.288  0.00  0.00    +0.000 C 
BRANCH  13  14
ATOM     14  N   UNL     1       6.275   5.169  16.027  0.00  0.00    +0.000 NA
BRANCH  14  15
ATOM     15  C   UNL     1       7.237   5.104  17.165  0.00  0.00    +0.000 C 
BRANCH  15  16
ATOM     16  C   UNL     1       7.569   6.399  17.938  0.00  0.00    +0.000 C 
BRANCH  16  18
ATOM     17  C   UNL     1       7.976   8.711  17.801  0.00  0.00    +0.000 C 
ATOM     18  O   UNL     1       7.687   7.524  17.068  0.00  0.00    +0.000 OA
ENDBRANCH  16  18
ENDBRANCH  15  16
ENDBRANCH  14  15
BRANCH  14  19
ATOM     19  C   UNL     1       6.927   4.814  14.745  0.00  0.00    +0.000 C 
BRANCH  19  20
ATOM     20  C   UNL     1       6.174   3.786  13.862  0.00  0.00    +0.000 C 
BRANCH  20  21
ATOM     21  O   UNL     1       6.565   3.792  12.488  0.00  0.00    +0.000 OA
ATOM     22  C   UNL     1       6.066   2.677  11.760  0.00  0.00    +0.000 C 
ENDBRANCH  20  21
ENDBRANCH  19  20
ENDBRANCH  14  19
ENDBRANCH  13  14
ENDBRANCH   1  13
TORSDOF 8
ENDMDL
MODEL 4
REMARK VINA RESULT:      -5.9      0.922      1.117
REMARK  Name = 
REMARK  11 active torsions:
REMARK  status: ('A' for Active; 'I' for Inactive)
REMARK    1  A    between atoms: C_1  and  O_2
REMARK    2  A    between atoms: O_2  and  C_3
REMARK    3  A    between atoms: C_3  and  C_4
REMARK    4  A    between atoms: C_4  and  N_5
REMARK    5  A    between atoms: N_5  and  C_6
REMARK    6  A    between atoms: N_5  and  C_10
REMARK    7  A    between atoms: C_6  and  C_7
REMARK    8  A    between atoms: C_7  and  O_8
REMARK    9  A    between atoms: O_8  and  C_9
REMARK   10  A    between atoms: C_10  and  C_11
REMARK   11  A    between atoms: N_17  and  C_18
REMARK                            x       y       z     vdW  Elec       q    Type
REMARK                         _______ _______ _______ _____ _____    ______ ____
ROOT
ATOM      1  C   UNL     1       3.929   5.414  18.214  0.00  0.00    +0.000 A 
ATOM      2  N   UNL     1       4.254   5.104  16.990  0.00  0.00    +0.000 NA
ATOM      3  C   UNL     1       5.581   4.864  16.841  0.00  0.00    +0.000 A 
ATOM      4  C   UNL     1       6.552   4.911  17.812  0.00  0.00    +0.000 A 
ATOM      5  C   UNL     1       7.746   4.570  17.170  0.00  0.00    +0.000 A 
ATOM      6  N   UNL     1       7.564   4.335  15.862  0.00  0.00    +0.000 NA
ATOM      7  N   UNL     1       6.233   4.527  15.685  0.00  0.00    +0.000 N 
ATOM      8  C   UNL     1       5.647   4.373  14.377  0.00  0.00    +0.000 C 
ATOM      9  C   UNL     1       6.179   5.261  19.152  0.00  0.00    +0.000 A 
ATOM     10  O   UNL     1       6.965   5.337  20.086  0.00  0.00    +0.000 OA
ATOM     11  N   UNL     1       4.825   5.503  19.271  0.00  0.00    +0.000 N 
ATOM     12  H   UNL     1       4.491   5.828  20.170  0.00  0.00    +0.000 HD
ENDROOT
BRANCH   1  13
ATOM     13  C   UNL     1       2.480   5.681  18.589  0.00  0.00    +0.000 C 
BRANCH  13  14
ATOM     14  N   UNL     1       2.363   6.207  19.975  0.00  0.00    +0.000 NA
BRANCH  14  15
ATOM     15  C   UNL     1       1.934   7.635  19.924  0.00  0.00    +0.000 C 
BRANCH  15  16
ATOM     16  C   UNL     1       1.283   8.264  21.176  0.00  0.00    +0.000 C 
BRANCH  16  18
ATOM     17  C   UNL     1      -0.239   9.938  21.816  0.00  0.00    +0.000 C 
ATOM     18  O   UNL     1       0.815   9.588  20.924  0.00  0.00    +0.000 OA
ENDBRANCH  16  18
ENDBRANCH  15  16
ENDBRANCH  14  15
BRANCH  14  19
ATOM     19  C   UNL     1       1.402   5.379  20.742  0.00  0.00    +0.000 C 
BRANCH  19  20
ATOM     20  C   UNL     1       1.790   3.891  20.933  0.00  0.00    +0.000 C 
BRANCH  20  21
ATOM     21  O   UNL     1       0.961   2.971  20.221  0.00  0.00    +0.000 OA
ATOM     22  C   UNL     1       1.695   2.102  19.369  0.00  0.00    +0.000 C 
ENDBRANCH  20  21
ENDBRANCH  19  20
ENDBRANCH  14  19
ENDBRANCH  13  14
ENDBRANCH   1  13
TORSDOF 8
ENDMDL
MODEL 5
REMARK VINA RESULT:      -5.9      2.440      6.757
REMARK  Name = 
REMARK  11 active torsions:
REMARK  status: ('A' for Active; 'I' for Inactive)
REMARK    1  A    between atoms: C_1  and  O_2
REMARK    2  A    between atoms: O_2  and  C_3
REMARK    3  A    between atoms: C_3  and  C_4
REMARK    4  A    between atoms: C_4  and  N_5
REMARK    5  A    between atoms: N_5  and  C_6
REMARK    6  A    between atoms: N_5  and  C_10
REMARK    7  A    between atoms: C_6  and  C_7
REMARK    8  A    between atoms: C_7  and  O_8
REMARK    9  A    between atoms: O_8  and  C_9
REMARK   10  A    between atoms: C_10  and  C_11
REMARK   11  A    between atoms: N_17  and  C_18
REMARK                            x       y       z     vdW  Elec       q    Type
REMARK                         _______ _______ _______ _____ _____    ______ ____
ROOT
ATOM      1  C   UNL     1       4.170   5.762  17.446  0.00  0.00    +0.000 A 
ATOM      2  N   UNL     1       4.052   4.699  18.192  0.00  0.00    +0.000 NA
ATOM      3  C   UNL     1       3.187   4.872  19.223  0.00  0.00    +0.000 A 
ATOM      4  C   UNL     1       2.465   6.000  19.527  0.00  0.00    +0.000 A 
ATOM      5  C   UNL     1       1.713   5.675  20.659  0.00  0.00    +0.000 A 
ATOM      6  N   UNL     1       1.946   4.421  21.075  0.00  0.00    +0.000 NA
ATOM      7  N   UNL     1       2.855   3.954  20.183  0.00  0.00    +0.000 N 
ATOM      8  C   UNL     1       3.370   2.613  20.311  0.00  0.00    +0.000 C 
ATOM      9  C   UNL     1       2.613   7.164  18.701  0.00  0.00    +0.000 A 
ATOM     10  O   UNL     1       2.021   8.218  18.888  0.00  0.00    +0.000 OA
ATOM     11  N   UNL     1       3.501   6.959  17.664  0.00  0.00    +0.000 N 
ATOM     12  H   UNL     1       3.717   7.755  17.076  0.00  0.00    +0.000 HD
ENDROOT
BRANCH   1  13
ATOM     13  C   UNL     1       5.066   5.753  16.218  0.00  0.00    +0.000 C 
BRANCH  13  14
ATOM     14  N   UNL     1       6.452   5.331  16.556  0.00  0.00    +0.000 NA
BRANCH  14  15
ATOM     15  C   UNL     1       7.040   4.601  15.396  0.00  0.00    +0.000 C 
BRANCH  15  16
ATOM     16  C   UNL     1       6.092   3.949  14.366  0.00  0.00    +0.000 C 
BRANCH  16  18
ATOM     17  C   UNL     1       6.067   3.110  12.169  0.00  0.00    +0.000 C 
ATOM     18  O   UNL     1       6.546   4.142  13.027  0.00  0.00    +0.000 OA
ENDBRANCH  16  18
ENDBRANCH  15  16
ENDBRANCH  14  15
BRANCH  14  19
ATOM     19  C   UNL     1       7.260   6.521  16.913  0.00  0.00    +0.000 C 
BRANCH  19  20
ATOM     20  C   UNL     1       7.788   6.571  18.369  0.00  0.00    +0.000 C 
BRANCH  20  21
ATOM     21  O   UNL     1       8.444   7.791  18.716  0.00  0.00    +0.000 OA
ATOM     22  C   UNL     1       8.101   8.873  17.860  0.00  0.00    +0.000 C 
ENDBRANCH  20  21
ENDBRANCH  19  20
ENDBRANCH  14  19
ENDBRANCH  13  14
ENDBRANCH   1  13
TORSDOF 8
ENDMDL
MODEL 6
REMARK VINA RESULT:      -5.8      2.607      5.897
REMARK  Name = 
REMARK  11 active torsions:
REMARK  status: ('A' for Active; 'I' for Inactive)
REMARK    1  A    between atoms: C_1  and  O_2
REMARK    2  A    between atoms: O_2  and  C_3
REMARK    3  A    between atoms: C_3  and  C_4
REMARK    4  A    between atoms: C_4  and  N_5
REMARK    5  A    between atoms: N_5  and  C_6
REMARK    6  A    between atoms: N_5  and  C_10
REMARK    7  A    between atoms: C_6  and  C_7
REMARK    8  A    between atoms: C_7  and  O_8
REMARK    9  A    between atoms: O_8  and  C_9
REMARK   10  A    between atoms: C_10  and  C_11
REMARK   11  A    between atoms: N_17  and  C_18
REMARK                            x       y       z     vdW  Elec       q    Type
REMARK                         _______ _______ _______ _____ _____    ______ ____
ROOT
ATOM      1  C   UNL     1       5.273   4.491  19.069  0.00  0.00    +0.000 A 
ATOM      2  N   UNL     1       4.349   5.282  19.541  0.00  0.00    +0.000 NA
ATOM      3  C   UNL     1       3.151   4.662  19.692  0.00  0.00    +0.000 A 
ATOM      4  C   UNL     1       2.848   3.351  19.411  0.00  0.00    +0.000 A 
ATOM      5  C   UNL     1       1.501   3.194  19.750  0.00  0.00    +0.000 A 
ATOM      6  N   UNL     1       0.960   4.334  20.204  0.00  0.00    +0.000 NA
ATOM      7  N   UNL     1       1.988   5.218  20.152  0.00  0.00    +0.000 N 
ATOM      8  C   UNL     1       1.786   6.586  20.560  0.00  0.00    +0.000 C 
ATOM      9  C   UNL     1       3.874   2.498  18.885  0.00  0.00    +0.000 A 
ATOM     10  O   UNL     1       3.707   1.321  18.598  0.00  0.00    +0.000 OA
ATOM     11  N   UNL     1       5.079   3.157  18.740  0.00  0.00    +0.000 N 
ATOM     12  H   UNL     1       5.836   2.644  18.306  0.00  0.00    +0.000 HD
ENDROOT
BRANCH   1  13
ATOM     13  C   UNL     1       6.694   4.993  18.866  0.00  0.00    +0.000 C 
BRANCH  13  14
ATOM     14  N   UNL     1       6.726   6.212  18.015  0.00  0.00    +0.000 NA
BRANCH  14  15
ATOM     15  C   UNL     1       7.897   7.050  18.403  0.00  0.00    +0.000 C 
BRANCH  15  16
ATOM     16  C   UNL     1       8.045   8.458  17.785  0.00  0.00    +0.000 C 
BRANCH  16  18
ATOM     17  C   UNL     1       8.734  10.662  18.228  0.00  0.00    +0.000 C 
ATOM     18  O   UNL     1       8.919   9.286  18.550  0.00  0.00    +0.000 OA
ENDBRANCH  16  18
ENDBRANCH  15  16
ENDBRANCH  14  15
BRANCH  14  19
ATOM     19  C   UNL     1       6.789   5.820  16.587  0.00  0.00    +0.000 C 
BRANCH  19  20
ATOM     20  C   UNL     1       5.454   5.896  15.804  0.00  0.00    +0.000 C 
BRANCH  20  21
ATOM     21  O   UNL     1       5.396   5.046  14.657  0.00  0.00    +0.000 OA
ATOM     22  C   UNL     1       6.270   3.929  14.744  0.00  0.00    +0.000 C 
ENDBRANCH  20  21
ENDBRANCH  19  20
ENDBRANCH  14  19
ENDBRANCH  13  14
ENDBRANCH   1  13
TORSDOF 8
ENDMDL
MODEL 7
REMARK VINA RESULT:      -5.8      2.267      6.568
REMARK  Name = 
REMARK  11 active torsions:
REMARK  status: ('A' for Active; 'I' for Inactive)
REMARK    1  A    between atoms: C_1  and  O_2
REMARK    2  A    between atoms: O_2  and  C_3
REMARK    3  A    between atoms: C_3  and  C_4
REMARK    4  A    between atoms: C_4  and  N_5
REMARK    5  A    between atoms: N_5  and  C_6
REMARK    6  A    between atoms: N_5  and  C_10
REMARK    7  A    between atoms: C_6  and  C_7
REMARK    8  A    between atoms: C_7  and  O_8
REMARK    9  A    between atoms: O_8  and  C_9
REMARK   10  A    between atoms: C_10  and  C_11
REMARK   11  A    between atoms: N_17  and  C_18
REMARK                            x       y       z     vdW  Elec       q    Type
REMARK                         _______ _______ _______ _____ _____    ______ ____
ROOT
ATOM      1  C   UNL     1       3.920   5.294  17.542  0.00  0.00    +0.000 A 
ATOM      2  N   UNL     1       3.463   4.118  17.871  0.00  0.00    +0.000 NA
ATOM      3  C   UNL     1       2.574   4.166  18.895  0.00  0.00    +0.000 A 
ATOM      4  C   UNL     1       2.138   5.279  19.571  0.00  0.00    +0.000 A 
ATOM      5  C   UNL     1       1.221   4.812  20.517  0.00  0.00    +0.000 A 
ATOM      6  N   UNL     1       1.085   3.478  20.471  0.00  0.00    +0.000 NA
ATOM      7  N   UNL     1       1.928   3.107  19.475  0.00  0.00    +0.000 N 
ATOM      8  C   UNL     1       2.069   1.714  19.129  0.00  0.00    +0.000 C 
ATOM      9  C   UNL     1       2.656   6.564  19.202  0.00  0.00    +0.000 A 
ATOM     10  O   UNL     1       2.338   7.614  19.742  0.00  0.00    +0.000 OA
ATOM     11  N   UNL     1       3.560   6.484  18.161  0.00  0.00    +0.000 N 
ATOM     12  H   UNL     1       4.027   7.339  17.888  0.00  0.00    +0.000 HD
ENDROOT
BRANCH   1  13
ATOM     13  C   UNL     1       4.899   5.452  16.390  0.00  0.00    +0.000 C 
BRANCH  13  14
ATOM     14  N   UNL     1       5.946   4.397  16.415  0.00  0.00    +0.000 NA
BRANCH  14  15
ATOM     15  C   UNL     1       5.990   3.716  15.088  0.00  0.00    +0.000 C 
BRANCH  15  16
ATOM     16  C   UNL     1       6.550   4.487  13.872  0.00  0.00    +0.000 C 
BRANCH  16  18
ATOM     17  C   UNL     1       5.399   3.303  12.198  0.00  0.00    +0.000 C 
ATOM     18  O   UNL     1       6.677   3.649  12.724  0.00  0.00    +0.000 OA
ENDBRANCH  16  18
ENDBRANCH  15  16
ENDBRANCH  14  15
BRANCH  14  19
ATOM     19  C   UNL     1       7.255   5.003  16.756  0.00  0.00    +0.000 C 
BRANCH  19  20
ATOM     20  C   UNL     1       7.549   5.175  18.268  0.00  0.00    +0.000 C 
BRANCH  20  21
ATOM     21  O   UNL     1       7.755   6.529  18.676  0.00  0.00    +0.000 OA
ATOM     22  C   UNL     1       7.636   7.459  17.608  0.00  0.00    +0.000 C 
ENDBRANCH  20  21
ENDBRANCH  19  20
ENDBRANCH  14  19
ENDBRANCH  13  14
ENDBRANCH   1  13
TORSDOF 8
ENDMDL
MODEL 8
REMARK VINA RESULT:      -5.8      2.040      3.130
REMARK  Name = 
REMARK  11 active torsions:
REMARK  status: ('A' for Active; 'I' for Inactive)
REMARK    1  A    between atoms: C_1  and  O_2
REMARK    2  A    between atoms: O_2  and  C_3
REMARK    3  A    between atoms: C_3  and  C_4
REMARK    4  A    between atoms: C_4  and  N_5
REMARK    5  A    between atoms: N_5  and  C_6
REMARK    6  A    between atoms: N_5  and  C_10
REMARK    7  A    between atoms: C_6  and  C_7
REMARK    8  A    between atoms: C_7  and  O_8
REMARK    9  A    between atoms: O_8  and  C_9
REMARK   10  A    between atoms: C_10  and  C_11
REMARK   11  A    between atoms: N_17  and  C_18
REMARK                            x       y       z     vdW  Elec       q    Type
REMARK                         _______ _______ _______ _____ _____    ______ ____
ROOT
ATOM      1  C   UNL     1       4.237   3.235  17.759  0.00  0.00    +0.000 A 
ATOM      2  N   UNL     1       4.655   3.412  16.536  0.00  0.00    +0.000 NA
ATOM      3  C   UNL     1       5.724   4.245  16.460  0.00  0.00    +0.000 A 
ATOM      4  C   UNL     1       6.367   4.875  17.498  0.00  0.00    +0.000 A 
ATOM      5  C   UNL     1       7.408   5.601  16.912  0.00  0.00    +0.000 A 
ATOM      6  N   UNL     1       7.428   5.465  15.578  0.00  0.00    +0.000 NA
ATOM      7  N   UNL     1       6.385   4.636  15.326  0.00  0.00    +0.000 N 
ATOM      8  C   UNL     1       6.072   4.257  13.971  0.00  0.00    +0.000 C 
ATOM      9  C   UNL     1       5.889   4.677  18.836  0.00  0.00    +0.000 A 
ATOM     10  O   UNL     1       6.385   5.194  19.826  0.00  0.00    +0.000 OA
ATOM     11  N   UNL     1       4.800   3.829  18.880  0.00  0.00    +0.000 N 
ATOM     12  H   UNL     1       4.357   3.693  19.781  0.00  0.00    +0.000 HD
ENDROOT
BRANCH   1  13
ATOM     13  C   UNL     1       3.071   2.305  18.053  0.00  0.00    +0.000 C 
BRANCH  13  14
ATOM     14  N   UNL     1       1.765   2.976  17.822  0.00  0.00    +0.000 NA
BRANCH  14  15
ATOM     15  C   UNL     1       0.926   2.855  19.050  0.00  0.00    +0.000 C 
BRANCH  15  16
ATOM     16  C   UNL     1       1.491   2.091  20.267  0.00  0.00    +0.000 C 
BRANCH  16  18
ATOM     17  C   UNL     1       2.302   3.769  21.701  0.00  0.00    +0.000 C 
ATOM     18  O   UNL     1       1.279   2.800  21.487  0.00  0.00    +0.000 OA
ENDBRANCH  16  18
ENDBRANCH  15  16
ENDBRANCH  14  15
BRANCH  14  19
ATOM     19  C   UNL     1       1.992   4.395  17.459  0.00  0.00    +0.000 C 
BRANCH  19  20
ATOM     20  C   UNL     1       1.677   5.437  18.563  0.00  0.00    +0.000 C 
BRANCH  20  21
ATOM     21  O   UNL     1       2.798   6.229  18.960  0.00  0.00    +0.000 OA
ATOM     22  C   UNL     1       3.278   7.077  17.924  0.00  0.00    +0.000 C 
ENDBRANCH  20  21
ENDBRANCH  19  20
ENDBRANCH  14  19
ENDBRANCH  13  14
ENDBRANCH   1  13
TORSDOF 8
ENDMDL
MODEL 9
REMARK VINA RESULT:      -5.8      2.236      5.874
REMARK  Name = 
REMARK  11 active torsions:
REMARK  status: ('A' for Active; 'I' for Inactive)
REMARK    1  A    between atoms: C_1  and  O_2
REMARK    2  A    between atoms: O_2  and  C_3
REMARK    3  A    between atoms: C_3  and  C_4
REMARK    4  A    between atoms: C_4  and  N_5
REMARK    5  A    between atoms: N_5  and  C_6
REMARK    6  A    between atoms: N_5  and  C_10
REMARK    7  A    between atoms: C_6  and  C_7
REMARK    8  A    between atoms: C_7  and  O_8
REMARK    9  A    between atoms: O_8  and  C_9
REMARK   10  A    between atoms: C_10  and  C_11
REMARK   11  A    between atoms: N_17  and  C_18
REMARK                            x       y       z     vdW  Elec       q    Type
REMARK                         _______ _______ _______ _____ _____    ______ ____
ROOT
ATOM      1  C   UNL     1       4.592   4.278  17.891  0.00  0.00    +0.000 A 
ATOM      2  N   UNL     1       3.945   5.396  18.069  0.00  0.00    +0.000 NA
ATOM      3  C   UNL     1       3.159   5.380  19.175  0.00  0.00    +0.000 A 
ATOM      4  C   UNL     1       3.000   4.351  20.071  0.00  0.00    +0.000 A 
ATOM      5  C   UNL     1       2.109   4.826  21.038  0.00  0.00    +0.000 A 
ATOM      6  N   UNL     1       1.701   6.077  20.775  0.00  0.00    +0.000 NA
ATOM      7  N   UNL     1       2.353   6.390  19.627  0.00  0.00    +0.000 N 
ATOM      8  C   UNL     1       2.156   7.679  19.013  0.00  0.00    +0.000 C 
ATOM      9  C   UNL     1       3.713   3.125  19.857  0.00  0.00    +0.000 A 
ATOM     10  O   UNL     1       3.637   2.150  20.590  0.00  0.00    +0.000 OA
ATOM     11  N   UNL     1       4.500   3.170  18.723  0.00  0.00    +0.000 N 
ATOM     12  H   UNL     1       4.980   2.319  18.460  0.00  0.00    +0.000 HD
ENDROOT
BRANCH   1  13
ATOM     13  C   UNL     1       5.554   4.115  16.725  0.00  0.00    +0.000 C 
BRANCH  13  14
ATOM     14  N   UNL     1       5.950   5.430  16.156  0.00  0.00    +0.000 NA
BRANCH  14  15
ATOM     15  C   UNL     1       7.295   5.807  16.681  0.00  0.00    +0.000 C 
BRANCH  15  16
ATOM     16  C   UNL     1       7.462   7.163  17.402  0.00  0.00    +0.000 C 
BRANCH  16  18
ATOM     17  C   UNL     1       7.849   5.752  19.243  0.00  0.00    +0.000 C 
ATOM     18  O   UNL     1       8.128   7.020  18.656  0.00  0.00    +0.000 OA
ENDBRANCH  16  18
ENDBRANCH  15  16
ENDBRANCH  14  15
BRANCH  14  19
ATOM     19  C   UNL     1       5.948   5.354  14.676  0.00  0.00    +0.000 C 
BRANCH  19  20
ATOM     20  C   UNL     1       6.193   3.949  14.069  0.00  0.00    +0.000 C 
BRANCH  20  21
ATOM     21  O   UNL     1       5.348   3.631  12.962  0.00  0.00    +0.000 OA
ATOM     22  C   UNL     1       5.999   2.849  11.968  0.00  0.00    +0.000 C 
ENDBRANCH  20  21
ENDBRANCH  19  20
ENDBRANCH  14  19
ENDBRANCH  13  14
ENDBRANCH   1  13
TORSDOF 8
ENDMDL
