MODEL 1
REMARK VINA RESULT:      -7.4      0.000      0.000
REMARK  Name = 
REMARK  11 active torsions:
REMARK  status: ('A' for Active; 'I' for Inactive)
REMARK    1  A    between atoms: C_1  and  C_2
REMARK    2  A    between atoms: C_2  and  C_3
REMARK    3  A    between atoms: C_4  and  C_5
REMARK    4  A    between atoms: C_5  and  C_6
REMARK    5  A    between atoms: C_6  and  C_7
REMARK    6  A    between atoms: C_7  and  C_8
REMARK    7  A    between atoms: C_9  and  C_10
REMARK    8  A    between atoms: C_10  and  O_11
REMARK    9  A    between atoms: O_11  and  C_12
REMARK   10  A    between atoms: C_12  and  C_14
REMARK   11  A    between atoms: C_18  and  C_19
REMARK                            x       y       z     vdW  Elec       q    Type
REMARK                         _______ _______ _______ _____ _____    ______ ____
ROOT
ATOM      1  C   UNL     1       5.528   5.894  16.473  0.00  0.00    +0.000 C 
ENDROOT
BRANCH   1   4
ATOM      2  C   UNL     1       7.362   6.323  18.202  0.00  0.00    +0.000 C 
ATOM      3  C   UNL     1       8.115   5.763  19.381  0.00  0.00    +0.000 C 
ATOM      4  C   UNL     1       6.391   5.560  17.656  0.00  0.00    +0.000 C 
BRANCH   2   5
ATOM      5  C   UNL     1       7.656   7.718  17.675  0.00  0.00    +0.000 C 
BRANCH   5   6
ATOM      6  C   UNL     1       8.570   8.606  18.529  0.00  0.00    +0.000 C 
BRANCH   6  10
ATOM      7  C   UNL     1       9.313  12.396  17.930  0.00  0.00    +0.000 C 
ATOM      8  C   UNL     1       9.202  11.067  18.625  0.00  0.00    +0.000 C 
ATOM      9  C   UNL     1       9.678  10.995  20.049  0.00  0.00    +0.000 C 
ATOM     10  C   UNL     1       8.701  10.000  17.970  0.00  0.00    +0.000 C 
ENDBRANCH   6  10
ENDBRANCH   5   6
ENDBRANCH   2   5
ENDBRANCH   1   4
BRANCH   1  11
ATOM     11  O   UNL     1       4.173   5.524  16.749  0.00  0.00    +0.000 OA
BRANCH  11  12
ATOM     12  C   UNL     1       3.506   6.344  17.595  0.00  0.00    +0.000 C 
ATOM     13  O   UNL     1       3.559   7.565  17.603  0.00  0.00    +0.000 OA
BRANCH  12  14
ATOM     14  C   UNL     1       2.675   5.557  18.545  0.00  0.00    +0.000 A 
ATOM     15  C   UNL     1       2.439   6.108  19.813  0.00  0.00    +0.000 A 
ATOM     16  C   UNL     1       1.660   5.422  20.744  0.00  0.00    +0.000 A 
ATOM     17  C   UNL     1       1.107   4.185  20.416  0.00  0.00    +0.000 A 
ATOM     18  C   UNL     1       1.327   3.620  19.154  0.00  0.00    +0.000 A 
ATOM     19  C   UNL     1       0.699   2.308  18.783  0.00  0.00    +0.000 C 
ATOM     20  C   UNL     1       2.119   4.311  18.222  0.00  0.00    +0.000 A 
ENDBRANCH  12  14
ENDBRANCH  11  12
ENDBRANCH   1  11
TORSDOF 7
ENDMDL
MODEL 2
REMARK VINA RESULT:      -7.3      3.857      7.816
REMARK  Name = 
REMARK  11 active torsions:
REMARK  status: ('A' for Active; 'I' for Inactive)
REMARK    1  A    between atoms: C_1  and  C_2
REMARK    2  A    between atoms: C_2  and  C_3
REMARK    3  A    between atoms: C_4  and  C_5
REMARK    4  A    between atoms: C_5  and  C_6
REMARK    5  A    between atoms: C_6  and  C_7
REMARK    6  A    between atoms: C_7  and  C_8
REMARK    7  A    between atoms: C_9  and  C_10
REMARK    8  A    between atoms: C_10  and  O_11
REMARK    9  A    between atoms: O_11  and  C_12
REMARK   10  A    between atoms: C_12  and  C_14
REMARK   11  A    between atoms: C_18  and  C_19
REMARK                            x       y       z     vdW  Elec       q    Type
REMARK                         _______ _______ _______ _____ _____    ______ ____
ROOT
ATOM      1  C   UNL     1       4.955   4.316  17.525  0.00  0.00    +0.000 C 
ENDROOT
BRANCH   1   4
ATOM      2  C   UNL     1       2.970   5.552  18.558  0.00  0.00    +0.000 C 
ATOM      3  C   UNL     1       2.537   6.592  19.558  0.00  0.00    +0.000 C 
ATOM      4  C   UNL     1       4.290   5.287  18.457  0.00  0.00    +0.000 C 
BRANCH   2   5
ATOM      5  C   UNL     1       1.950   4.795  17.722  0.00  0.00    +0.000 C 
BRANCH   5   6
ATOM      6  C   UNL     1       1.725   3.318  18.071  0.00  0.00    +0.000 C 
BRANCH   6  10
ATOM      7  C   UNL     1       1.338   2.647  21.901  0.00  0.00    +0.000 C 
ATOM      8  C   UNL     1       1.964   2.754  20.538  0.00  0.00    +0.000 C 
ATOM      9  C   UNL     1       3.429   2.436  20.429  0.00  0.00    +0.000 C 
ATOM     10  C   UNL     1       1.220   3.132  19.479  0.00  0.00    +0.000 C 
ENDBRANCH   6  10
ENDBRANCH   5   6
ENDBRANCH   2   5
ENDBRANCH   1   4
BRANCH   1  11
ATOM     11  O   UNL     1       5.194   4.948  16.263  0.00  0.00    +0.000 OA
BRANCH  11  12
ATOM     12  C   UNL     1       6.496   5.078  15.914  0.00  0.00    +0.000 C 
ATOM     13  O   UNL     1       7.409   5.409  16.656  0.00  0.00    +0.000 OA
BRANCH  12  14
ATOM     14  C   UNL     1       6.690   4.758  14.475  0.00  0.00    +0.000 A 
ATOM     15  C   UNL     1       7.695   5.450  13.784  0.00  0.00    +0.000 A 
ATOM     16  C   UNL     1       7.931   5.189  12.435  0.00  0.00    +0.000 A 
ATOM     17  C   UNL     1       7.169   4.232  11.766  0.00  0.00    +0.000 A 
ATOM     18  C   UNL     1       6.163   3.526  12.438  0.00  0.00    +0.000 A 
ATOM     19  C   UNL     1       5.370   2.466  11.732  0.00  0.00    +0.000 C 
ATOM     20  C   UNL     1       5.924   3.799  13.795  0.00  0.00    +0.000 A 
ENDBRANCH  12  14
ENDBRANCH  11  12
ENDBRANCH   1  11
TORSDOF 7
ENDMDL
MODEL 3
REMARK VINA RESULT:      -7.2      3.076      5.370
REMARK  Name = 
REMARK  11 active torsions:
REMARK  status: ('A' for Active; 'I' for Inactive)
REMARK    1  A    between atoms: C_1  and  C_2
REMARK    2  A    between atoms: C_2  and  C_3
REMARK    3  A    between atoms: C_4  and  C_5
REMARK    4  A    between atoms: C_5  and  C_6
REMARK    5  A    between atoms: C_6  and  C_7
REMARK    6  A    between atoms: C_7  and  C_8
REMARK    7  A    between atoms: C_9  and  C_10
REMARK    8  A    between atoms: C_10  and  O_11
REMARK    9  A    between atoms: O_11  and  C_12
REMARK   10  A    between atoms: C_12  and  C_14
REMARK   11  A    between atoms: C_18  and  C_19
REMARK                            x       y       z     vdW  Elec       q    Type
REMARK                         _______ _______ _______ _____ _____    ______ ____
ROOT
ATOM      1  C   UNL     1       4.781   6.952  17.564  0.00  0.00    +0.000 C 
ENDROOT
BRANCH   1   4
ATOM      2  C   UNL     1       6.460   5.054  17.220  0.00  0.00    +0.000 C 
ATOM      3  C   UNL     1       7.777   4.466  17.653  0.00  0.00    +0.000 C 
ATOM      4  C   UNL     1       6.055   6.197  17.813  0.00  0.00    +0.000 C 
BRANCH   2   5
ATOM      5  C   UNL     1       5.635   4.406  16.119  0.00  0.00    +0.000 C 
BRANCH   5   6
ATOM      6  C   UNL     1       6.255   4.367  14.717  0.00  0.00    +0.000 C 
BRANCH   6  10
ATOM      7  C   UNL     1       4.463   3.132  11.471  0.00  0.00    +0.000 C 
ATOM      8  C   UNL     1       5.559   3.543  12.415  0.00  0.00    +0.000 C 
ATOM      9  C   UNL     1       6.971   3.450  11.908  0.00  0.00    +0.000 C 
ATOM     10  C   UNL     1       5.259   3.965  13.660  0.00  0.00    +0.000 C 
ENDBRANCH   6  10
ENDBRANCH   5   6
ENDBRANCH   2   5
ENDBRANCH   1   4
BRANCH   1  11
ATOM     11  O   UNL     1       3.867   6.717  18.640  0.00  0.00    +0.000 OA
BRANCH  11  12
ATOM     12  C   UNL     1       2.597   6.427  18.272  0.00  0.00    +0.000 C 
ATOM     13  O   UNL     1       1.814   7.192  17.727  0.00  0.00    +0.000 OA
BRANCH  12  14
ATOM     14  C   UNL     1       2.256   5.021  18.618  0.00  0.00    +0.000 A 
ATOM     15  C   UNL     1       2.293   4.070  17.589  0.00  0.00    +0.000 A 
ATOM     16  C   UNL     1       1.992   2.734  17.853  0.00  0.00    +0.000 A 
ATOM     17  C   UNL     1       1.656   2.337  19.145  0.00  0.00    +0.000 A 
ATOM     18  C   UNL     1       1.616   3.271  20.189  0.00  0.00    +0.000 A 
ATOM     19  C   UNL     1       1.294   2.839  21.590  0.00  0.00    +0.000 C 
ATOM     20  C   UNL     1       1.912   4.616  19.917  0.00  0.00    +0.000 A 
ENDBRANCH  12  14
ENDBRANCH  11  12
ENDBRANCH   1  11
TORSDOF 7
ENDMDL
MODEL 4
REMARK VINA RESULT:      -7.1      1.754      2.551
REMARK  Name = 
REMARK  11 active torsions:
REMARK  status: ('A' for Active; 'I' for Inactive)
REMARK    1  A    between atoms: C_1  and  C_2
REMARK    2  A    between atoms: C_2  and  C_3
REMARK    3  A    between atoms: C_4  and  C_5
REMARK    4  A    between atoms: C_5  and  C_6
REMARK    5  A    between atoms: C_6  and  C_7
REMARK    6  A    between atoms: C_7  and  C_8
REMARK    7  A    between atoms: C_9  and  C_10
REMARK    8  A    between atoms: C_10  and  O_11
REMARK    9  A    between atoms: O_11  and  C_12
REMARK   10  A    between atoms: C_12  and  C_14
REMARK   11  A    between atoms: C_18  and  C_19
REMARK                            x       y       z     vdW  Elec       q    Type
REMARK                         _______ _______ _______ _____ _____    ______ ____
ROOT
ATOM      1  C   UNL     1       6.678   4.690  16.355  0.00  0.00    +0.000 C 
ENDROOT
BRANCH   1   4
ATOM      2  C   UNL     1       7.655   5.789  18.447  0.00  0.00    +0.000 C 
ATOM      3  C   UNL     1       8.125   5.571  19.862  0.00  0.00    +0.000 C 
ATOM      4  C   UNL     1       7.178   4.722  17.770  0.00  0.00    +0.000 C 
BRANCH   2   5
ATOM      5  C   UNL     1       7.675   7.173  17.818  0.00  0.00    +0.000 C 
BRANCH   5   6
ATOM      6  C   UNL     1       8.516   8.245  18.523  0.00  0.00    +0.000 C 
BRANCH   6  10
ATOM      7  C   UNL     1       8.599  12.059  17.676  0.00  0.00    +0.000 C 
ATOM      8  C   UNL     1       8.889  10.755  18.366  0.00  0.00    +0.000 C 
ATOM      9  C   UNL     1       9.867  10.785  19.506  0.00  0.00    +0.000 C 
ATOM     10  C   UNL     1       8.289   9.621  17.951  0.00  0.00    +0.000 C 
ENDBRANCH   6  10
ENDBRANCH   5   6
ENDBRANCH   2   5
ENDBRANCH   1   4
BRANCH   1  11
ATOM     11  O   UNL     1       5.258   4.871  16.344  0.00  0.00    +0.000 OA
BRANCH  11  12
ATOM     12  C   UNL     1       4.834   6.147  16.190  0.00  0.00    +0.000 C 
ATOM     13  O   UNL     1       5.129   6.895  15.269  0.00  0.00    +0.000 OA
BRANCH  12  14
ATOM     14  C   UNL     1       3.936   6.544  17.307  0.00  0.00    +0.000 A 
ATOM     15  C   UNL     1       3.845   5.679  18.407  0.00  0.00    +0.000 A 
ATOM     16  C   UNL     1       3.026   6.000  19.490  0.00  0.00    +0.000 A 
ATOM     17  C   UNL     1       2.298   7.188  19.485  0.00  0.00    +0.000 A 
ATOM     18  C   UNL     1       2.378   8.068  18.398  0.00  0.00    +0.000 A 
ATOM     19  C   UNL     1       1.627   9.367  18.409  0.00  0.00    +0.000 C 
ATOM     20  C   UNL     1       3.197   7.736  17.307  0.00  0.00    +0.000 A 
ENDBRANCH  12  14
ENDBRANCH  11  12
ENDBRANCH   1  11
TORSDOF 7
ENDMDL
MODEL 5
REMARK VINA RESULT:      -7.1      3.822      7.788
REMARK  Name = 
REMARK  11 active torsions:
REMARK  status: ('A' for Active; 'I' for Inactive)
REMARK    1  A    between atoms: C_1  and  C_2
REMARK    2  A    between atoms: C_2  and  C_3
REMARK    3  A    between atoms: C_4  and  C_5
REMARK    4  A    between atoms: C_5  and  C_6
REMARK    5  A    between atoms: C_6  and  C_7
REMARK    6  A    between atoms: C_7  and  C_8
REMARK    7  A    between atoms: C_9  and  C_10
REMARK    8  A    between atoms: C_10  and  O_11
REMARK    9  A    between atoms: O_11  and  C_12
REMARK   10  A    between atoms: C_12  and  C_14
REMARK   11  A    between atoms: C_18  and  C_19
REMARK                            x       y       z     vdW  Elec       q    Type
REMARK                         _______ _______ _______ _____ _____    ______ ____
ROOT
ATOM      1  C   UNL     1       5.042   4.942  17.771  0.00  0.00    +0.000 C 
ENDROOT
BRANCH   1   4
ATOM      2  C   UNL     1       3.567   2.859  17.921  0.00  0.00    +0.000 C 
ATOM      3  C   UNL     1       3.501   1.408  18.324  0.00  0.00    +0.000 C 
ATOM      4  C   UNL     1       4.743   3.503  18.079  0.00  0.00    +0.000 C 
BRANCH   2   5
ATOM      5  C   UNL     1       2.362   3.560  17.314  0.00  0.00    +0.000 C 
BRANCH   5   6
ATOM      6  C   UNL     1       1.051   3.499  18.108  0.00  0.00    +0.000 C 
BRANCH   6  10
ATOM      7  C   UNL     1       1.691   3.034  21.935  0.00  0.00    +0.000 C 
ATOM      8  C   UNL     1       1.563   3.695  20.590  0.00  0.00    +0.000 C 
ATOM      9  C   UNL     1       1.790   5.179  20.531  0.00  0.00    +0.000 C 
ATOM     10  C   UNL     1       1.249   2.963  19.502  0.00  0.00    +0.000 C 
ENDBRANCH   6  10
ENDBRANCH   5   6
ENDBRANCH   2   5
ENDBRANCH   1   4
BRANCH   1  11
ATOM     11  O   UNL     1       5.313   5.087  16.373  0.00  0.00    +0.000 OA
BRANCH  11  12
ATOM     12  C   UNL     1       6.622   5.057  16.027  0.00  0.00    +0.000 C 
ATOM     13  O   UNL     1       7.567   5.236  16.781  0.00  0.00    +0.000 OA
BRANCH  12  14
ATOM     14  C   UNL     1       6.778   4.772  14.576  0.00  0.00    +0.000 A 
ATOM     15  C   UNL     1       7.755   5.490  13.873  0.00  0.00    +0.000 A 
ATOM     16  C   UNL     1       7.955   5.261  12.512  0.00  0.00    +0.000 A 
ATOM     17  C   UNL     1       7.185   4.310  11.844  0.00  0.00    +0.000 A 
ATOM     18  C   UNL     1       6.206   3.579  12.529  0.00  0.00    +0.000 A 
ATOM     19  C   UNL     1       5.404   2.526  11.822  0.00  0.00    +0.000 C 
ATOM     20  C   UNL     1       6.003   3.819  13.897  0.00  0.00    +0.000 A 
ENDBRANCH  12  14
ENDBRANCH  11  12
ENDBRANCH   1  11
TORSDOF 7
ENDMDL
MODEL 6
REMARK VINA RESULT:      -7.0      3.700      7.703
REMARK  Name = 
REMARK  11 active torsions:
REMARK  status: ('A' for Active; 'I' for Inactive)
REMARK    1  A    between atoms: C_1  and  C_2
REMARK    2  A    between atoms: C_2  and  C_3
REMARK    3  A    between atoms: C_4  and  C_5
REMARK    4  A    between atoms: C_5  and  C_6
REMARK    5  A    between atoms: C_6  and  C_7
REMARK    6  A    between atoms: C_7  and  C_8
REMARK    7  A    between atoms: C_9  and  C_10
REMARK    8  A    between atoms: C_10  and  O_11
REMARK    9  A    between atoms: O_11  and  C_12
REMARK   10  A    between atoms: C_12  and  C_14
REMARK   11  A    between atoms: C_18  and  C_19
REMARK                            x       y       z     vdW  Elec       q    Type
REMARK                         _______ _______ _______ _____ _____    ______ ____
ROOT
ATOM      1  C   UNL     1       5.053   6.543  15.908  0.00  0.00    +0.000 C 
ENDROOT
BRANCH   1   4
ATOM      2  C   UNL     1       3.818   5.765  18.007  0.00  0.00    +0.000 C 
ATOM      3  C   UNL     1       3.218   6.184  19.324  0.00  0.00    +0.000 C 
ATOM      4  C   UNL     1       4.410   6.716  17.254  0.00  0.00    +0.000 C 
BRANCH   2   5
ATOM      5  C   UNL     1       3.795   4.311  17.563  0.00  0.00    +0.000 C 
BRANCH   5   6
ATOM      6  C   UNL     1       2.570   3.480  17.964  0.00  0.00    +0.000 C 
BRANCH   6  10
ATOM      7  C   UNL     1       2.165   2.386  21.694  0.00  0.00    +0.000 C 
ATOM      8  C   UNL     1       1.926   3.105  20.395  0.00  0.00    +0.000 C 
ATOM      9  C   UNL     1       0.779   4.074  20.348  0.00  0.00    +0.000 C 
ATOM     10  C   UNL     1       2.719   2.863  19.331  0.00  0.00    +0.000 C 
ENDBRANCH   6  10
ENDBRANCH   5   6
ENDBRANCH   2   5
ENDBRANCH   1   4
BRANCH   1  11
ATOM     11  O   UNL     1       6.467   6.387  16.067  0.00  0.00    +0.000 OA
BRANCH  11  12
ATOM     12  C   UNL     1       6.942   5.137  15.857  0.00  0.00    +0.000 C 
ATOM     13  O   UNL     1       7.303   4.351  16.722  0.00  0.00    +0.000 OA
BRANCH  12  14
ATOM     14  C   UNL     1       6.973   4.822  14.404  0.00  0.00    +0.000 A 
ATOM     15  C   UNL     1       7.852   5.557  13.597  0.00  0.00    +0.000 A 
ATOM     16  C   UNL     1       7.933   5.302  12.228  0.00  0.00    +0.000 A 
ATOM     17  C   UNL     1       7.141   4.309  11.656  0.00  0.00    +0.000 A 
ATOM     18  C   UNL     1       6.258   3.560  12.445  0.00  0.00    +0.000 A 
ATOM     19  C   UNL     1       5.434   2.462  11.839  0.00  0.00    +0.000 C 
ATOM     20  C   UNL     1       6.175   3.826  13.821  0.00  0.00    +0.000 A 
ENDBRANCH  12  14
ENDBRANCH  11  12
ENDBRANCH   1  11
TORSDOF 7
ENDMDL
MODEL 7
REMARK VINA RESULT:      -7.0      3.526      6.078
REMARK  Name = 
REMARK  11 active torsions:
REMARK  status: ('A' for Active; 'I' for Inactive)
REMARK    1  A    between atoms: C_1  and  C_2
REMARK    2  A    between atoms: C_2  and  C_3
REMARK    3  A    between atoms: C_4  and  C_5
REMARK    4  A    between atoms: C_5  and  C_6
REMARK    5  A    between atoms: C_6  and  C_7
REMARK    6  A    between atoms: C_7  and  C_8
REMARK    7  A    between atoms: C_9  and  C_10
REMARK    8  A    between atoms: C_10  and  O_11
REMARK    9  A    between atoms: O_11  and  C_12
REMARK   10  A    between atoms: C_12  and  C_14
REMARK   11  A    between atoms: C_18  and  C_19
REMARK                            x       y       z     vdW  Elec       q    Type
REMARK                         _______ _______ _______ _____ _____    ______ ____
ROOT
ATOM      1  C   UNL     1       4.351   3.290  19.845  0.00  0.00    +0.000 C 
ENDROOT
BRANCH   1   4
ATOM      2  C   UNL     1       2.317   4.376  18.740  0.00  0.00    +0.000 C 
ATOM      3  C   UNL     1       1.330   4.299  17.604  0.00  0.00    +0.000 C 
ATOM      4  C   UNL     1       3.279   3.431  18.803  0.00  0.00    +0.000 C 
BRANCH   2   5
ATOM      5  C   UNL     1       2.259   5.507  19.755  0.00  0.00    +0.000 C 
BRANCH   5   6
ATOM      6  C   UNL     1       2.584   6.916  19.244  0.00  0.00    +0.000 C 
BRANCH   6  10
ATOM      7  C   UNL     1       0.456  10.076  20.115  0.00  0.00    +0.000 C 
ATOM      8  C   UNL     1       1.324   9.122  19.342  0.00  0.00    +0.000 C 
ATOM      9  C   UNL     1       1.677   9.505  17.932  0.00  0.00    +0.000 C 
ATOM     10  C   UNL     1       1.746   7.976  19.913  0.00  0.00    +0.000 C 
ENDBRANCH   6  10
ENDBRANCH   5   6
ENDBRANCH   2   5
ENDBRANCH   1   4
BRANCH   1  11
ATOM     11  O   UNL     1       5.637   3.398  19.227  0.00  0.00    +0.000 OA
BRANCH  11  12
ATOM     12  C   UNL     1       6.080   4.660  19.021  0.00  0.00    +0.000 C 
ATOM     13  O   UNL     1       6.626   5.374  19.850  0.00  0.00    +0.000 OA
BRANCH  12  14
ATOM     14  C   UNL     1       5.818   5.090  17.622  0.00  0.00    +0.000 A 
ATOM     15  C   UNL     1       5.307   6.380  17.422  0.00  0.00    +0.000 A 
ATOM     16  C   UNL     1       5.048   6.843  16.132  0.00  0.00    +0.000 A 
ATOM     17  C   UNL     1       5.303   6.025  15.033  0.00  0.00    +0.000 A 
ATOM     18  C   UNL     1       5.817   4.734  15.210  0.00  0.00    +0.000 A 
ATOM     19  C   UNL     1       6.130   3.867  14.027  0.00  0.00    +0.000 C 
ATOM     20  C   UNL     1       6.068   4.270  16.511  0.00  0.00    +0.000 A 
ENDBRANCH  12  14
ENDBRANCH  11  12
ENDBRANCH   1  11
TORSDOF 7
ENDMDL
MODEL 8
REMARK VINA RESULT:      -7.0      3.425      4.721
REMARK  Name = 
REMARK  11 active torsions:
REMARK  status: ('A' for Active; 'I' for Inactive)
REMARK    1  A    between atoms: C_1  and  C_2
REMARK    2  A    between atoms: C_2  and  C_3
REMARK    3  A    between atoms: C_4  and  C_5
REMARK    4  A    between atoms: C_5  and  C_6
REMARK    5  A    between atoms: C_6  and  C_7
REMARK    6  A    between atoms: C_7  and  C_8
REMARK    7  A    between atoms: C_9  and  C_10
REMARK    8  A    between atoms: C_10  and  O_11
REMARK    9  A    between atoms: O_11  and  C_12
REMARK   10  A    between atoms: C_12  and  C_14
REMARK   11  A    between atoms: C_18  and  C_19
REMARK                            x       y       z     vdW  Elec       q    Type
REMARK                         _______ _______ _______ _____ _____    ______ ____
ROOT
ATOM      1  C   UNL     1       7.531   4.695  18.033  0.00  0.00    +0.000 C 
ENDROOT
BRANCH   1   4
ATOM      2  C   UNL     1       6.589   5.313  15.738  0.00  0.00    +0.000 C 
ATOM      3  C   UNL     1       6.547   4.957  14.274  0.00  0.00    +0.000 C 
ATOM      4  C   UNL     1       7.350   4.549  16.550  0.00  0.00    +0.000 C 
BRANCH   2   5
ATOM      5  C   UNL     1       5.837   6.521  16.274  0.00  0.00    +0.000 C 
BRANCH   5   6
ATOM      6  C   UNL     1       4.311   6.400  16.373  0.00  0.00    +0.000 C 
BRANCH   6  10
ATOM      7  C   UNL     1       2.189   7.751  19.365  0.00  0.00    +0.000 C 
ATOM      8  C   UNL     1       2.616   6.898  18.202  0.00  0.00    +0.000 C 
ATOM      9  C   UNL     1       1.739   5.729  17.850  0.00  0.00    +0.000 C 
ATOM     10  C   UNL     1       3.747   7.189  17.528  0.00  0.00    +0.000 C 
ENDBRANCH   6  10
ENDBRANCH   5   6
ENDBRANCH   2   5
ENDBRANCH   1   4
BRANCH   1  11
ATOM     11  O   UNL     1       6.576   3.877  18.716  0.00  0.00    +0.000 OA
BRANCH  11  12
ATOM     12  C   UNL     1       5.533   4.538  19.269  0.00  0.00    +0.000 C 
ATOM     13  O   UNL     1       5.568   5.661  19.750  0.00  0.00    +0.000 OA
BRANCH  12  14
ATOM     14  C   UNL     1       4.298   3.710  19.220  0.00  0.00    +0.000 A 
ATOM     15  C   UNL     1       4.071   2.947  18.065  0.00  0.00    +0.000 A 
ATOM     16  C   UNL     1       2.935   2.145  17.963  0.00  0.00    +0.000 A 
ATOM     17  C   UNL     1       2.020   2.094  19.013  0.00  0.00    +0.000 A 
ATOM     18  C   UNL     1       2.229   2.846  20.176  0.00  0.00    +0.000 A 
ATOM     19  C   UNL     1       1.267   2.761  21.324  0.00  0.00    +0.000 C 
ATOM     20  C   UNL     1       3.371   3.658  20.271  0.00  0.00    +0.000 A 
ENDBRANCH  12  14
ENDBRANCH  11  12
ENDBRANCH   1  11
TORSDOF 7
ENDMDL
MODEL 9
REMARK VINA RESULT:      -7.0      3.844      7.771
REMARK  Name = 
REMARK  11 active torsions:
REMARK  status: ('A' for Active; 'I' for Inactive)
REMARK    1  A    between atoms: C_1  and  C_2
REMARK    2  A    between atoms: C_2  and  C_3
REMARK    3  A    between atoms: C_4  and  C_5
REMARK    4  A    between atoms: C_5  and  C_6
REMARK    5  A    between atoms: C_6  and  C_7
REMARK    6  A    between atoms: C_7  and  C_8
REMARK    7  A    between atoms: C_9  and  C_10
REMARK    8  A    between atoms: C_10  and  O_11
REMARK    9  A    between atoms: O_11  and  C_12
REMARK   10  A    between atoms: C_12  and  C_14
REMARK   11  A    between atoms: C_18  and  C_19
REMARK                            x       y       z     vdW  Elec       q    Type
REMARK                         _______ _______ _______ _____ _____    ______ ____
ROOT
ATOM      1  C   UNL     1       4.716   5.272  16.379  0.00  0.00    +0.000 C 
ENDROOT
BRANCH   1   4
ATOM      2  C   UNL     1       4.047   5.273  18.847  0.00  0.00    +0.000 C 
ATOM      3  C   UNL     1       3.229   5.954  19.913  0.00  0.00    +0.000 C 
ATOM      4  C   UNL     1       4.008   5.787  17.599  0.00  0.00    +0.000 C 
BRANCH   2   5
ATOM      5  C   UNL     1       4.923   4.074  19.175  0.00  0.00    +0.000 C 
BRANCH   5   6
ATOM      6  C   UNL     1       4.230   2.858  19.804  0.00  0.00    +0.000 C 
BRANCH   6  10
ATOM      7  C   UNL     1       0.528   2.152  18.768  0.00  0.00    +0.000 C 
ATOM      8  C   UNL     1       1.719   2.510  19.615  0.00  0.00    +0.000 C 
ATOM      9  C   UNL     1       1.454   2.892  21.044  0.00  0.00    +0.000 C 
ATOM     10  C   UNL     1       2.958   2.487  19.084  0.00  0.00    +0.000 C 
ENDBRANCH   6  10
ENDBRANCH   5   6
ENDBRANCH   2   5
ENDBRANCH   1   4
BRANCH   1  11
ATOM     11  O   UNL     1       6.043   5.807  16.332  0.00  0.00    +0.000 OA
BRANCH  11  12
ATOM     12  C   UNL     1       7.011   4.932  15.974  0.00  0.00    +0.000 C 
ATOM     13  O   UNL     1       7.793   4.376  16.732  0.00  0.00    +0.000 OA
BRANCH  12  14
ATOM     14  C   UNL     1       7.011   4.719  14.502  0.00  0.00    +0.000 A 
ATOM     15  C   UNL     1       7.860   5.522  13.728  0.00  0.00    +0.000 A 
ATOM     16  C   UNL     1       7.911   5.364  12.343  0.00  0.00    +0.000 A 
ATOM     17  C   UNL     1       7.119   4.400  11.722  0.00  0.00    +0.000 A 
ATOM     18  C   UNL     1       6.267   3.584  12.477  0.00  0.00    +0.000 A 
ATOM     19  C   UNL     1       5.443   2.518  11.815  0.00  0.00    +0.000 C 
ATOM     20  C   UNL     1       6.213   3.753  13.870  0.00  0.00    +0.000 A 
ENDBRANCH  12  14
ENDBRANCH  11  12
ENDBRANCH   1  11
TORSDOF 7
ENDMDL
