MODEL 1
REMARK VINA RESULT:      -6.9      0.000      0.000
REMARK  Name = 
REMARK  7 active torsions:
REMARK  status: ('A' for Active; 'I' for Inactive)
REMARK    1  A    between atoms: C_1  and  O_2
REMARK    2  A    between atoms: O_2  and  C_3
REMARK    3  A    between atoms: C_6  and  C_7
REMARK    4  A    between atoms: C_7  and  C_9
REMARK    5  A    between atoms: C_10  and  C_11
REMARK    6  A    between atoms: C_19  and  O_20
REMARK    7  A    between atoms: O_20  and  C_21
REMARK                            x       y       z     vdW  Elec       q    Type
REMARK                         _______ _______ _______ _____ _____    ______ ____
ROOT
ATOM      1  C   UNL     1       3.901   3.773  17.912  0.00  0.00    +0.000 C 
ATOM      2  O   UNL     1       3.780   2.591  18.208  0.00  0.00    +0.000 OA
ENDROOT
BRANCH   1   6
ATOM      3  C   UNL     1       7.019   5.030  15.188  0.00  0.00    +0.000 A 
ATOM      4  C   UNL     1       5.730   4.774  14.732  0.00  0.00    +0.000 A 
ATOM      5  C   UNL     1       4.729   4.379  15.621  0.00  0.00    +0.000 A 
ATOM      6  C   UNL     1       4.991   4.263  16.999  0.00  0.00    +0.000 A 
ATOM      7  C   UNL     1       6.292   4.544  17.469  0.00  0.00    +0.000 A 
ATOM      8  C   UNL     1       7.293   4.913  16.551  0.00  0.00    +0.000 A 
BRANCH   3  10
ATOM      9  C   UNL     1       7.599   5.008  12.880  0.00  0.00    +0.000 C 
ATOM     10  O   UNL     1       7.915   5.383  14.217  0.00  0.00    +0.000 OA
ENDBRANCH   3  10
BRANCH   7  11
ATOM     11  O   UNL     1       6.521   4.466  18.821  0.00  0.00    +0.000 OA
ATOM     12  C   UNL     1       7.203   5.548  19.448  0.00  0.00    +0.000 C 
ENDBRANCH   7  11
ENDBRANCH   1   6
BRANCH   1  13
ATOM     13  C   UNL     1       2.912   4.785  18.407  0.00  0.00    +0.000 C 
ATOM     14  C   UNL     1       3.336   5.993  18.815  0.00  0.00    +0.000 C 
BRANCH  14  15
ATOM     15  C   UNL     1       2.443   6.966  19.464  0.00  0.00    +0.000 A 
ATOM     16  C   UNL     1       1.908   6.657  20.725  0.00  0.00    +0.000 A 
ATOM     17  C   UNL     1       1.034   7.541  21.363  0.00  0.00    +0.000 A 
ATOM     18  C   UNL     1       0.690   8.746  20.755  0.00  0.00    +0.000 A 
ATOM     19  C   UNL     1       1.221   9.076  19.504  0.00  0.00    +0.000 A 
ATOM     20 CL   UNL     1       0.749  10.595  18.821  0.00  0.00    +0.000 Cl
ATOM     21  C   UNL     1       2.097   8.191  18.852  0.00  0.00    +0.000 A 
ATOM     22 CL   UNL     1       2.762   8.600  17.298  0.00  0.00    +0.000 Cl
ENDBRANCH  14  15
ENDBRANCH   1  13
TORSDOF 5
ENDMDL
MODEL 2
REMARK VINA RESULT:      -6.9      1.608      2.024
REMARK  Name = 
REMARK  7 active torsions:
REMARK  status: ('A' for Active; 'I' for Inactive)
REMARK    1  A    between atoms: C_1  and  O_2
REMARK    2  A    between atoms: O_2  and  C_3
REMARK    3  A    between atoms: C_6  and  C_7
REMARK    4  A    between atoms: C_7  and  C_9
REMARK    5  A    between atoms: C_10  and  C_11
REMARK    6  A    between atoms: C_19  and  O_20
REMARK    7  A    between atoms: O_20  and  C_21
REMARK                            x       y       z     vdW  Elec       q    Type
REMARK                         _______ _______ _______ _____ _____    ______ ____
ROOT
ATOM      1  C   UNL     1       4.581   4.762  18.806  0.00  0.00    +0.000 C 
ATOM      2  O   UNL     1       4.445   3.796  19.546  0.00  0.00    +0.000 OA
ENDROOT
BRANCH   1   6
ATOM      3  C   UNL     1       6.599   4.339  15.003  0.00  0.00    +0.000 A 
ATOM      4  C   UNL     1       5.210   4.374  15.076  0.00  0.00    +0.000 A 
ATOM      5  C   UNL     1       4.569   4.521  16.308  0.00  0.00    +0.000 A 
ATOM      6  C   UNL     1       5.311   4.671  17.495  0.00  0.00    +0.000 A 
ATOM      7  C   UNL     1       6.720   4.659  17.421  0.00  0.00    +0.000 A 
ATOM      8  C   UNL     1       7.345   4.481  16.172  0.00  0.00    +0.000 A 
BRANCH   3  10
ATOM      9  C   UNL     1       6.229   3.614  12.766  0.00  0.00    +0.000 C 
ATOM     10  O   UNL     1       7.105   4.164  13.744  0.00  0.00    +0.000 OA
ENDBRANCH   3  10
BRANCH   7  11
ATOM     11  O   UNL     1       7.429   4.846  18.582  0.00  0.00    +0.000 OA
ATOM     12  C   UNL     1       7.852   6.169  18.902  0.00  0.00    +0.000 C 
ENDBRANCH   7  11
ENDBRANCH   1   6
BRANCH   1  13
ATOM     13  C   UNL     1       3.959   6.080  19.156  0.00  0.00    +0.000 C 
ATOM     14  C   UNL     1       2.775   6.425  18.623  0.00  0.00    +0.000 C 
BRANCH  14  15
ATOM     15  C   UNL     1       2.193   7.766  18.793  0.00  0.00    +0.000 A 
ATOM     16  C   UNL     1       2.362   8.712  17.769  0.00  0.00    +0.000 A 
ATOM     17  C   UNL     1       1.850  10.005  17.903  0.00  0.00    +0.000 A 
ATOM     18  C   UNL     1       1.156  10.367  19.055  0.00  0.00    +0.000 A 
ATOM     19  C   UNL     1       0.968   9.436  20.082  0.00  0.00    +0.000 A 
ATOM     20 CL   UNL     1       0.088   9.964  21.476  0.00  0.00    +0.000 Cl
ATOM     21  C   UNL     1       1.484   8.135  19.958  0.00  0.00    +0.000 A 
ATOM     22 CL   UNL     1       1.249   6.973  21.231  0.00  0.00    +0.000 Cl
ENDBRANCH  14  15
ENDBRANCH   1  13
TORSDOF 5
ENDMDL
MODEL 3
REMARK VINA RESULT:      -6.8      1.443      2.722
REMARK  Name = 
REMARK  7 active torsions:
REMARK  status: ('A' for Active; 'I' for Inactive)
REMARK    1  A    between atoms: C_1  and  O_2
REMARK    2  A    between atoms: O_2  and  C_3
REMARK    3  A    between atoms: C_6  and  C_7
REMARK    4  A    between atoms: C_7  and  C_9
REMARK    5  A    between atoms: C_10  and  C_11
REMARK    6  A    between atoms: C_19  and  O_20
REMARK    7  A    between atoms: O_20  and  C_21
REMARK                            x       y       z     vdW  Elec       q    Type
REMARK                         _______ _______ _______ _____ _____    ______ ____
ROOT
ATOM      1  C   UNL     1       2.914   4.541  20.158  0.00  0.00    +0.000 C 
ATOM      2  O   UNL     1       2.781   3.502  20.792  0.00  0.00    +0.000 OA
ENDROOT
BRANCH   1   6
ATOM      3  C   UNL     1       5.851   5.140  17.039  0.00  0.00    +0.000 A 
ATOM      4  C   UNL     1       6.116   5.513  18.352  0.00  0.00    +0.000 A 
ATOM      5  C   UNL     1       5.165   5.306  19.353  0.00  0.00    +0.000 A 
ATOM      6  C   UNL     1       3.935   4.687  19.063  0.00  0.00    +0.000 A 
ATOM      7  C   UNL     1       3.672   4.286  17.736  0.00  0.00    +0.000 A 
ATOM      8  C   UNL     1       4.634   4.530  16.738  0.00  0.00    +0.000 A 
BRANCH   3  10
ATOM      9  C   UNL     1       6.817   4.728  14.903  0.00  0.00    +0.000 C 
ATOM     10  O   UNL     1       6.851   5.420  16.147  0.00  0.00    +0.000 OA
ENDBRANCH   3  10
BRANCH   7  11
ATOM     11  O   UNL     1       2.485   3.647  17.478  0.00  0.00    +0.000 OA
ATOM     12  C   UNL     1       2.459   2.224  17.556  0.00  0.00    +0.000 C 
ENDBRANCH   7  11
ENDBRANCH   1   6
BRANCH   1  13
ATOM     13  C   UNL     1       2.007   5.707  20.411  0.00  0.00    +0.000 C 
ATOM     14  C   UNL     1       2.309   6.914  19.906  0.00  0.00    +0.000 C 
BRANCH  14  15
ATOM     15  C   UNL     1       1.554   8.128  20.254  0.00  0.00    +0.000 A 
ATOM     16  C   UNL     1       1.038   8.256  21.553  0.00  0.00    +0.000 A 
ATOM     17  C   UNL     1       0.292   9.380  21.916  0.00  0.00    +0.000 A 
ATOM     18  C   UNL     1       0.058  10.393  20.989  0.00  0.00    +0.000 A 
ATOM     19  C   UNL     1       0.573  10.290  19.692  0.00  0.00    +0.000 A 
ATOM     20 CL   UNL     1       0.244  11.596  18.605  0.00  0.00    +0.000 Cl
ATOM     21  C   UNL     1       1.321   9.161  19.317  0.00  0.00    +0.000 A 
ATOM     22 CL   UNL     1       1.965   9.030  17.707  0.00  0.00    +0.000 Cl
ENDBRANCH  14  15
ENDBRANCH   1  13
TORSDOF 5
ENDMDL
MODEL 4
REMARK VINA RESULT:      -6.8      1.091      1.364
REMARK  Name = 
REMARK  7 active torsions:
REMARK  status: ('A' for Active; 'I' for Inactive)
REMARK    1  A    between atoms: C_1  and  O_2
REMARK    2  A    between atoms: O_2  and  C_3
REMARK    3  A    between atoms: C_6  and  C_7
REMARK    4  A    between atoms: C_7  and  C_9
REMARK    5  A    between atoms: C_10  and  C_11
REMARK    6  A    between atoms: C_19  and  O_20
REMARK    7  A    between atoms: O_20  and  C_21
REMARK                            x       y       z     vdW  Elec       q    Type
REMARK                         _______ _______ _______ _____ _____    ______ ____
ROOT
ATOM      1  C   UNL     1       3.826   4.560  19.438  0.00  0.00    +0.000 C 
ATOM      2  O   UNL     1       3.432   3.525  19.961  0.00  0.00    +0.000 OA
ENDROOT
BRANCH   1   6
ATOM      3  C   UNL     1       6.371   4.375  15.944  0.00  0.00    +0.000 A 
ATOM      4  C   UNL     1       4.997   4.184  15.840  0.00  0.00    +0.000 A 
ATOM      5  C   UNL     1       4.184   4.256  16.972  0.00  0.00    +0.000 A 
ATOM      6  C   UNL     1       4.729   4.555  18.235  0.00  0.00    +0.000 A 
ATOM      7  C   UNL     1       6.119   4.773  18.341  0.00  0.00    +0.000 A 
ATOM      8  C   UNL     1       6.924   4.667  17.190  0.00  0.00    +0.000 A 
BRANCH   3  10
ATOM      9  C   UNL     1       6.301   3.955  13.602  0.00  0.00    +0.000 C 
ATOM     10  O   UNL     1       7.061   4.253  14.768  0.00  0.00    +0.000 OA
ENDBRANCH   3  10
BRANCH   7  11
ATOM     11  O   UNL     1       6.629   5.103  19.571  0.00  0.00    +0.000 OA
ATOM     12  C   UNL     1       7.915   5.716  19.621  0.00  0.00    +0.000 C 
ENDBRANCH   7  11
ENDBRANCH   1   6
BRANCH   1  13
ATOM     13  C   UNL     1       3.366   5.892  19.947  0.00  0.00    +0.000 C 
ATOM     14  C   UNL     1       2.073   6.241  19.841  0.00  0.00    +0.000 C 
BRANCH  14  15
ATOM     15  C   UNL     1       1.590   7.592  20.166  0.00  0.00    +0.000 A 
ATOM     16  C   UNL     1       1.016   7.821  21.426  0.00  0.00    +0.000 A 
ATOM     17  C   UNL     1       0.519   9.082  21.764  0.00  0.00    +0.000 A 
ATOM     18  C   UNL     1       0.596  10.132  20.851  0.00  0.00    +0.000 A 
ATOM     19  C   UNL     1       1.175   9.926  19.594  0.00  0.00    +0.000 A 
ATOM     20 CL   UNL     1       1.238  11.284  18.522  0.00  0.00    +0.000 Cl
ATOM     21  C   UNL     1       1.672   8.660  19.244  0.00  0.00    +0.000 A 
ATOM     22 CL   UNL     1       2.394   8.401  17.683  0.00  0.00    +0.000 Cl
ENDBRANCH  14  15
ENDBRANCH   1  13
TORSDOF 5
ENDMDL
MODEL 5
REMARK VINA RESULT:      -6.8      2.401      4.063
REMARK  Name = 
REMARK  7 active torsions:
REMARK  status: ('A' for Active; 'I' for Inactive)
REMARK    1  A    between atoms: C_1  and  O_2
REMARK    2  A    between atoms: O_2  and  C_3
REMARK    3  A    between atoms: C_6  and  C_7
REMARK    4  A    between atoms: C_7  and  C_9
REMARK    5  A    between atoms: C_10  and  C_11
REMARK    6  A    between atoms: C_19  and  O_20
REMARK    7  A    between atoms: O_20  and  C_21
REMARK                            x       y       z     vdW  Elec       q    Type
REMARK                         _______ _______ _______ _____ _____    ______ ____
ROOT
ATOM      1  C   UNL     1       2.350   5.843  20.130  0.00  0.00    +0.000 C 
ATOM      2  O   UNL     1       1.961   5.237  21.121  0.00  0.00    +0.000 OA
ENDROOT
BRANCH   1   6
ATOM      3  C   UNL     1       4.715   4.095  16.957  0.00  0.00    +0.000 A 
ATOM      4  C   UNL     1       5.284   4.973  17.874  0.00  0.00    +0.000 A 
ATOM      5  C   UNL     1       4.514   5.523  18.900  0.00  0.00    +0.000 A 
ATOM      6  C   UNL     1       3.158   5.178  19.050  0.00  0.00    +0.000 A 
ATOM      7  C   UNL     1       2.583   4.269  18.136  0.00  0.00    +0.000 A 
ATOM      8  C   UNL     1       3.371   3.749  17.092  0.00  0.00    +0.000 A 
BRANCH   3  10
ATOM      9  C   UNL     1       5.769   4.497  14.861  0.00  0.00    +0.000 C 
ATOM     10  O   UNL     1       5.566   3.646  15.984  0.00  0.00    +0.000 OA
ENDBRANCH   3  10
BRANCH   7  11
ATOM     11  O   UNL     1       1.270   3.912  18.320  0.00  0.00    +0.000 OA
ATOM     12  C   UNL     1       0.990   2.567  18.698  0.00  0.00    +0.000 C 
ENDBRANCH   7  11
ENDBRANCH   1   6
BRANCH   1  13
ATOM     13  C   UNL     1       1.974   7.278  19.922  0.00  0.00    +0.000 C 
ATOM     14  C   UNL     1       1.358   7.960  20.902  0.00  0.00    +0.000 C 
BRANCH  14  15
ATOM     15  C   UNL     1       0.816   9.314  20.704  0.00  0.00    +0.000 A 
ATOM     16  C   UNL     1       0.887   9.891  19.426  0.00  0.00    +0.000 A 
ATOM     17  C   UNL     1       0.409  11.184  19.202  0.00  0.00    +0.000 A 
ATOM     18  C   UNL     1      -0.153  11.914  20.247  0.00  0.00    +0.000 A 
ATOM     19  C   UNL     1      -0.243  11.351  21.525  0.00  0.00    +0.000 A 
ATOM     20 CL   UNL     1      -0.963  12.321  22.766  0.00  0.00    +0.000 Cl
ATOM     21  C   UNL     1       0.239  10.053  21.761  0.00  0.00    +0.000 A 
ATOM     22 CL   UNL     1       0.126   9.349  23.347  0.00  0.00    +0.000 Cl
ENDBRANCH  14  15
ENDBRANCH   1  13
TORSDOF 5
ENDMDL
MODEL 6
REMARK VINA RESULT:      -6.7      3.018      4.877
REMARK  Name = 
REMARK  7 active torsions:
REMARK  status: ('A' for Active; 'I' for Inactive)
REMARK    1  A    between atoms: C_1  and  O_2
REMARK    2  A    between atoms: O_2  and  C_3
REMARK    3  A    between atoms: C_6  and  C_7
REMARK    4  A    between atoms: C_7  and  C_9
REMARK    5  A    between atoms: C_10  and  C_11
REMARK    6  A    between atoms: C_19  and  O_20
REMARK    7  A    between atoms: O_20  and  C_21
REMARK                            x       y       z     vdW  Elec       q    Type
REMARK                         _______ _______ _______ _____ _____    ______ ____
ROOT
ATOM      1  C   UNL     1       3.321   6.997  17.557  0.00  0.00    +0.000 C 
ATOM      2  O   UNL     1       4.281   7.105  16.805  0.00  0.00    +0.000 OA
ENDROOT
BRANCH   1   6
ATOM      3  C   UNL     1       2.249   3.376  19.668  0.00  0.00    +0.000 A 
ATOM      4  C   UNL     1       1.439   3.882  18.657  0.00  0.00    +0.000 A 
ATOM      5  C   UNL     1       1.799   5.045  17.975  0.00  0.00    +0.000 A 
ATOM      6  C   UNL     1       3.003   5.713  18.271  0.00  0.00    +0.000 A 
ATOM      7  C   UNL     1       3.839   5.190  19.281  0.00  0.00    +0.000 A 
ATOM      8  C   UNL     1       3.441   4.031  19.975  0.00  0.00    +0.000 A 
BRANCH   3  10
ATOM      9  C   UNL     1       1.433   2.353  21.656  0.00  0.00    +0.000 C 
ATOM     10  O   UNL     1       1.773   2.247  20.277  0.00  0.00    +0.000 OA
ENDBRANCH   3  10
BRANCH   7  11
ATOM     11  O   UNL     1       5.028   5.829  19.530  0.00  0.00    +0.000 OA
ATOM     12  C   UNL     1       6.230   5.195  19.103  0.00  0.00    +0.000 C 
ENDBRANCH   7  11
ENDBRANCH   1   6
BRANCH   1  13
ATOM     13  C   UNL     1       2.449   8.180  17.850  0.00  0.00    +0.000 C 
ATOM     14  C   UNL     1       1.990   8.383  19.097  0.00  0.00    +0.000 C 
BRANCH  14  15
ATOM     15  C   UNL     1       1.000   9.424  19.414  0.00  0.00    +0.000 A 
ATOM     16  C   UNL     1       0.393  10.125  18.361  0.00  0.00    +0.000 A 
ATOM     17  C   UNL     1      -0.532  11.140  18.620  0.00  0.00    +0.000 A 
ATOM     18  C   UNL     1      -0.867  11.462  19.933  0.00  0.00    +0.000 A 
ATOM     19  C   UNL     1      -0.281  10.767  20.997  0.00  0.00    +0.000 A 
ATOM     20 CL   UNL     1      -0.758  11.223  22.597  0.00  0.00    +0.000 Cl
ATOM     21  C   UNL     1       0.653   9.748  20.745  0.00  0.00    +0.000 A 
ATOM     22 CL   UNL     1       1.381   8.880  22.064  0.00  0.00    +0.000 Cl
ENDBRANCH  14  15
ENDBRANCH   1  13
TORSDOF 5
ENDMDL
MODEL 7
REMARK VINA RESULT:      -6.5      1.795      3.383
REMARK  Name = 
REMARK  7 active torsions:
REMARK  status: ('A' for Active; 'I' for Inactive)
REMARK    1  A    between atoms: C_1  and  O_2
REMARK    2  A    between atoms: O_2  and  C_3
REMARK    3  A    between atoms: C_6  and  C_7
REMARK    4  A    between atoms: C_7  and  C_9
REMARK    5  A    between atoms: C_10  and  C_11
REMARK    6  A    between atoms: C_19  and  O_20
REMARK    7  A    between atoms: O_20  and  C_21
REMARK                            x       y       z     vdW  Elec       q    Type
REMARK                         _______ _______ _______ _____ _____    ______ ____
ROOT
ATOM      1  C   UNL     1       2.392   4.908  20.655  0.00  0.00    +0.000 C 
ATOM      2  O   UNL     1       2.422   4.229  21.674  0.00  0.00    +0.000 OA
ENDROOT
BRANCH   1   6
ATOM      3  C   UNL     1       4.649   4.050  17.065  0.00  0.00    +0.000 A 
ATOM      4  C   UNL     1       4.863   5.222  17.782  0.00  0.00    +0.000 A 
ATOM      5  C   UNL     1       4.137   5.485  18.945  0.00  0.00    +0.000 A 
ATOM      6  C   UNL     1       3.198   4.557  19.435  0.00  0.00    +0.000 A 
ATOM      7  C   UNL     1       2.994   3.356  18.723  0.00  0.00    +0.000 A 
ATOM      8  C   UNL     1       3.718   3.125  17.537  0.00  0.00    +0.000 A 
BRANCH   3  10
ATOM      9  C   UNL     1       5.562   5.087  15.127  0.00  0.00    +0.000 C 
ATOM     10  O   UNL     1       5.402   3.922  15.930  0.00  0.00    +0.000 OA
ENDBRANCH   3  10
BRANCH   7  11
ATOM     11  O   UNL     1       2.105   2.444  19.235  0.00  0.00    +0.000 OA
ATOM     12  C   UNL     1       0.792   2.408  18.685  0.00  0.00    +0.000 C 
ENDBRANCH   7  11
ENDBRANCH   1   6
BRANCH   1  13
ATOM     13  C   UNL     1       1.488   6.099  20.562  0.00  0.00    +0.000 C 
ATOM     14  C   UNL     1       1.990   7.336  20.716  0.00  0.00    +0.000 C 
BRANCH  14  15
ATOM     15  C   UNL     1       1.135   8.531  20.802  0.00  0.00    +0.000 A 
ATOM     16  C   UNL     1       0.540   8.850  22.033  0.00  0.00    +0.000 A 
ATOM     17  C   UNL     1      -0.300   9.960  22.151  0.00  0.00    +0.000 A 
ATOM     18  C   UNL     1      -0.551  10.768  21.044  0.00  0.00    +0.000 A 
ATOM     19  C   UNL     1       0.041  10.473  19.812  0.00  0.00    +0.000 A 
ATOM     20 CL   UNL     1      -0.316  11.532  18.489  0.00  0.00    +0.000 Cl
ATOM     21  C   UNL     1       0.884   9.356  19.683  0.00  0.00    +0.000 A 
ATOM     22 CL   UNL     1       1.625   8.987  18.153  0.00  0.00    +0.000 Cl
ENDBRANCH  14  15
ENDBRANCH   1  13
TORSDOF 5
ENDMDL
MODEL 8
REMARK VINA RESULT:      -6.5      4.217      8.437
REMARK  Name = 
REMARK  7 active torsions:
REMARK  status: ('A' for Active; 'I' for Inactive)
REMARK    1  A    between atoms: C_1  and  O_2
REMARK    2  A    between atoms: O_2  and  C_3
REMARK    3  A    between atoms: C_6  and  C_7
REMARK    4  A    between atoms: C_7  and  C_9
REMARK    5  A    between atoms: C_10  and  C_11
REMARK    6  A    between atoms: C_19  and  O_20
REMARK    7  A    between atoms: O_20  and  C_21
REMARK                            x       y       z     vdW  Elec       q    Type
REMARK                         _______ _______ _______ _____ _____    ______ ____
ROOT
ATOM      1  C   UNL     1       1.684   9.535  18.361  0.00  0.00    +0.000 C 
ATOM      2  O   UNL     1       2.098  10.347  17.544  0.00  0.00    +0.000 OA
ENDROOT
BRANCH   1   6
ATOM      3  C   UNL     1      -0.328  10.590  22.043  0.00  0.00    +0.000 A 
ATOM      4  C   UNL     1       0.453   9.442  21.958  0.00  0.00    +0.000 A 
ATOM      5  C   UNL     1       1.106   9.116  20.768  0.00  0.00    +0.000 A 
ATOM      6  C   UNL     1       1.017   9.956  19.642  0.00  0.00    +0.000 A 
ATOM      7  C   UNL     1       0.244  11.134  19.732  0.00  0.00    +0.000 A 
ATOM      8  C   UNL     1      -0.429  11.427  20.933  0.00  0.00    +0.000 A 
BRANCH   3  10
ATOM      9  C   UNL     1      -2.061  11.658  23.276  0.00  0.00    +0.000 C 
ATOM     10  O   UNL     1      -0.938  10.784  23.253  0.00  0.00    +0.000 OA
ENDBRANCH   3  10
BRANCH   7  11
ATOM     11  O   UNL     1       0.200  11.962  18.638  0.00  0.00    +0.000 OA
ATOM     12  C   UNL     1      -0.616  13.128  18.713  0.00  0.00    +0.000 C 
ENDBRANCH   7  11
ENDBRANCH   1   6
BRANCH   1  13
ATOM     13  C   UNL     1       1.771   8.065  18.083  0.00  0.00    +0.000 C 
ATOM     14  C   UNL     1       2.943   7.423  18.225  0.00  0.00    +0.000 C 
BRANCH  14  15
ATOM     15  C   UNL     1       3.133   6.024  17.809  0.00  0.00    +0.000 A 
ATOM     16  C   UNL     1       2.143   5.082  18.127  0.00  0.00    +0.000 A 
ATOM     17  C   UNL     1       2.297   3.739  17.776  0.00  0.00    +0.000 A 
ATOM     18  C   UNL     1       3.439   3.322  17.096  0.00  0.00    +0.000 A 
ATOM     19  C   UNL     1       4.433   4.247  16.760  0.00  0.00    +0.000 A 
ATOM     20 CL   UNL     1       5.816   3.648  15.909  0.00  0.00    +0.000 Cl
ATOM     21  C   UNL     1       4.288   5.599  17.114  0.00  0.00    +0.000 A 
ATOM     22 CL   UNL     1       5.519   6.754  16.696  0.00  0.00    +0.000 Cl
ENDBRANCH  14  15
ENDBRANCH   1  13
TORSDOF 5
ENDMDL
MODEL 9
REMARK VINA RESULT:      -6.5      2.447      4.300
REMARK  Name = 
REMARK  7 active torsions:
REMARK  status: ('A' for Active; 'I' for Inactive)
REMARK    1  A    between atoms: C_1  and  O_2
REMARK    2  A    between atoms: O_2  and  C_3
REMARK    3  A    between atoms: C_6  and  C_7
REMARK    4  A    between atoms: C_7  and  C_9
REMARK    5  A    between atoms: C_10  and  C_11
REMARK    6  A    between atoms: C_19  and  O_20
REMARK    7  A    between atoms: O_20  and  C_21
REMARK                            x       y       z     vdW  Elec       q    Type
REMARK                         _______ _______ _______ _____ _____    ______ ____
ROOT
ATOM      1  C   UNL     1       2.503   7.925  18.047  0.00  0.00    +0.000 C 
ATOM      2  O   UNL     1       2.716   8.789  17.207  0.00  0.00    +0.000 OA
ENDROOT
BRANCH   1   6
ATOM      3  C   UNL     1       3.656   3.774  17.647  0.00  0.00    +0.000 A 
ATOM      4  C   UNL     1       2.341   4.127  17.931  0.00  0.00    +0.000 A 
ATOM      5  C   UNL     1       1.977   5.470  18.047  0.00  0.00    +0.000 A 
ATOM      6  C   UNL     1       2.922   6.494  17.849  0.00  0.00    +0.000 A 
ATOM      7  C   UNL     1       4.253   6.140  17.539  0.00  0.00    +0.000 A 
ATOM      8  C   UNL     1       4.603   4.779  17.454  0.00  0.00    +0.000 A 
BRANCH   3  10
ATOM      9  C   UNL     1       3.429   1.641  18.678  0.00  0.00    +0.000 C 
ATOM     10  O   UNL     1       3.891   2.427  17.585  0.00  0.00    +0.000 OA
ENDBRANCH   3  10
BRANCH   7  11
ATOM     11  O   UNL     1       5.153   7.151  17.308  0.00  0.00    +0.000 OA
ATOM     12  C   UNL     1       6.540   6.824  17.305  0.00  0.00    +0.000 C 
ENDBRANCH   7  11
ENDBRANCH   1   6
BRANCH   1  13
ATOM     13  C   UNL     1       1.861   8.277  19.355  0.00  0.00    +0.000 C 
ATOM     14  C   UNL     1       0.893   9.208  19.398  0.00  0.00    +0.000 C 
BRANCH  14  15
ATOM     15  C   UNL     1       0.342   9.718  20.663  0.00  0.00    +0.000 A 
ATOM     16  C   UNL     1      -0.014   8.802  21.665  0.00  0.00    +0.000 A 
ATOM     17  C   UNL     1      -0.566   9.242  22.870  0.00  0.00    +0.000 A 
ATOM     18  C   UNL     1      -0.763  10.603  23.093  0.00  0.00    +0.000 A 
ATOM     19  C   UNL     1      -0.405  11.533  22.111  0.00  0.00    +0.000 A 
ATOM     20 CL   UNL     1      -0.675  13.205  22.470  0.00  0.00    +0.000 Cl
ATOM     21  C   UNL     1       0.147  11.099  20.894  0.00  0.00    +0.000 A 
ATOM     22 CL   UNL     1       0.596  12.252  19.672  0.00  0.00    +0.000 Cl
ENDBRANCH  14  15
ENDBRANCH   1  13
TORSDOF 5
ENDMDL
