MODEL 1
REMARK VINA RESULT:      -8.4      0.000      0.000
REMARK  Name = 
REMARK  11 active torsions:
REMARK  status: ('A' for Active; 'I' for Inactive)
REMARK    1  A    between atoms: C_1  and  O_2
REMARK    2  A    between atoms: O_2  and  C_3
REMARK    3  A    between atoms: C_6  and  C_7
REMARK    4  A    between atoms: C_7  and  N_8
REMARK    5  A    between atoms: N_8  and  S_9
REMARK    6  A    between atoms: S_9  and  C_12
REMARK    7  A    between atoms: C_14  and  C_15
REMARK    8  A    between atoms: C_17  and  C_18
REMARK    9  A    between atoms: C_23  and  C_24
REMARK   10  A    between atoms: C_26  and  O_27
REMARK   11  A    between atoms: O_27  and  C_28
REMARK                            x       y       z     vdW  Elec       q    Type
REMARK                         _______ _______ _______ _____ _____    ______ ____
ROOT
ATOM      1  S   UNL     1       2.484   5.661  19.758  0.00  0.00    +0.000 S 
ATOM      2  O   UNL     1       2.018   4.939  18.597  0.00  0.00    +0.000 OA
ATOM      3  O   UNL     1       1.995   5.331  21.081  0.00  0.00    +0.000 OA
ENDROOT
BRANCH   1   4
ATOM      4  C   UNL     1       2.196   7.402  19.470  0.00  0.00    +0.000 A 
ATOM      5  C   UNL     1       1.511   8.105  20.480  0.00  0.00    +0.000 A 
ATOM      6  C   UNL     1       1.058   9.415  20.275  0.00  0.00    +0.000 A 
ATOM      7  C   UNL     1       1.372  10.039  19.064  0.00  0.00    +0.000 A 
ATOM      8  C   UNL     1       2.082   9.358  18.069  0.00  0.00    +0.000 A 
ATOM      9  C   UNL     1       2.488   8.025  18.244  0.00  0.00    +0.000 A 
ATOM     10  C   UNL     1       3.173   7.329  17.103  0.00  0.00    +0.000 C 
BRANCH   6  11
ATOM     11  C   UNL     1       0.196  10.051  21.267  0.00  0.00    +0.000 A 
ATOM     12  C   UNL     1      -0.853  10.940  21.204  0.00  0.00    +0.000 A 
ATOM     13  C   UNL     1      -1.148  11.246  22.549  0.00  0.00    +0.000 A 
ATOM     14  C   UNL     1      -2.147  12.203  23.071  0.00  0.00    +0.000 C 
ATOM     15  N   UNL     1      -0.362  10.559  23.386  0.00  0.00    +0.000 NA
ATOM     16  O   UNL     1       0.476   9.808  22.580  0.00  0.00    +0.000 OA
ENDBRANCH   6  11
ENDBRANCH   1   4
BRANCH   1  17
ATOM     17  N   UNL     1       4.158   5.514  19.776  0.00  0.00    +0.000 NA
ATOM     18  H   UNL     1       4.596   6.368  19.430  0.00  0.00    +0.000 HD
BRANCH  17  19
ATOM     19  C   UNL     1       4.703   4.263  19.247  0.00  0.00    +0.000 C 
BRANCH  19  23
ATOM     20  C   UNL     1       6.492   5.026  15.383  0.00  0.00    +0.000 A 
ATOM     21  C   UNL     1       5.644   3.922  15.572  0.00  0.00    +0.000 A 
ATOM     22  C   UNL     1       5.084   3.649  16.821  0.00  0.00    +0.000 A 
ATOM     23  C   UNL     1       5.395   4.452  17.920  0.00  0.00    +0.000 A 
ATOM     24  C   UNL     1       6.324   5.488  17.748  0.00  0.00    +0.000 A 
ATOM     25  C   UNL     1       6.881   5.786  16.495  0.00  0.00    +0.000 A 
BRANCH  20  27
ATOM     26  C   UNL     1       6.845   4.327  13.151  0.00  0.00    +0.000 C 
ATOM     27  O   UNL     1       6.957   5.353  14.137  0.00  0.00    +0.000 OA
ENDBRANCH  20  27
BRANCH  25  28
ATOM     28  O   UNL     1       7.739   6.851  16.560  0.00  0.00    +0.000 OA
ATOM     29  C   UNL     1       7.716   7.691  17.703  0.00  0.00    +0.000 C 
ENDBRANCH  25  28
ENDBRANCH  19  23
ENDBRANCH  17  19
ENDBRANCH   1  17
TORSDOF 7
ENDMDL
MODEL 2
REMARK VINA RESULT:      -7.6      1.073      1.210
REMARK  Name = 
REMARK  11 active torsions:
REMARK  status: ('A' for Active; 'I' for Inactive)
REMARK    1  A    between atoms: C_1  and  O_2
REMARK    2  A    between atoms: O_2  and  C_3
REMARK    3  A    between atoms: C_6  and  C_7
REMARK    4  A    between atoms: C_7  and  N_8
REMARK    5  A    between atoms: N_8  and  S_9
REMARK    6  A    between atoms: S_9  and  C_12
REMARK    7  A    between atoms: C_14  and  C_15
REMARK    8  A    between atoms: C_17  and  C_18
REMARK    9  A    between atoms: C_23  and  C_24
REMARK   10  A    between atoms: C_26  and  O_27
REMARK   11  A    between atoms: O_27  and  C_28
REMARK                            x       y       z     vdW  Elec       q    Type
REMARK                         _______ _______ _______ _____ _____    ______ ____
ROOT
ATOM      1  S   UNL     1       2.666   5.646  19.652  0.00  0.00    +0.000 S 
ATOM      2  O   UNL     1       1.623   5.099  20.488  0.00  0.00    +0.000 OA
ATOM      3  O   UNL     1       4.060   5.515  20.026  0.00  0.00    +0.000 OA
ENDROOT
BRANCH   1   4
ATOM      4  C   UNL     1       2.312   7.380  19.399  0.00  0.00    +0.000 A 
ATOM      5  C   UNL     1       1.619   8.041  20.431  0.00  0.00    +0.000 A 
ATOM      6  C   UNL     1       1.116   9.337  20.256  0.00  0.00    +0.000 A 
ATOM      7  C   UNL     1       1.389   9.992  19.050  0.00  0.00    +0.000 A 
ATOM      8  C   UNL     1       2.108   9.354  18.034  0.00  0.00    +0.000 A 
ATOM      9  C   UNL     1       2.563   8.033  18.179  0.00  0.00    +0.000 A 
ATOM     10  C   UNL     1       3.254   7.381  17.017  0.00  0.00    +0.000 C 
BRANCH   6  11
ATOM     11  C   UNL     1       0.248   9.926  21.271  0.00  0.00    +0.000 A 
ATOM     12  C   UNL     1      -0.838  10.769  21.238  0.00  0.00    +0.000 A 
ATOM     13  C   UNL     1      -1.120  11.048  22.592  0.00  0.00    +0.000 A 
ATOM     14  C   UNL     1      -2.148  11.957  23.144  0.00  0.00    +0.000 C 
ATOM     15  N   UNL     1      -0.290  10.386  23.406  0.00  0.00    +0.000 NA
ATOM     16  O   UNL     1       0.563   9.680  22.576  0.00  0.00    +0.000 OA
ENDBRANCH   6  11
ENDBRANCH   1   4
BRANCH   1  17
ATOM     17  N   UNL     1       2.475   4.956  18.131  0.00  0.00    +0.000 NA
ATOM     18  H   UNL     1       1.487   4.905  17.884  0.00  0.00    +0.000 HD
BRANCH  17  19
ATOM     19  C   UNL     1       3.259   3.750  17.865  0.00  0.00    +0.000 C 
BRANCH  19  23
ATOM     20  C   UNL     1       6.718   4.848  15.508  0.00  0.00    +0.000 A 
ATOM     21  C   UNL     1       5.508   4.502  14.883  0.00  0.00    +0.000 A 
ATOM     22  C   UNL     1       4.393   4.118  15.632  0.00  0.00    +0.000 A 
ATOM     23  C   UNL     1       4.479   4.031  17.022  0.00  0.00    +0.000 A 
ATOM     24  C   UNL     1       5.718   4.275  17.632  0.00  0.00    +0.000 A 
ATOM     25  C   UNL     1       6.842   4.679  16.895  0.00  0.00    +0.000 A 
BRANCH  20  27
ATOM     26  C   UNL     1       7.689   5.128  13.370  0.00  0.00    +0.000 C 
ATOM     27  O   UNL     1       7.776   5.323  14.781  0.00  0.00    +0.000 OA
ENDBRANCH  20  27
BRANCH  25  28
ATOM     28  O   UNL     1       7.930   4.886  17.699  0.00  0.00    +0.000 OA
ATOM     29  C   UNL     1       7.779   5.640  18.890  0.00  0.00    +0.000 C 
ENDBRANCH  25  28
ENDBRANCH  19  23
ENDBRANCH  17  19
ENDBRANCH   1  17
TORSDOF 7
ENDMDL
MODEL 3
REMARK VINA RESULT:      -7.6      2.141      8.170
REMARK  Name = 
REMARK  11 active torsions:
REMARK  status: ('A' for Active; 'I' for Inactive)
REMARK    1  A    between atoms: C_1  and  O_2
REMARK    2  A    between atoms: O_2  and  C_3
REMARK    3  A    between atoms: C_6  and  C_7
REMARK    4  A    between atoms: C_7  and  N_8
REMARK    5  A    between atoms: N_8  and  S_9
REMARK    6  A    between atoms: S_9  and  C_12
REMARK    7  A    between atoms: C_14  and  C_15
REMARK    8  A    between atoms: C_17  and  C_18
REMARK    9  A    between atoms: C_23  and  C_24
REMARK   10  A    between atoms: C_26  and  O_27
REMARK   11  A    between atoms: O_27  and  C_28
REMARK                            x       y       z     vdW  Elec       q    Type
REMARK                         _______ _______ _______ _____ _____    ______ ____
ROOT
ATOM      1  S   UNL     1       1.868   4.319  20.776  0.00  0.00    +0.000 S 
ATOM      2  O   UNL     1       2.262   3.563  21.942  0.00  0.00    +0.000 OA
ATOM      3  O   UNL     1       0.496   4.300  20.310  0.00  0.00    +0.000 OA
ENDROOT
BRANCH   1   4
ATOM      4  C   UNL     1       2.928   3.830  19.422  0.00  0.00    +0.000 A 
ATOM      5  C   UNL     1       4.058   4.634  19.181  0.00  0.00    +0.000 A 
ATOM      6  C   UNL     1       4.841   4.464  18.032  0.00  0.00    +0.000 A 
ATOM      7  C   UNL     1       4.516   3.417  17.163  0.00  0.00    +0.000 A 
ATOM      8  C   UNL     1       3.415   2.592  17.414  0.00  0.00    +0.000 A 
ATOM      9  C   UNL     1       2.590   2.795  18.533  0.00  0.00    +0.000 A 
ATOM     10  C   UNL     1       1.377   1.925  18.696  0.00  0.00    +0.000 C 
BRANCH   6  11
ATOM     11  C   UNL     1       5.893   5.425  17.717  0.00  0.00    +0.000 A 
ATOM     12  C   UNL     1       6.461   6.486  18.385  0.00  0.00    +0.000 A 
ATOM     13  C   UNL     1       7.339   7.073  17.451  0.00  0.00    +0.000 A 
ATOM     14  C   UNL     1       8.164   8.290  17.610  0.00  0.00    +0.000 C 
ATOM     15  N   UNL     1       7.345   6.394  16.298  0.00  0.00    +0.000 NA
ATOM     16  O   UNL     1       6.442   5.360  16.469  0.00  0.00    +0.000 OA
ENDBRANCH   6  11
ENDBRANCH   1   4
BRANCH   1  17
ATOM     17  N   UNL     1       2.287   5.918  21.076  0.00  0.00    +0.000 NA
ATOM     18  H   UNL     1       1.981   6.200  22.008  0.00  0.00    +0.000 HD
BRANCH  17  19
ATOM     19  C   UNL     1       2.008   6.873  20.003  0.00  0.00    +0.000 C 
BRANCH  19  23
ATOM     20  C   UNL     1       0.542  10.668  21.473  0.00  0.00    +0.000 A 
ATOM     21  C   UNL     1       0.683   9.572  22.341  0.00  0.00    +0.000 A 
ATOM     22  C   UNL     1       1.128   8.334  21.872  0.00  0.00    +0.000 A 
ATOM     23  C   UNL     1       1.400   8.155  20.516  0.00  0.00    +0.000 A 
ATOM     24  C   UNL     1       1.157   9.222  19.639  0.00  0.00    +0.000 A 
ATOM     25  C   UNL     1       0.727  10.477  20.097  0.00  0.00    +0.000 A 
BRANCH  20  27
ATOM     26  C   UNL     1      -1.048  11.985  22.629  0.00  0.00    +0.000 C 
ATOM     27  O   UNL     1       0.206  11.907  21.951  0.00  0.00    +0.000 OA
ENDBRANCH  20  27
BRANCH  25  28
ATOM     28  O   UNL     1       0.581  11.371  19.070  0.00  0.00    +0.000 OA
ATOM     29  C   UNL     1      -0.718  11.667  18.587  0.00  0.00    +0.000 C 
ENDBRANCH  25  28
ENDBRANCH  19  23
ENDBRANCH  17  19
ENDBRANCH   1  17
TORSDOF 7
ENDMDL
MODEL 4
REMARK VINA RESULT:      -7.5      3.677      6.106
REMARK  Name = 
REMARK  11 active torsions:
REMARK  status: ('A' for Active; 'I' for Inactive)
REMARK    1  A    between atoms: C_1  and  O_2
REMARK    2  A    between atoms: O_2  and  C_3
REMARK    3  A    between atoms: C_6  and  C_7
REMARK    4  A    between atoms: C_7  and  N_8
REMARK    5  A    between atoms: N_8  and  S_9
REMARK    6  A    between atoms: S_9  and  C_12
REMARK    7  A    between atoms: C_14  and  C_15
REMARK    8  A    between atoms: C_17  and  C_18
REMARK    9  A    between atoms: C_23  and  C_24
REMARK   10  A    between atoms: C_26  and  O_27
REMARK   11  A    between atoms: O_27  and  C_28
REMARK                            x       y       z     vdW  Elec       q    Type
REMARK                         _______ _______ _______ _____ _____    ______ ____
ROOT
ATOM      1  S   UNL     1       6.936   6.210  17.021  0.00  0.00    +0.000 S 
ATOM      2  O   UNL     1       7.270   6.040  15.626  0.00  0.00    +0.000 OA
ATOM      3  O   UNL     1       7.612   5.439  18.044  0.00  0.00    +0.000 OA
ENDROOT
BRANCH   1   4
ATOM      4  C   UNL     1       5.174   5.954  17.196  0.00  0.00    +0.000 A 
ATOM      5  C   UNL     1       4.398   7.088  17.501  0.00  0.00    +0.000 A 
ATOM      6  C   UNL     1       3.048   6.971  17.856  0.00  0.00    +0.000 A 
ATOM      7  C   UNL     1       2.466   5.699  17.825  0.00  0.00    +0.000 A 
ATOM      8  C   UNL     1       3.223   4.572  17.489  0.00  0.00    +0.000 A 
ATOM      9  C   UNL     1       4.592   4.674  17.190  0.00  0.00    +0.000 A 
ATOM     10  C   UNL     1       5.362   3.414  16.920  0.00  0.00    +0.000 C 
BRANCH   6  11
ATOM     11  C   UNL     1       2.318   8.138  18.342  0.00  0.00    +0.000 A 
ATOM     12  C   UNL     1       2.035   9.382  17.825  0.00  0.00    +0.000 A 
ATOM     13  C   UNL     1       1.398  10.073  18.877  0.00  0.00    +0.000 A 
ATOM     14  C   UNL     1       0.936  11.478  18.900  0.00  0.00    +0.000 C 
ATOM     15  N   UNL     1       1.258   9.294  19.955  0.00  0.00    +0.000 NA
ATOM     16  O   UNL     1       1.832   8.081  19.616  0.00  0.00    +0.000 OA
ENDBRANCH   6  11
ENDBRANCH   1   4
BRANCH   1  17
ATOM     17  N   UNL     1       7.157   7.838  17.373  0.00  0.00    +0.000 NA
ATOM     18  H   UNL     1       7.169   8.391  16.516  0.00  0.00    +0.000 HD
BRANCH  17  19
ATOM     19  C   UNL     1       8.203   8.153  18.346  0.00  0.00    +0.000 C 
BRANCH  19  23
ATOM     20  C   UNL     1       9.102  12.380  18.545  0.00  0.00    +0.000 A 
ATOM     21  C   UNL     1       8.228  11.881  17.565  0.00  0.00    +0.000 A 
ATOM     22  C   UNL     1       7.953  10.515  17.472  0.00  0.00    +0.000 A 
ATOM     23  C   UNL     1       8.580   9.614  18.333  0.00  0.00    +0.000 A 
ATOM     24  C   UNL     1       9.530  10.106  19.239  0.00  0.00    +0.000 A 
ATOM     25  C   UNL     1       9.805  11.478  19.356  0.00  0.00    +0.000 A 
BRANCH  20  27
ATOM     26  C   UNL     1      10.244  14.321  17.820  0.00  0.00    +0.000 C 
ATOM     27  O   UNL     1       9.290  13.728  18.701  0.00  0.00    +0.000 OA
ENDBRANCH  20  27
BRANCH  25  28
ATOM     28  O   UNL     1      10.743  11.729  20.321  0.00  0.00    +0.000 OA
ATOM     29  C   UNL     1      12.100  11.890  19.943  0.00  0.00    +0.000 C 
ENDBRANCH  25  28
ENDBRANCH  19  23
ENDBRANCH  17  19
ENDBRANCH   1  17
TORSDOF 7
ENDMDL
MODEL 5
REMARK VINA RESULT:      -7.5      2.406      8.599
REMARK  Name = 
REMARK  11 active torsions:
REMARK  status: ('A' for Active; 'I' for Inactive)
REMARK    1  A    between atoms: C_1  and  O_2
REMARK    2  A    between atoms: O_2  and  C_3
REMARK    3  A    between atoms: C_6  and  C_7
REMARK    4  A    between atoms: C_7  and  N_8
REMARK    5  A    between atoms: N_8  and  S_9
REMARK    6  A    between atoms: S_9  and  C_12
REMARK    7  A    between atoms: C_14  and  C_15
REMARK    8  A    between atoms: C_17  and  C_18
REMARK    9  A    between atoms: C_23  and  C_24
REMARK   10  A    between atoms: C_26  and  O_27
REMARK   11  A    between atoms: O_27  and  C_28
REMARK                            x       y       z     vdW  Elec       q    Type
REMARK                         _______ _______ _______ _____ _____    ______ ____
ROOT
ATOM      1  S   UNL     1       4.361   3.755  19.070  0.00  0.00    +0.000 S 
ATOM      2  O   UNL     1       5.172   2.895  19.900  0.00  0.00    +0.000 OA
ATOM      3  O   UNL     1       3.198   3.237  18.379  0.00  0.00    +0.000 OA
ENDROOT
BRANCH   1   4
ATOM      4  C   UNL     1       5.436   4.524  17.865  0.00  0.00    +0.000 A 
ATOM      5  C   UNL     1       5.159   4.259  16.511  0.00  0.00    +0.000 A 
ATOM      6  C   UNL     1       6.048   4.641  15.498  0.00  0.00    +0.000 A 
ATOM      7  C   UNL     1       7.188   5.367  15.861  0.00  0.00    +0.000 A 
ATOM      8  C   UNL     1       7.452   5.664  17.203  0.00  0.00    +0.000 A 
ATOM      9  C   UNL     1       6.595   5.231  18.229  0.00  0.00    +0.000 A 
ATOM     10  C   UNL     1       6.983   5.513  19.652  0.00  0.00    +0.000 C 
BRANCH   6  11
ATOM     11  C   UNL     1       5.826   4.196  14.126  0.00  0.00    +0.000 A 
ATOM     12  C   UNL     1       4.729   3.756  13.421  0.00  0.00    +0.000 A 
ATOM     13  C   UNL     1       5.241   3.358  12.168  0.00  0.00    +0.000 A 
ATOM     14  C   UNL     1       4.514   2.742  11.037  0.00  0.00    +0.000 C 
ATOM     15  N   UNL     1       6.558   3.580  12.090  0.00  0.00    +0.000 NA
ATOM     16  O   UNL     1       6.921   4.108  13.316  0.00  0.00    +0.000 OA
ENDBRANCH   6  11
ENDBRANCH   1   4
BRANCH   1  17
ATOM     17  N   UNL     1       3.854   5.026  20.046  0.00  0.00    +0.000 NA
ATOM     18  H   UNL     1       4.280   4.959  20.971  0.00  0.00    +0.000 HD
BRANCH  17  19
ATOM     19  C   UNL     1       2.422   5.324  20.029  0.00  0.00    +0.000 C 
BRANCH  19  23
ATOM     20  C   UNL     1       1.327   9.386  19.019  0.00  0.00    +0.000 A 
ATOM     21  C   UNL     1       2.087   8.609  18.129  0.00  0.00    +0.000 A 
ATOM     22  C   UNL     1       2.470   7.306  18.456  0.00  0.00    +0.000 A 
ATOM     23  C   UNL     1       2.138   6.769  19.700  0.00  0.00    +0.000 A 
ATOM     24  C   UNL     1       1.472   7.587  20.624  0.00  0.00    +0.000 A 
ATOM     25  C   UNL     1       1.064   8.891  20.304  0.00  0.00    +0.000 A 
BRANCH  20  27
ATOM     26  C   UNL     1      -0.507  10.674  18.263  0.00  0.00    +0.000 C 
ATOM     27  O   UNL     1       0.864  10.623  18.657  0.00  0.00    +0.000 OA
ENDBRANCH  20  27
BRANCH  25  28
ATOM     28  O   UNL     1       0.410   9.489  21.347  0.00  0.00    +0.000 OA
ATOM     29  C   UNL     1       0.951   9.392  22.654  0.00  0.00    +0.000 C 
ENDBRANCH  25  28
ENDBRANCH  19  23
ENDBRANCH  17  19
ENDBRANCH   1  17
TORSDOF 7
ENDMDL
MODEL 6
REMARK VINA RESULT:      -7.3      2.095      8.692
REMARK  Name = 
REMARK  11 active torsions:
REMARK  status: ('A' for Active; 'I' for Inactive)
REMARK    1  A    between atoms: C_1  and  O_2
REMARK    2  A    between atoms: O_2  and  C_3
REMARK    3  A    between atoms: C_6  and  C_7
REMARK    4  A    between atoms: C_7  and  N_8
REMARK    5  A    between atoms: N_8  and  S_9
REMARK    6  A    between atoms: S_9  and  C_12
REMARK    7  A    between atoms: C_14  and  C_15
REMARK    8  A    between atoms: C_17  and  C_18
REMARK    9  A    between atoms: C_23  and  C_24
REMARK   10  A    between atoms: C_26  and  O_27
REMARK   11  A    between atoms: O_27  and  C_28
REMARK                            x       y       z     vdW  Elec       q    Type
REMARK                         _______ _______ _______ _____ _____    ______ ____
ROOT
ATOM      1  S   UNL     1       2.110   4.936  20.528  0.00  0.00    +0.000 S 
ATOM      2  O   UNL     1       2.530   4.504  21.841  0.00  0.00    +0.000 OA
ATOM      3  O   UNL     1       0.707   5.126  20.224  0.00  0.00    +0.000 OA
ENDROOT
BRANCH   1   4
ATOM      4  C   UNL     1       2.795   3.796  19.332  0.00  0.00    +0.000 A 
ATOM      5  C   UNL     1       3.894   4.251  18.581  0.00  0.00    +0.000 A 
ATOM      6  C   UNL     1       4.379   3.525  17.485  0.00  0.00    +0.000 A 
ATOM      7  C   UNL     1       3.790   2.287  17.203  0.00  0.00    +0.000 A 
ATOM      8  C   UNL     1       2.719   1.812  17.968  0.00  0.00    +0.000 A 
ATOM      9  C   UNL     1       2.189   2.563  19.030  0.00  0.00    +0.000 A 
ATOM     10  C   UNL     1       0.987   2.030  19.754  0.00  0.00    +0.000 C 
BRANCH   6  11
ATOM     11  C   UNL     1       5.397   4.107  16.617  0.00  0.00    +0.000 A 
ATOM     12  C   UNL     1       5.472   4.385  15.271  0.00  0.00    +0.000 A 
ATOM     13  C   UNL     1       6.797   4.823  15.066  0.00  0.00    +0.000 A 
ATOM     14  C   UNL     1       7.452   5.192  13.792  0.00  0.00    +0.000 C 
ATOM     15  N   UNL     1       7.480   4.855  16.216  0.00  0.00    +0.000 NA
ATOM     16  O   UNL     1       6.600   4.410  17.186  0.00  0.00    +0.000 OA
ENDBRANCH   6  11
ENDBRANCH   1   4
BRANCH   1  17
ATOM     17  N   UNL     1       2.904   6.385  20.222  0.00  0.00    +0.000 NA
ATOM     18  H   UNL     1       3.257   6.789  21.089  0.00  0.00    +0.000 HD
BRANCH  17  19
ATOM     19  C   UNL     1       2.225   7.316  19.319  0.00  0.00    +0.000 C 
BRANCH  19  23
ATOM     20  C   UNL     1       0.455  10.644  21.442  0.00  0.00    +0.000 A 
ATOM     21  C   UNL     1       0.801   9.465  22.123  0.00  0.00    +0.000 A 
ATOM     22  C   UNL     1       1.346   8.373  21.444  0.00  0.00    +0.000 A 
ATOM     23  C   UNL     1       1.518   8.424  20.060  0.00  0.00    +0.000 A 
ATOM     24  C   UNL     1       1.073   9.562  19.373  0.00  0.00    +0.000 A 
ATOM     25  C   UNL     1       0.540  10.674  20.043  0.00  0.00    +0.000 A 
BRANCH  20  27
ATOM     26  C   UNL     1      -1.168  11.565  22.897  0.00  0.00    +0.000 C 
ATOM     27  O   UNL     1       0.018  11.749  22.123  0.00  0.00    +0.000 OA
ENDBRANCH  20  27
BRANCH  25  28
ATOM     28  O   UNL     1       0.200  11.676  19.175  0.00  0.00    +0.000 OA
ATOM     29  C   UNL     1      -1.069  11.647  18.544  0.00  0.00    +0.000 C 
ENDBRANCH  25  28
ENDBRANCH  19  23
ENDBRANCH  17  19
ENDBRANCH   1  17
TORSDOF 7
ENDMDL
MODEL 7
REMARK VINA RESULT:      -7.2      2.081      8.505
REMARK  Name = 
REMARK  11 active torsions:
REMARK  status: ('A' for Active; 'I' for Inactive)
REMARK    1  A    between atoms: C_1  and  O_2
REMARK    2  A    between atoms: O_2  and  C_3
REMARK    3  A    between atoms: C_6  and  C_7
REMARK    4  A    between atoms: C_7  and  N_8
REMARK    5  A    between atoms: N_8  and  S_9
REMARK    6  A    between atoms: S_9  and  C_12
REMARK    7  A    between atoms: C_14  and  C_15
REMARK    8  A    between atoms: C_17  and  C_18
REMARK    9  A    between atoms: C_23  and  C_24
REMARK   10  A    between atoms: C_26  and  O_27
REMARK   11  A    between atoms: O_27  and  C_28
REMARK                            x       y       z     vdW  Elec       q    Type
REMARK                         _______ _______ _______ _____ _____    ______ ____
ROOT
ATOM      1  S   UNL     1       2.095   5.000  20.502  0.00  0.00    +0.000 S 
ATOM      2  O   UNL     1       2.630   4.599  21.782  0.00  0.00    +0.000 OA
ATOM      3  O   UNL     1       0.667   5.150  20.310  0.00  0.00    +0.000 OA
ENDROOT
BRANCH   1   4
ATOM      4  C   UNL     1       2.711   3.859  19.270  0.00  0.00    +0.000 A 
ATOM      5  C   UNL     1       3.838   4.271  18.534  0.00  0.00    +0.000 A 
ATOM      6  C   UNL     1       4.279   3.552  17.416  0.00  0.00    +0.000 A 
ATOM      7  C   UNL     1       3.617   2.363  17.094  0.00  0.00    +0.000 A 
ATOM      8  C   UNL     1       2.517   1.929  17.842  0.00  0.00    +0.000 A 
ATOM      9  C   UNL     1       2.032   2.677  18.928  0.00  0.00    +0.000 A 
ATOM     10  C   UNL     1       0.797   2.195  19.634  0.00  0.00    +0.000 C 
BRANCH   6  11
ATOM     11  C   UNL     1       5.334   4.098  16.567  0.00  0.00    +0.000 A 
ATOM     12  C   UNL     1       5.448   4.362  15.221  0.00  0.00    +0.000 A 
ATOM     13  C   UNL     1       6.789   4.763  15.044  0.00  0.00    +0.000 A 
ATOM     14  C   UNL     1       7.483   5.102  13.783  0.00  0.00    +0.000 C 
ATOM     15  N   UNL     1       7.445   4.786  16.209  0.00  0.00    +0.000 NA
ATOM     16  O   UNL     1       6.531   4.374  17.162  0.00  0.00    +0.000 OA
ENDBRANCH   6  11
ENDBRANCH   1   4
BRANCH   1  17
ATOM     17  N   UNL     1       2.822   6.464  20.114  0.00  0.00    +0.000 NA
ATOM     18  H   UNL     1       2.974   7.022  20.954  0.00  0.00    +0.000 HD
BRANCH  17  19
ATOM     19  C   UNL     1       2.261   7.182  18.969  0.00  0.00    +0.000 C 
BRANCH  19  23
ATOM     20  C   UNL     1       0.543  11.003  20.047  0.00  0.00    +0.000 A 
ATOM     21  C   UNL     1       0.924  10.740  18.721  0.00  0.00    +0.000 A 
ATOM     22  C   UNL     1       1.505   9.521  18.366  0.00  0.00    +0.000 A 
ATOM     23  C   UNL     1       1.758   8.555  19.341  0.00  0.00    +0.000 A 
ATOM     24  C   UNL     1       1.473   8.865  20.678  0.00  0.00    +0.000 A 
ATOM     25  C   UNL     1       0.872  10.078  21.048  0.00  0.00    +0.000 A 
BRANCH  20  27
ATOM     26  C   UNL     1      -1.519  12.163  20.084  0.00  0.00    +0.000 C 
ATOM     27  O   UNL     1      -0.121  12.155  20.375  0.00  0.00    +0.000 OA
ENDBRANCH  20  27
BRANCH  25  28
ATOM     28  O   UNL     1       0.663  10.151  22.399  0.00  0.00    +0.000 OA
ATOM     29  C   UNL     1      -0.402   9.415  22.977  0.00  0.00    +0.000 C 
ENDBRANCH  25  28
ENDBRANCH  19  23
ENDBRANCH  17  19
ENDBRANCH   1  17
TORSDOF 7
ENDMDL
MODEL 8
REMARK VINA RESULT:      -7.1      3.759      6.212
REMARK  Name = 
REMARK  11 active torsions:
REMARK  status: ('A' for Active; 'I' for Inactive)
REMARK    1  A    between atoms: C_1  and  O_2
REMARK    2  A    between atoms: O_2  and  C_3
REMARK    3  A    between atoms: C_6  and  C_7
REMARK    4  A    between atoms: C_7  and  N_8
REMARK    5  A    between atoms: N_8  and  S_9
REMARK    6  A    between atoms: S_9  and  C_12
REMARK    7  A    between atoms: C_14  and  C_15
REMARK    8  A    between atoms: C_17  and  C_18
REMARK    9  A    between atoms: C_23  and  C_24
REMARK   10  A    between atoms: C_26  and  O_27
REMARK   11  A    between atoms: O_27  and  C_28
REMARK                            x       y       z     vdW  Elec       q    Type
REMARK                         _______ _______ _______ _____ _____    ______ ____
ROOT
ATOM      1  S   UNL     1       7.113   6.287  17.100  0.00  0.00    +0.000 S 
ATOM      2  O   UNL     1       7.524   6.115  15.726  0.00  0.00    +0.000 OA
ATOM      3  O   UNL     1       7.737   5.524  18.161  0.00  0.00    +0.000 OA
ENDROOT
BRANCH   1   4
ATOM      4  C   UNL     1       5.347   6.021  17.179  0.00  0.00    +0.000 A 
ATOM      5  C   UNL     1       4.554   7.135  17.514  0.00  0.00    +0.000 A 
ATOM      6  C   UNL     1       3.189   6.997  17.801  0.00  0.00    +0.000 A 
ATOM      7  C   UNL     1       2.613   5.729  17.668  0.00  0.00    +0.000 A 
ATOM      8  C   UNL     1       3.389   4.623  17.302  0.00  0.00    +0.000 A 
ATOM      9  C   UNL     1       4.769   4.744  17.072  0.00  0.00    +0.000 A 
ATOM     10  C   UNL     1       5.555   3.501  16.764  0.00  0.00    +0.000 C 
BRANCH   6  11
ATOM     11  C   UNL     1       2.435   8.133  18.320  0.00  0.00    +0.000 A 
ATOM     12  C   UNL     1       1.785   8.399  19.504  0.00  0.00    +0.000 A 
ATOM     13  C   UNL     1       1.146   9.639  19.295  0.00  0.00    +0.000 A 
ATOM     14  C   UNL     1       0.250  10.373  20.214  0.00  0.00    +0.000 C 
ATOM     15  N   UNL     1       1.420  10.126  18.079  0.00  0.00    +0.000 NA
ATOM     16  O   UNL     1       2.231   9.183  17.473  0.00  0.00    +0.000 OA
ENDBRANCH   6  11
ENDBRANCH   1   4
BRANCH   1  17
ATOM     17  N   UNL     1       7.305   7.918  17.458  0.00  0.00    +0.000 NA
ATOM     18  H   UNL     1       7.373   8.467  16.601  0.00  0.00    +0.000 HD
BRANCH  17  19
ATOM     19  C   UNL     1       8.283   8.242  18.497  0.00  0.00    +0.000 C 
BRANCH  19  23
ATOM     20  C   UNL     1       9.583  12.352  18.129  0.00  0.00    +0.000 A 
ATOM     21  C   UNL     1      10.318  11.436  18.901  0.00  0.00    +0.000 A 
ATOM     22  C   UNL     1       9.893  10.114  19.050  0.00  0.00    +0.000 A 
ATOM     23  C   UNL     1       8.699   9.691  18.465  0.00  0.00    +0.000 A 
ATOM     24  C   UNL     1       7.917  10.636  17.785  0.00  0.00    +0.000 A 
ATOM     25  C   UNL     1       8.339  11.964  17.611  0.00  0.00    +0.000 A 
BRANCH  20  27
ATOM     26  C   UNL     1      10.552  14.306  19.043  0.00  0.00    +0.000 C 
ATOM     27  O   UNL     1      10.053  13.616  17.897  0.00  0.00    +0.000 OA
ENDBRANCH  20  27
BRANCH  25  28
ATOM     28  O   UNL     1       7.431  12.696  16.895  0.00  0.00    +0.000 OA
ATOM     29  C   UNL     1       6.847  13.845  17.484  0.00  0.00    +0.000 C 
ENDBRANCH  25  28
ENDBRANCH  19  23
ENDBRANCH  17  19
ENDBRANCH   1  17
TORSDOF 7
ENDMDL
MODEL 9
REMARK VINA RESULT:      -7.1      3.645      6.453
REMARK  Name = 
REMARK  11 active torsions:
REMARK  status: ('A' for Active; 'I' for Inactive)
REMARK    1  A    between atoms: C_1  and  O_2
REMARK    2  A    between atoms: O_2  and  C_3
REMARK    3  A    between atoms: C_6  and  C_7
REMARK    4  A    between atoms: C_7  and  N_8
REMARK    5  A    between atoms: N_8  and  S_9
REMARK    6  A    between atoms: S_9  and  C_12
REMARK    7  A    between atoms: C_14  and  C_15
REMARK    8  A    between atoms: C_17  and  C_18
REMARK    9  A    between atoms: C_23  and  C_24
REMARK   10  A    between atoms: C_26  and  O_27
REMARK   11  A    between atoms: O_27  and  C_28
REMARK                            x       y       z     vdW  Elec       q    Type
REMARK                         _______ _______ _______ _____ _____    ______ ____
ROOT
ATOM      1  S   UNL     1       0.635  11.041  21.306  0.00  0.00    +0.000 S 
ATOM      2  O   UNL     1       0.520  10.639  22.688  0.00  0.00    +0.000 OA
ATOM      3  O   UNL     1       1.589  12.055  20.906  0.00  0.00    +0.000 OA
ENDROOT
BRANCH   1   4
ATOM      4  C   UNL     1      -0.987  11.542  20.745  0.00  0.00    +0.000 A 
ATOM      5  C   UNL     1      -1.418  11.021  19.510  0.00  0.00    +0.000 A 
ATOM      6  C   UNL     1      -2.576  11.499  18.883  0.00  0.00    +0.000 A 
ATOM      7  C   UNL     1      -3.341  12.458  19.555  0.00  0.00    +0.000 A 
ATOM      8  C   UNL     1      -2.937  12.955  20.799  0.00  0.00    +0.000 A 
ATOM      9  C   UNL     1      -1.745  12.524  21.405  0.00  0.00    +0.000 A 
ATOM     10  C   UNL     1      -1.330  13.161  22.700  0.00  0.00    +0.000 C 
BRANCH   6  11
ATOM     11  C   UNL     1      -2.899  11.073  17.525  0.00  0.00    +0.000 A 
ATOM     12  C   UNL     1      -2.317  10.214  16.620  0.00  0.00    +0.000 A 
ATOM     13  C   UNL     1      -3.074  10.366  15.439  0.00  0.00    +0.000 A 
ATOM     14  C   UNL     1      -2.852   9.732  14.122  0.00  0.00    +0.000 C 
ATOM     15  N   UNL     1      -4.081  11.228  15.617  0.00  0.00    +0.000 NA
ATOM     16  O   UNL     1      -3.972  11.666  16.925  0.00  0.00    +0.000 OA
ENDBRANCH   6  11
ENDBRANCH   1   4
BRANCH   1  17
ATOM     17  N   UNL     1       0.968   9.648  20.427  0.00  0.00    +0.000 NA
ATOM     18  H   UNL     1       0.187   9.418  19.811  0.00  0.00    +0.000 HD
BRANCH  17  19
ATOM     19  C   UNL     1       1.531   8.527  21.180  0.00  0.00    +0.000 C 
BRANCH  19  23
ATOM     20  C   UNL     1       2.473   4.995  18.865  0.00  0.00    +0.000 A 
ATOM     21  C   UNL     1       2.763   6.276  18.365  0.00  0.00    +0.000 A 
ATOM     22  C   UNL     1       2.438   7.424  19.090  0.00  0.00    +0.000 A 
ATOM     23  C   UNL     1       1.776   7.316  20.314  0.00  0.00    +0.000 A 
ATOM     24  C   UNL     1       1.395   6.041  20.757  0.00  0.00    +0.000 A 
ATOM     25  C   UNL     1       1.731   4.877  20.048  0.00  0.00    +0.000 A 
BRANCH  20  27
ATOM     26  C   UNL     1       4.290   3.621  18.229  0.00  0.00    +0.000 C 
ATOM     27  O   UNL     1       2.885   3.870  18.202  0.00  0.00    +0.000 OA
ENDBRANCH  20  27
BRANCH  25  28
ATOM     28  O   UNL     1       1.281   3.749  20.680  0.00  0.00    +0.000 OA
ATOM     29  C   UNL     1       2.170   3.015  21.505  0.00  0.00    +0.000 C 
ENDBRANCH  25  28
ENDBRANCH  19  23
ENDBRANCH  17  19
ENDBRANCH   1  17
TORSDOF 7
ENDMDL
