MODEL 1
REMARK VINA RESULT:      -8.3      0.000      0.000
REMARK  Name = 
REMARK  8 active torsions:
REMARK  status: ('A' for Active; 'I' for Inactive)
REMARK    1  A    between atoms: C_4  and  O_5
REMARK    2  A    between atoms: O_5  and  C_6
REMARK    3  A    between atoms: C_6  and  C_7
REMARK    4  A    between atoms: C_7  and  C_8
REMARK    5  A    between atoms: C_8  and  C_9
REMARK    6  A    between atoms: C_9  and  C_10
REMARK    7  A    between atoms: C_10  and  N_11
REMARK    8  A    between atoms: C_13  and  C_14
REMARK                            x       y       z     vdW  Elec       q    Type
REMARK                         _______ _______ _______ _____ _____    ______ ____
ROOT
ATOM      1  N   UNL     1       2.289   5.768  19.863  0.00  0.00    +0.000 N 
ATOM      2  C   UNL     1       3.631   6.034  19.738  0.00  0.00    +0.000 A 
ATOM      3  C   UNL     1       4.243   4.888  19.290  0.00  0.00    +0.000 A 
ATOM      4  C   UNL     1       3.248   3.882  19.146  0.00  0.00    +0.000 A 
ATOM      5  C   UNL     1       3.274   2.532  18.731  0.00  0.00    +0.000 A 
ATOM      6  C   UNL     1       2.088   1.793  18.718  0.00  0.00    +0.000 A 
ATOM      7  C   UNL     1       0.889   2.375  19.117  0.00  0.00    +0.000 A 
ATOM      8  C   UNL     1       0.836   3.712  19.530  0.00  0.00    +0.000 A 
ATOM      9  C   UNL     1       2.029   4.453  19.528  0.00  0.00    +0.000 A 
ENDROOT
BRANCH   3  10
ATOM     10  C   UNL     1       5.637   4.768  19.038  0.00  0.00    +0.000 C 
ATOM     11  C   UNL     1       6.181   4.621  17.828  0.00  0.00    +0.000 C 
ATOM     12  N   UNL     1       5.534   4.569  16.620  0.00  0.00    +0.000 N 
ATOM     13  C   UNL     1       6.463   4.414  15.610  0.00  0.00    +0.000 C 
ATOM     14  S   UNL     1       6.126   4.312  14.000  0.00  0.00    +0.000 S 
ATOM     15  N   UNL     1       7.710   4.366  16.176  0.00  0.00    +0.000 N 
ATOM     16  C   UNL     1       7.641   4.481  17.541  0.00  0.00    +0.000 C 
ATOM     17  O   UNL     1       8.555   4.470  18.340  0.00  0.00    +0.000 OA
ATOM     18  H   UNL     1       4.532   4.629  16.499  0.00  0.00    +0.000 HD
ATOM     19  H   UNL     1       8.574   4.252  15.668  0.00  0.00    +0.000 HD
ENDBRANCH   3  10
BRANCH   1  20
ATOM     20  C   UNL     1       1.311   6.750  20.325  0.00  0.00    +0.000 C 
BRANCH  20  21
ATOM     21  C   UNL     1       1.847   8.166  20.152  0.00  0.00    +0.000 C 
BRANCH  21  22
ATOM     22  C   UNL     1       1.673   8.719  18.733  0.00  0.00    +0.000 C 
BRANCH  22  23
ATOM     23  C   UNL     1       1.218  10.188  18.740  0.00  0.00    +0.000 C 
BRANCH  23  24
ATOM     24  C   UNL     1      -0.303  10.308  18.767  0.00  0.00    +0.000 C 
BRANCH  24  25
ATOM     25  O   UNL     1      -0.880   9.819  17.557  0.00  0.00    +0.000 OA
BRANCH  25  29
ATOM     26  N   UNL     1      -4.923  12.357  18.518  0.00  0.00    +0.000 N 
ATOM     27  C   UNL     1      -4.097  11.640  17.655  0.00  0.00    +0.000 A 
ATOM     28  C   UNL     1      -2.901  11.112  18.119  0.00  0.00    +0.000 A 
ATOM     29  C   UNL     1      -2.100  10.374  17.248  0.00  0.00    +0.000 A 
ATOM     30  C   UNL     1      -2.540  10.168  15.949  0.00  0.00    +0.000 A 
ATOM     31  C   UNL     1      -3.752  10.724  15.577  0.00  0.00    +0.000 A 
ATOM     32  N   UNL     1      -4.536  11.456  16.402  0.00  0.00    +0.000 NA
ATOM     33  H   UNL     1      -4.429  13.102  18.992  0.00  0.00    +0.000 HD
ATOM     34  H   UNL     1      -5.703  12.703  17.964  0.00  0.00    +0.000 HD
ENDBRANCH  25  29
ENDBRANCH  24  25
ENDBRANCH  23  24
ENDBRANCH  22  23
ENDBRANCH  21  22
ENDBRANCH  20  21
ENDBRANCH   1  20
TORSDOF 8
ENDMDL
MODEL 2
REMARK VINA RESULT:      -8.3      1.063      1.597
REMARK  Name = 
REMARK  8 active torsions:
REMARK  status: ('A' for Active; 'I' for Inactive)
REMARK    1  A    between atoms: C_4  and  O_5
REMARK    2  A    between atoms: O_5  and  C_6
REMARK    3  A    between atoms: C_6  and  C_7
REMARK    4  A    between atoms: C_7  and  C_8
REMARK    5  A    between atoms: C_8  and  C_9
REMARK    6  A    between atoms: C_9  and  C_10
REMARK    7  A    between atoms: C_10  and  N_11
REMARK    8  A    between atoms: C_13  and  C_14
REMARK                            x       y       z     vdW  Elec       q    Type
REMARK                         _______ _______ _______ _____ _____    ______ ____
ROOT
ATOM      1  N   UNL     1       2.586   6.551  19.553  0.00  0.00    +0.000 N 
ATOM      2  C   UNL     1       3.894   6.615  19.139  0.00  0.00    +0.000 A 
ATOM      3  C   UNL     1       4.423   5.350  19.230  0.00  0.00    +0.000 A 
ATOM      4  C   UNL     1       3.412   4.482  19.727  0.00  0.00    +0.000 A 
ATOM      5  C   UNL     1       3.366   3.102  20.023  0.00  0.00    +0.000 A 
ATOM      6  C   UNL     1       2.188   2.546  20.529  0.00  0.00    +0.000 A 
ATOM      7  C   UNL     1       1.068   3.342  20.747  0.00  0.00    +0.000 A 
ATOM      8  C   UNL     1       1.087   4.711  20.459  0.00  0.00    +0.000 A 
ATOM      9  C   UNL     1       2.269   5.263  19.939  0.00  0.00    +0.000 A 
ENDROOT
BRANCH   3  10
ATOM     10  C   UNL     1       5.761   5.013  18.887  0.00  0.00    +0.000 C 
ATOM     11  C   UNL     1       6.188   4.763  17.648  0.00  0.00    +0.000 C 
ATOM     12  N   UNL     1       5.457   4.791  16.489  0.00  0.00    +0.000 N 
ATOM     13  C   UNL     1       6.277   4.477  15.423  0.00  0.00    +0.000 C 
ATOM     14  S   UNL     1       5.814   4.401  13.842  0.00  0.00    +0.000 S 
ATOM     15  N   UNL     1       7.540   4.248  15.904  0.00  0.00    +0.000 N 
ATOM     16  C   UNL     1       7.586   4.395  17.267  0.00  0.00    +0.000 C 
ATOM     17  O   UNL     1       8.543   4.258  18.002  0.00  0.00    +0.000 OA
ATOM     18  H   UNL     1       4.470   5.002  16.435  0.00  0.00    +0.000 HD
ATOM     19  H   UNL     1       8.337   3.993  15.342  0.00  0.00    +0.000 HD
ENDBRANCH   3  10
BRANCH   1  20
ATOM     20  C   UNL     1       1.696   7.709  19.602  0.00  0.00    +0.000 C 
BRANCH  20  21
ATOM     21  C   UNL     1       1.855   8.563  18.349  0.00  0.00    +0.000 C 
BRANCH  21  22
ATOM     22  C   UNL     1       0.952   9.801  18.333  0.00  0.00    +0.000 C 
BRANCH  22  23
ATOM     23  C   UNL     1       0.522  10.218  19.749  0.00  0.00    +0.000 C 
BRANCH  23  24
ATOM     24  C   UNL     1      -0.856  10.874  19.750  0.00  0.00    +0.000 C 
BRANCH  24  25
ATOM     25  O   UNL     1      -1.018  11.735  18.625  0.00  0.00    +0.000 OA
BRANCH  25  29
ATOM     26  N   UNL     1      -3.439  10.445  14.602  0.00  0.00    +0.000 N 
ATOM     27  C   UNL     1      -3.395  10.835  15.940  0.00  0.00    +0.000 A 
ATOM     28  C   UNL     1      -2.174  11.075  16.552  0.00  0.00    +0.000 A 
ATOM     29  C   UNL     1      -2.150  11.490  17.883  0.00  0.00    +0.000 A 
ATOM     30  C   UNL     1      -3.353  11.676  18.545  0.00  0.00    +0.000 A 
ATOM     31  C   UNL     1      -4.524  11.423  17.852  0.00  0.00    +0.000 A 
ATOM     32  N   UNL     1      -4.568  11.004  16.566  0.00  0.00    +0.000 NA
ATOM     33  H   UNL     1      -2.847   9.646  14.415  0.00  0.00    +0.000 HD
ATOM     34  H   UNL     1      -4.415  10.262  14.378  0.00  0.00    +0.000 HD
ENDBRANCH  25  29
ENDBRANCH  24  25
ENDBRANCH  23  24
ENDBRANCH  22  23
ENDBRANCH  21  22
ENDBRANCH  20  21
ENDBRANCH   1  20
TORSDOF 8
ENDMDL
MODEL 3
REMARK VINA RESULT:      -8.3      4.880      8.746
REMARK  Name = 
REMARK  8 active torsions:
REMARK  status: ('A' for Active; 'I' for Inactive)
REMARK    1  A    between atoms: C_4  and  O_5
REMARK    2  A    between atoms: O_5  and  C_6
REMARK    3  A    between atoms: C_6  and  C_7
REMARK    4  A    between atoms: C_7  and  C_8
REMARK    5  A    between atoms: C_8  and  C_9
REMARK    6  A    between atoms: C_9  and  C_10
REMARK    7  A    between atoms: C_10  and  N_11
REMARK    8  A    between atoms: C_13  and  C_14
REMARK                            x       y       z     vdW  Elec       q    Type
REMARK                         _______ _______ _______ _____ _____    ______ ____
ROOT
ATOM      1  N   UNL     1       4.784   5.553  17.879  0.00  0.00    +0.000 N 
ATOM      2  C   UNL     1       4.248   6.791  17.618  0.00  0.00    +0.000 A 
ATOM      3  C   UNL     1       2.924   6.758  17.987  0.00  0.00    +0.000 A 
ATOM      4  C   UNL     1       2.633   5.456  18.479  0.00  0.00    +0.000 A 
ATOM      5  C   UNL     1       1.470   4.840  18.990  0.00  0.00    +0.000 A 
ATOM      6  C   UNL     1       1.517   3.500  19.383  0.00  0.00    +0.000 A 
ATOM      7  C   UNL     1       2.696   2.771  19.268  0.00  0.00    +0.000 A 
ATOM      8  C   UNL     1       3.864   3.359  18.768  0.00  0.00    +0.000 A 
ATOM      9  C   UNL     1       3.814   4.710  18.386  0.00  0.00    +0.000 A 
ENDROOT
BRANCH   3  10
ATOM     10  C   UNL     1       2.030   7.857  17.868  0.00  0.00    +0.000 C 
ATOM     11  C   UNL     1       1.488   8.510  18.898  0.00  0.00    +0.000 C 
ATOM     12  N   UNL     1       1.682   8.276  20.234  0.00  0.00    +0.000 N 
ATOM     13  C   UNL     1       0.941   9.178  20.970  0.00  0.00    +0.000 C 
ATOM     14  S   UNL     1       0.883   9.262  22.616  0.00  0.00    +0.000 S 
ATOM     15  N   UNL     1       0.269   9.995  20.098  0.00  0.00    +0.000 N 
ATOM     16  C   UNL     1       0.537   9.659  18.796  0.00  0.00    +0.000 C 
ATOM     17  O   UNL     1       0.103  10.175  17.786  0.00  0.00    +0.000 OA
ATOM     18  H   UNL     1       2.273   7.547  20.612  0.00  0.00    +0.000 HD
ATOM     19  H   UNL     1      -0.353  10.743  20.366  0.00  0.00    +0.000 HD
ENDBRANCH   3  10
BRANCH   1  20
ATOM     20  C   UNL     1       6.176   5.203  17.609  0.00  0.00    +0.000 C 
BRANCH  20  21
ATOM     21  C   UNL     1       7.027   5.378  18.862  0.00  0.00    +0.000 C 
BRANCH  21  22
ATOM     22  C   UNL     1       8.015   6.546  18.772  0.00  0.00    +0.000 C 
BRANCH  22  23
ATOM     23  C   UNL     1       7.731   7.449  17.560  0.00  0.00    +0.000 C 
BRANCH  23  24
ATOM     24  C   UNL     1       7.859   8.928  17.915  0.00  0.00    +0.000 C 
BRANCH  24  25
ATOM     25  O   UNL     1       8.958   9.153  18.795  0.00  0.00    +0.000 OA
BRANCH  25  29
ATOM     26  N   UNL     1      10.133  13.586  17.159  0.00  0.00    +0.000 N 
ATOM     27  C   UNL     1       9.862  12.687  18.189  0.00  0.00    +0.000 A 
ATOM     28  C   UNL     1       9.549  11.369  17.893  0.00  0.00    +0.000 A 
ATOM     29  C   UNL     1       9.307  10.476  18.937  0.00  0.00    +0.000 A 
ATOM     30  C   UNL     1       9.415  10.931  20.242  0.00  0.00    +0.000 A 
ATOM     31  C   UNL     1       9.743  12.261  20.443  0.00  0.00    +0.000 A 
ATOM     32  N   UNL     1       9.966  13.146  19.444  0.00  0.00    +0.000 NA
ATOM     33  H   UNL     1       9.402  13.601  16.460  0.00  0.00    +0.000 HD
ATOM     34  H   UNL     1      10.271  14.498  17.589  0.00  0.00    +0.000 HD
ENDBRANCH  25  29
ENDBRANCH  24  25
ENDBRANCH  23  24
ENDBRANCH  22  23
ENDBRANCH  21  22
ENDBRANCH  20  21
ENDBRANCH   1  20
TORSDOF 8
ENDMDL
MODEL 4
REMARK VINA RESULT:      -8.2      3.121      9.039
REMARK  Name = 
REMARK  8 active torsions:
REMARK  status: ('A' for Active; 'I' for Inactive)
REMARK    1  A    between atoms: C_4  and  O_5
REMARK    2  A    between atoms: O_5  and  C_6
REMARK    3  A    between atoms: C_6  and  C_7
REMARK    4  A    between atoms: C_7  and  C_8
REMARK    5  A    between atoms: C_8  and  C_9
REMARK    6  A    between atoms: C_9  and  C_10
REMARK    7  A    between atoms: C_10  and  N_11
REMARK    8  A    between atoms: C_13  and  C_14
REMARK                            x       y       z     vdW  Elec       q    Type
REMARK                         _______ _______ _______ _____ _____    ______ ____
ROOT
ATOM      1  N   UNL     1       1.762   6.398  20.580  0.00  0.00    +0.000 N 
ATOM      2  C   UNL     1       1.071   7.309  21.341  0.00  0.00    +0.000 A 
ATOM      3  C   UNL     1       1.100   8.513  20.679  0.00  0.00    +0.000 A 
ATOM      4  C   UNL     1       1.841   8.340  19.477  0.00  0.00    +0.000 A 
ATOM      5  C   UNL     1       2.200   9.200  18.416  0.00  0.00    +0.000 A 
ATOM      6  C   UNL     1       2.972   8.706  17.362  0.00  0.00    +0.000 A 
ATOM      7  C   UNL     1       3.394   7.380  17.355  0.00  0.00    +0.000 A 
ATOM      8  C   UNL     1       3.049   6.507  18.393  0.00  0.00    +0.000 A 
ATOM      9  C   UNL     1       2.262   7.005  19.444  0.00  0.00    +0.000 A 
ENDROOT
BRANCH   3  10
ATOM     10  C   UNL     1       0.490   9.706  21.154  0.00  0.00    +0.000 C 
ATOM     11  C   UNL     1      -0.429  10.408  20.488  0.00  0.00    +0.000 C 
ATOM     12  N   UNL     1      -0.967  10.128  19.258  0.00  0.00    +0.000 N 
ATOM     13  C   UNL     1      -1.889  11.101  18.930  0.00  0.00    +0.000 C 
ATOM     14  S   UNL     1      -2.780  11.155  17.544  0.00  0.00    +0.000 S 
ATOM     15  N   UNL     1      -1.942  12.008  19.957  0.00  0.00    +0.000 N 
ATOM     16  C   UNL     1      -1.074  11.670  20.963  0.00  0.00    +0.000 C 
ATOM     17  O   UNL     1      -0.870  12.259  22.005  0.00  0.00    +0.000 OA
ATOM     18  H   UNL     1      -0.714   9.334  18.685  0.00  0.00    +0.000 HD
ATOM     19  H   UNL     1      -2.530  12.827  19.977  0.00  0.00    +0.000 HD
ENDBRANCH   3  10
BRANCH   1  20
ATOM     20  C   UNL     1       1.952   5.002  20.966  0.00  0.00    +0.000 C 
BRANCH  20  21
ATOM     21  C   UNL     1       0.887   4.117  20.328  0.00  0.00    +0.000 C 
BRANCH  21  22
ATOM     22  C   UNL     1       1.454   2.860  19.659  0.00  0.00    +0.000 C 
BRANCH  22  23
ATOM     23  C   UNL     1       1.802   3.103  18.181  0.00  0.00    +0.000 C 
BRANCH  23  24
ATOM     24  C   UNL     1       3.298   2.947  17.920  0.00  0.00    +0.000 C 
BRANCH  24  25
ATOM     25  O   UNL     1       3.669   3.544  16.679  0.00  0.00    +0.000 OA
BRANCH  25  29
ATOM     26  N   UNL     1       7.955   4.818  18.608  0.00  0.00    +0.000 N 
ATOM     27  C   UNL     1       7.115   4.588  17.519  0.00  0.00    +0.000 A 
ATOM     28  C   UNL     1       5.807   4.177  17.728  0.00  0.00    +0.000 A 
ATOM     29  C   UNL     1       4.973   3.978  16.627  0.00  0.00    +0.000 A 
ATOM     30  C   UNL     1       5.474   4.224  15.358  0.00  0.00    +0.000 A 
ATOM     31  C   UNL     1       6.789   4.642  15.246  0.00  0.00    +0.000 A 
ATOM     32  N   UNL     1       7.617   4.826  16.300  0.00  0.00    +0.000 NA
ATOM     33  H   UNL     1       7.984   4.031  19.243  0.00  0.00    +0.000 HD
ATOM     34  H   UNL     1       8.873   5.045  18.233  0.00  0.00    +0.000 HD
ENDBRANCH  25  29
ENDBRANCH  24  25
ENDBRANCH  23  24
ENDBRANCH  22  23
ENDBRANCH  21  22
ENDBRANCH  20  21
ENDBRANCH   1  20
TORSDOF 8
ENDMDL
MODEL 5
REMARK VINA RESULT:      -8.2      1.687      1.819
REMARK  Name = 
REMARK  8 active torsions:
REMARK  status: ('A' for Active; 'I' for Inactive)
REMARK    1  A    between atoms: C_4  and  O_5
REMARK    2  A    between atoms: O_5  and  C_6
REMARK    3  A    between atoms: C_6  and  C_7
REMARK    4  A    between atoms: C_7  and  C_8
REMARK    5  A    between atoms: C_8  and  C_9
REMARK    6  A    between atoms: C_9  and  C_10
REMARK    7  A    between atoms: C_10  and  N_11
REMARK    8  A    between atoms: C_13  and  C_14
REMARK                            x       y       z     vdW  Elec       q    Type
REMARK                         _______ _______ _______ _____ _____    ______ ____
ROOT
ATOM      1  N   UNL     1       2.247   5.899  19.569  0.00  0.00    +0.000 N 
ATOM      2  C   UNL     1       3.272   6.119  18.683  0.00  0.00    +0.000 A 
ATOM      3  C   UNL     1       3.482   4.952  17.989  0.00  0.00    +0.000 A 
ATOM      4  C   UNL     1       2.565   3.979  18.472  0.00  0.00    +0.000 A 
ATOM      5  C   UNL     1       2.312   2.627  18.150  0.00  0.00    +0.000 A 
ATOM      6  C   UNL     1       1.321   1.928  18.845  0.00  0.00    +0.000 A 
ATOM      7  C   UNL     1       0.591   2.551  19.852  0.00  0.00    +0.000 A 
ATOM      8  C   UNL     1       0.821   3.890  20.188  0.00  0.00    +0.000 A 
ATOM      9  C   UNL     1       1.808   4.592  19.478  0.00  0.00    +0.000 A 
ENDROOT
BRANCH   3  10
ATOM     10  C   UNL     1       4.467   4.785  16.978  0.00  0.00    +0.000 C 
ATOM     11  C   UNL     1       5.576   5.519  16.868  0.00  0.00    +0.000 C 
ATOM     12  N   UNL     1       5.988   6.541  17.684  0.00  0.00    +0.000 N 
ATOM     13  C   UNL     1       7.193   7.035  17.227  0.00  0.00    +0.000 C 
ATOM     14  S   UNL     1       8.052   8.264  17.913  0.00  0.00    +0.000 S 
ATOM     15  N   UNL     1       7.554   6.324  16.112  0.00  0.00    +0.000 N 
ATOM     16  C   UNL     1       6.619   5.369  15.808  0.00  0.00    +0.000 C 
ATOM     17  O   UNL     1       6.629   4.579  14.886  0.00  0.00    +0.000 OA
ATOM     18  H   UNL     1       5.476   6.878  18.489  0.00  0.00    +0.000 HD
ATOM     19  H   UNL     1       8.391   6.480  15.571  0.00  0.00    +0.000 HD
ENDBRANCH   3  10
BRANCH   1  20
ATOM     20  C   UNL     1       1.742   6.915  20.490  0.00  0.00    +0.000 C 
BRANCH  20  21
ATOM     21  C   UNL     1       1.619   8.263  19.789  0.00  0.00    +0.000 C 
BRANCH  21  22
ATOM     22  C   UNL     1       1.020   9.361  20.674  0.00  0.00    +0.000 C 
BRANCH  22  23
ATOM     23  C   UNL     1      -0.324   9.871  20.128  0.00  0.00    +0.000 C 
BRANCH  23  24
ATOM     24  C   UNL     1      -0.158  10.566  18.779  0.00  0.00    +0.000 C 
BRANCH  24  25
ATOM     25  O   UNL     1      -0.826   9.848  17.743  0.00  0.00    +0.000 OA
BRANCH  25  29
ATOM     26  N   UNL     1      -4.858  12.492  18.423  0.00  0.00    +0.000 N 
ATOM     27  C   UNL     1      -4.023  11.701  17.634  0.00  0.00    +0.000 A 
ATOM     28  C   UNL     1      -2.843  11.200  18.162  0.00  0.00    +0.000 A 
ATOM     29  C   UNL     1      -2.033  10.389  17.367  0.00  0.00    +0.000 A 
ATOM     30  C   UNL     1      -2.451  10.085  16.081  0.00  0.00    +0.000 A 
ATOM     31  C   UNL     1      -3.650  10.621  15.642  0.00  0.00    +0.000 A 
ATOM     32  N   UNL     1      -4.440  11.423  16.392  0.00  0.00    +0.000 NA
ATOM     33  H   UNL     1      -4.365  13.267  18.846  0.00  0.00    +0.000 HD
ATOM     34  H   UNL     1      -5.623  12.801  17.828  0.00  0.00    +0.000 HD
ENDBRANCH  25  29
ENDBRANCH  24  25
ENDBRANCH  23  24
ENDBRANCH  22  23
ENDBRANCH  21  22
ENDBRANCH  20  21
ENDBRANCH   1  20
TORSDOF 8
ENDMDL
MODEL 6
REMARK VINA RESULT:      -8.1      4.825      8.466
REMARK  Name = 
REMARK  8 active torsions:
REMARK  status: ('A' for Active; 'I' for Inactive)
REMARK    1  A    between atoms: C_4  and  O_5
REMARK    2  A    between atoms: O_5  and  C_6
REMARK    3  A    between atoms: C_6  and  C_7
REMARK    4  A    between atoms: C_7  and  C_8
REMARK    5  A    between atoms: C_8  and  C_9
REMARK    6  A    between atoms: C_9  and  C_10
REMARK    7  A    between atoms: C_10  and  N_11
REMARK    8  A    between atoms: C_13  and  C_14
REMARK                            x       y       z     vdW  Elec       q    Type
REMARK                         _______ _______ _______ _____ _____    ______ ____
ROOT
ATOM      1  N   UNL     1       3.496   5.405  18.012  0.00  0.00    +0.000 N 
ATOM      2  C   UNL     1       3.433   6.529  18.798  0.00  0.00    +0.000 A 
ATOM      3  C   UNL     1       2.484   6.308  19.767  0.00  0.00    +0.000 A 
ATOM      4  C   UNL     1       1.937   5.011  19.564  0.00  0.00    +0.000 A 
ATOM      5  C   UNL     1       0.950   4.249  20.226  0.00  0.00    +0.000 A 
ATOM      6  C   UNL     1       0.625   2.977  19.748  0.00  0.00    +0.000 A 
ATOM      7  C   UNL     1       1.262   2.462  18.623  0.00  0.00    +0.000 A 
ATOM      8  C   UNL     1       2.246   3.195  17.951  0.00  0.00    +0.000 A 
ATOM      9  C   UNL     1       2.578   4.468  18.443  0.00  0.00    +0.000 A 
ENDROOT
BRANCH   3  10
ATOM     10  C   UNL     1       2.130   7.246  20.775  0.00  0.00    +0.000 C 
ATOM     11  C   UNL     1       1.429   8.362  20.562  0.00  0.00    +0.000 C 
ATOM     12  N   UNL     1       0.912   8.812  19.375  0.00  0.00    +0.000 N 
ATOM     13  C   UNL     1       0.249  10.004  19.586  0.00  0.00    +0.000 C 
ATOM     14  S   UNL     1      -0.528  10.892  18.435  0.00  0.00    +0.000 S 
ATOM     15  N   UNL     1       0.343  10.318  20.918  0.00  0.00    +0.000 N 
ATOM     16  C   UNL     1       1.057   9.368  21.602  0.00  0.00    +0.000 C 
ATOM     17  O   UNL     1       1.328   9.345  22.786  0.00  0.00    +0.000 OA
ATOM     18  H   UNL     1       1.013   8.340  18.486  0.00  0.00    +0.000 HD
ATOM     19  H   UNL     1      -0.048  11.142  21.348  0.00  0.00    +0.000 HD
ENDBRANCH   3  10
BRANCH   1  20
ATOM     20  C   UNL     1       4.393   5.270  16.867  0.00  0.00    +0.000 C 
BRANCH  20  21
ATOM     21  C   UNL     1       5.082   6.595  16.564  0.00  0.00    +0.000 C 
BRANCH  21  22
ATOM     22  C   UNL     1       6.608   6.536  16.695  0.00  0.00    +0.000 C 
BRANCH  22  23
ATOM     23  C   UNL     1       7.100   7.200  17.992  0.00  0.00    +0.000 C 
BRANCH  23  24
ATOM     24  C   UNL     1       7.771   8.543  17.720  0.00  0.00    +0.000 C 
BRANCH  24  25
ATOM     25  O   UNL     1       8.859   8.767  18.614  0.00  0.00    +0.000 OA
BRANCH  25  29
ATOM     26  N   UNL     1       9.939  12.392  21.680  0.00  0.00    +0.000 N 
ATOM     27  C   UNL     1       9.598  11.908  20.418  0.00  0.00    +0.000 A 
ATOM     28  C   UNL     1       9.414  10.547  20.224  0.00  0.00    +0.000 A 
ATOM     29  C   UNL     1       9.046  10.084  18.961  0.00  0.00    +0.000 A 
ATOM     30  C   UNL     1       8.849  11.006  17.944  0.00  0.00    +0.000 A 
ATOM     31  C   UNL     1       9.044  12.345  18.232  0.00  0.00    +0.000 A 
ATOM     32  N   UNL     1       9.417  12.813  19.446  0.00  0.00    +0.000 NA
ATOM     33  H   UNL     1      10.747  11.921  22.065  0.00  0.00    +0.000 HD
ATOM     34  H   UNL     1      10.087  13.394  21.584  0.00  0.00    +0.000 HD
ENDBRANCH  25  29
ENDBRANCH  24  25
ENDBRANCH  23  24
ENDBRANCH  22  23
ENDBRANCH  21  22
ENDBRANCH  20  21
ENDBRANCH   1  20
TORSDOF 8
ENDMDL
MODEL 7
REMARK VINA RESULT:      -8.1      4.980      8.549
REMARK  Name = 
REMARK  8 active torsions:
REMARK  status: ('A' for Active; 'I' for Inactive)
REMARK    1  A    between atoms: C_4  and  O_5
REMARK    2  A    between atoms: O_5  and  C_6
REMARK    3  A    between atoms: C_6  and  C_7
REMARK    4  A    between atoms: C_7  and  C_8
REMARK    5  A    between atoms: C_8  and  C_9
REMARK    6  A    between atoms: C_9  and  C_10
REMARK    7  A    between atoms: C_10  and  N_11
REMARK    8  A    between atoms: C_13  and  C_14
REMARK                            x       y       z     vdW  Elec       q    Type
REMARK                         _______ _______ _______ _____ _____    ______ ____
ROOT
ATOM      1  N   UNL     1       3.625   5.476  18.196  0.00  0.00    +0.000 N 
ATOM      2  C   UNL     1       3.389   6.552  19.017  0.00  0.00    +0.000 A 
ATOM      3  C   UNL     1       2.355   6.218  19.857  0.00  0.00    +0.000 A 
ATOM      4  C   UNL     1       1.932   4.898  19.536  0.00  0.00    +0.000 A 
ATOM      5  C   UNL     1       0.934   4.039  20.044  0.00  0.00    +0.000 A 
ATOM      6  C   UNL     1       0.761   2.773  19.478  0.00  0.00    +0.000 A 
ATOM      7  C   UNL     1       1.558   2.360  18.415  0.00  0.00    +0.000 A 
ATOM      8  C   UNL     1       2.556   3.192  17.895  0.00  0.00    +0.000 A 
ATOM      9  C   UNL     1       2.735   4.458  18.476  0.00  0.00    +0.000 A 
ENDROOT
BRANCH   3  10
ATOM     10  C   UNL     1       1.820   7.078  20.854  0.00  0.00    +0.000 C 
ATOM     11  C   UNL     1       1.387   8.321  20.633  0.00  0.00    +0.000 C 
ATOM     12  N   UNL     1       1.355   8.997  19.441  0.00  0.00    +0.000 N 
ATOM     13  C   UNL     1       0.828  10.256  19.643  0.00  0.00    +0.000 C 
ATOM     14  S   UNL     1       0.601  11.403  18.480  0.00  0.00    +0.000 S 
ATOM     15  N   UNL     1       0.520  10.386  20.973  0.00  0.00    +0.000 N 
ATOM     16  C   UNL     1       0.832   9.246  21.668  0.00  0.00    +0.000 C 
ATOM     17  O   UNL     1       0.693   9.033  22.855  0.00  0.00    +0.000 OA
ATOM     18  H   UNL     1       1.678   8.625  18.558  0.00  0.00    +0.000 HD
ATOM     19  H   UNL     1       0.125  11.210  21.399  0.00  0.00    +0.000 HD
ENDBRANCH   3  10
BRANCH   1  20
ATOM     20  C   UNL     1       4.655   5.460  17.160  0.00  0.00    +0.000 C 
BRANCH  20  21
ATOM     21  C   UNL     1       6.022   5.774  17.756  0.00  0.00    +0.000 C 
BRANCH  21  22
ATOM     22  C   UNL     1       6.747   6.928  17.053  0.00  0.00    +0.000 C 
BRANCH  22  23
ATOM     23  C   UNL     1       7.859   7.527  17.930  0.00  0.00    +0.000 C 
BRANCH  23  24
ATOM     24  C   UNL     1       7.924   9.046  17.801  0.00  0.00    +0.000 C 
BRANCH  24  25
ATOM     25  O   UNL     1       8.913   9.595  18.669  0.00  0.00    +0.000 OA
BRANCH  25  29
ATOM     26  N   UNL     1       8.257  14.230  17.327  0.00  0.00    +0.000 N 
ATOM     27  C   UNL     1       9.071  13.157  17.689  0.00  0.00    +0.000 A 
ATOM     28  C   UNL     1       8.503  11.927  17.987  0.00  0.00    +0.000 A 
ATOM     29  C   UNL     1       9.333  10.858  18.321  0.00  0.00    +0.000 A 
ATOM     30  C   UNL     1      10.706  11.052  18.316  0.00  0.00    +0.000 A 
ATOM     31  C   UNL     1      11.184  12.311  17.994  0.00  0.00    +0.000 A 
ATOM     32  N   UNL     1      10.394  13.365  17.683  0.00  0.00    +0.000 NA
ATOM     33  H   UNL     1       7.519  14.395  17.999  0.00  0.00    +0.000 HD
ATOM     34  H   UNL     1       8.865  15.039  17.216  0.00  0.00    +0.000 HD
ENDBRANCH  25  29
ENDBRANCH  24  25
ENDBRANCH  23  24
ENDBRANCH  22  23
ENDBRANCH  21  22
ENDBRANCH  20  21
ENDBRANCH   1  20
TORSDOF 8
ENDMDL
MODEL 8
REMARK VINA RESULT:      -8.0      4.882      8.834
REMARK  Name = 
REMARK  8 active torsions:
REMARK  status: ('A' for Active; 'I' for Inactive)
REMARK    1  A    between atoms: C_4  and  O_5
REMARK    2  A    between atoms: O_5  and  C_6
REMARK    3  A    between atoms: C_6  and  C_7
REMARK    4  A    between atoms: C_7  and  C_8
REMARK    5  A    between atoms: C_8  and  C_9
REMARK    6  A    between atoms: C_9  and  C_10
REMARK    7  A    between atoms: C_10  and  N_11
REMARK    8  A    between atoms: C_13  and  C_14
REMARK                            x       y       z     vdW  Elec       q    Type
REMARK                         _______ _______ _______ _____ _____    ______ ____
ROOT
ATOM      1  N   UNL     1       4.529   5.000  18.698  0.00  0.00    +0.000 N 
ATOM      2  C   UNL     1       4.129   6.247  18.284  0.00  0.00    +0.000 A 
ATOM      3  C   UNL     1       2.831   6.427  18.695  0.00  0.00    +0.000 A 
ATOM      4  C   UNL     1       2.413   5.249  19.374  0.00  0.00    +0.000 A 
ATOM      5  C   UNL     1       1.212   4.855  20.002  0.00  0.00    +0.000 A 
ATOM      6  C   UNL     1       1.121   3.585  20.578  0.00  0.00    +0.000 A 
ATOM      7  C   UNL     1       2.199   2.708  20.528  0.00  0.00    +0.000 A 
ATOM      8  C   UNL     1       3.402   3.076  19.914  0.00  0.00    +0.000 A 
ATOM      9  C   UNL     1       3.493   4.358  19.349  0.00  0.00    +0.000 A 
ENDROOT
BRANCH   3  10
ATOM     10  C   UNL     1       2.067   7.602  18.452  0.00  0.00    +0.000 C 
ATOM     11  C   UNL     1       1.522   8.364  19.402  0.00  0.00    +0.000 C 
ATOM     12  N   UNL     1       1.593   8.188  20.760  0.00  0.00    +0.000 N 
ATOM     13  C   UNL     1       0.898   9.201  21.390  0.00  0.00    +0.000 C 
ATOM     14  S   UNL     1       0.729   9.385  23.019  0.00  0.00    +0.000 S 
ATOM     15  N   UNL     1       0.380  10.030  20.428  0.00  0.00    +0.000 N 
ATOM     16  C   UNL     1       0.706   9.594  19.169  0.00  0.00    +0.000 C 
ATOM     17  O   UNL     1       0.402  10.092  18.104  0.00  0.00    +0.000 OA
ATOM     18  H   UNL     1       2.075   7.427  21.219  0.00  0.00    +0.000 HD
ATOM     19  H   UNL     1      -0.179  10.850  20.609  0.00  0.00    +0.000 HD
ENDBRANCH   3  10
BRANCH   1  20
ATOM     20  C   UNL     1       5.856   4.448  18.436  0.00  0.00    +0.000 C 
BRANCH  20  21
ATOM     21  C   UNL     1       6.941   5.435  18.853  0.00  0.00    +0.000 C 
BRANCH  21  22
ATOM     22  C   UNL     1       7.694   6.053  17.671  0.00  0.00    +0.000 C 
BRANCH  22  23
ATOM     23  C   UNL     1       7.411   7.558  17.533  0.00  0.00    +0.000 C 
BRANCH  23  24
ATOM     24  C   UNL     1       8.432   8.397  18.296  0.00  0.00    +0.000 C 
BRANCH  24  25
ATOM     25  O   UNL     1       8.395   9.760  17.878  0.00  0.00    +0.000 OA
BRANCH  25  29
ATOM     26  N   UNL     1       9.832  11.977  21.968  0.00  0.00    +0.000 N 
ATOM     27  C   UNL     1       9.962  11.699  20.608  0.00  0.00    +0.000 A 
ATOM     28  C   UNL     1       9.062  10.847  19.986  0.00  0.00    +0.000 A 
ATOM     29  C   UNL     1       9.191  10.602  18.619  0.00  0.00    +0.000 A 
ATOM     30  C   UNL     1      10.203  11.242  17.919  0.00  0.00    +0.000 A 
ATOM     31  C   UNL     1      11.048  12.084  18.621  0.00  0.00    +0.000 A 
ATOM     32  N   UNL     1      10.949  12.322  19.949  0.00  0.00    +0.000 NA
ATOM     33  H   UNL     1       9.777  11.136  22.528  0.00  0.00    +0.000 HD
ATOM     34  H   UNL     1      10.622  12.563  22.229  0.00  0.00    +0.000 HD
ENDBRANCH  25  29
ENDBRANCH  24  25
ENDBRANCH  23  24
ENDBRANCH  22  23
ENDBRANCH  21  22
ENDBRANCH  20  21
ENDBRANCH   1  20
TORSDOF 8
ENDMDL
MODEL 9
REMARK VINA RESULT:      -8.0      2.663      3.207
REMARK  Name = 
REMARK  8 active torsions:
REMARK  status: ('A' for Active; 'I' for Inactive)
REMARK    1  A    between atoms: C_4  and  O_5
REMARK    2  A    between atoms: O_5  and  C_6
REMARK    3  A    between atoms: C_6  and  C_7
REMARK    4  A    between atoms: C_7  and  C_8
REMARK    5  A    between atoms: C_8  and  C_9
REMARK    6  A    between atoms: C_9  and  C_10
REMARK    7  A    between atoms: C_10  and  N_11
REMARK    8  A    between atoms: C_13  and  C_14
REMARK                            x       y       z     vdW  Elec       q    Type
REMARK                         _______ _______ _______ _____ _____    ______ ____
ROOT
ATOM      1  N   UNL     1       2.618   6.530  19.505  0.00  0.00    +0.000 N 
ATOM      2  C   UNL     1       3.924   6.584  19.083  0.00  0.00    +0.000 A 
ATOM      3  C   UNL     1       4.463   5.329  19.230  0.00  0.00    +0.000 A 
ATOM      4  C   UNL     1       3.461   4.477  19.772  0.00  0.00    +0.000 A 
ATOM      5  C   UNL     1       3.427   3.113  20.133  0.00  0.00    +0.000 A 
ATOM      6  C   UNL     1       2.255   2.572  20.669  0.00  0.00    +0.000 A 
ATOM      7  C   UNL     1       1.130   3.369  20.855  0.00  0.00    +0.000 A 
ATOM      8  C   UNL     1       1.137   4.723  20.503  0.00  0.00    +0.000 A 
ATOM      9  C   UNL     1       2.313   5.259  19.953  0.00  0.00    +0.000 A 
ENDROOT
BRANCH   3  10
ATOM     10  C   UNL     1       5.802   4.986  18.898  0.00  0.00    +0.000 C 
ATOM     11  C   UNL     1       6.232   4.708  17.666  0.00  0.00    +0.000 C 
ATOM     12  N   UNL     1       5.503   4.707  16.505  0.00  0.00    +0.000 N 
ATOM     13  C   UNL     1       6.325   4.371  15.448  0.00  0.00    +0.000 C 
ATOM     14  S   UNL     1       5.865   4.256  13.869  0.00  0.00    +0.000 S 
ATOM     15  N   UNL     1       7.587   4.154  15.937  0.00  0.00    +0.000 N 
ATOM     16  C   UNL     1       7.631   4.334  17.296  0.00  0.00    +0.000 C 
ATOM     17  O   UNL     1       8.587   4.215  18.035  0.00  0.00    +0.000 OA
ATOM     18  H   UNL     1       4.515   4.915  16.444  0.00  0.00    +0.000 HD
ATOM     19  H   UNL     1       8.386   3.888  15.382  0.00  0.00    +0.000 HD
ENDBRANCH   3  10
BRANCH   1  20
ATOM     20  C   UNL     1       1.719   7.682  19.504  0.00  0.00    +0.000 C 
BRANCH  20  21
ATOM     21  C   UNL     1       1.920   8.519  18.246  0.00  0.00    +0.000 C 
BRANCH  21  22
ATOM     22  C   UNL     1       0.946   9.696  18.131  0.00  0.00    +0.000 C 
BRANCH  22  23
ATOM     23  C   UNL     1       1.672  11.051  18.181  0.00  0.00    +0.000 C 
BRANCH  23  24
ATOM     24  C   UNL     1       1.510  11.729  19.538  0.00  0.00    +0.000 C 
BRANCH  24  25
ATOM     25  O   UNL     1       0.142  12.035  19.801  0.00  0.00    +0.000 OA
BRANCH  25  29
ATOM     26  N   UNL     1      -2.958  11.869  23.553  0.00  0.00    +0.000 N 
ATOM     27  C   UNL     1      -1.830  11.419  22.868  0.00  0.00    +0.000 A 
ATOM     28  C   UNL     1      -1.468  12.010  21.667  0.00  0.00    +0.000 A 
ATOM     29  C   UNL     1      -0.321  11.566  21.009  0.00  0.00    +0.000 A 
ATOM     30  C   UNL     1       0.437  10.563  21.593  0.00  0.00    +0.000 A 
ATOM     31  C   UNL     1       0.005  10.040  22.800  0.00  0.00    +0.000 A 
ATOM     32  N   UNL     1      -1.112  10.446  23.445  0.00  0.00    +0.000 NA
ATOM     33  H   UNL     1      -3.782  11.886  22.966  0.00  0.00    +0.000 HD
ATOM     34  H   UNL     1      -3.075  11.263  24.362  0.00  0.00    +0.000 HD
ENDBRANCH  25  29
ENDBRANCH  24  25
ENDBRANCH  23  24
ENDBRANCH  22  23
ENDBRANCH  21  22
ENDBRANCH  20  21
ENDBRANCH   1  20
TORSDOF 8
ENDMDL
