MODEL 1
REMARK VINA RESULT:      -8.8      0.000      0.000
REMARK  Name = 
REMARK  6 active torsions:
REMARK  status: ('A' for Active; 'I' for Inactive)
REMARK    1  A    between atoms: N_11  and  C_12
REMARK    2  A    between atoms: C_12  and  C_13
REMARK    3  A    between atoms: C_13  and  C_14
REMARK    4  A    between atoms: C_14  and  C_15
REMARK    5  A    between atoms: C_15  and  N_16
REMARK    6  A    between atoms: N_19  and  C_20
REMARK                            x       y       z     vdW  Elec       q    Type
REMARK                         _______ _______ _______ _____ _____    ______ ____
ROOT
ATOM      1  C   UNL     1       7.420   7.721  17.360  0.00  0.00    +0.000 C 
ENDROOT
BRANCH   1   2
ATOM      2  N   UNL     1       7.586   6.261  17.282  0.00  0.00    +0.000 NA
ATOM      3  C   UNL     1       7.347   5.597  18.583  0.00  0.00    +0.000 C 
ATOM      4  C   UNL     1       5.889   5.651  19.090  0.00  0.00    +0.000 C 
ATOM      5  N   UNL     1       4.947   5.169  18.062  0.00  0.00    +0.000 N 
ATOM      6  C   UNL     1       5.156   5.720  16.707  0.00  0.00    +0.000 C 
ATOM      7  C   UNL     1       6.649   5.663  16.301  0.00  0.00    +0.000 C 
BRANCH   5   8
ATOM      8  C   UNL     1       4.021   4.172  18.349  0.00  0.00    +0.000 A 
ATOM      9  C   UNL     1       4.106   2.936  17.670  0.00  0.00    +0.000 A 
ATOM     10  C   UNL     1       3.261   1.860  17.950  0.00  0.00    +0.000 A 
ATOM     11  C   UNL     1       2.310   1.970  18.951  0.00  0.00    +0.000 A 
ATOM     12  C   UNL     1       2.170   3.173  19.637  0.00  0.00    +0.000 A 
ATOM     13 CL   UNL     1       0.969   3.220  20.889  0.00  0.00    +0.000 Cl
ATOM     14  C   UNL     1       2.983   4.282  19.319  0.00  0.00    +0.000 A 
ATOM     15 CL   UNL     1       2.585   5.819  20.053  0.00  0.00    +0.000 Cl
ENDBRANCH   5   8
ENDBRANCH   1   2
BRANCH   1  16
ATOM     16  C   UNL     1       8.402   8.388  18.340  0.00  0.00    +0.000 C 
BRANCH  16  17
ATOM     17  C   UNL     1       8.532   9.901  18.148  0.00  0.00    +0.000 C 
BRANCH  17  18
ATOM     18  C   UNL     1       9.478  10.529  19.171  0.00  0.00    +0.000 C 
BRANCH  18  29
ATOM     19  O   UNL     1      11.185  11.784  17.336  0.00  0.00    +0.000 OA
ATOM     20  C   UNL     1      10.456  12.480  18.036  0.00  0.00    +0.000 C 
ATOM     21  C   UNL     1      10.474  13.961  17.880  0.00  0.00    +0.000 A 
ATOM     22  C   UNL     1      11.465  14.556  17.092  0.00  0.00    +0.000 A 
ATOM     23  C   UNL     1      11.466  15.935  16.894  0.00  0.00    +0.000 A 
ATOM     24  C   UNL     1      10.473  16.723  17.475  0.00  0.00    +0.000 A 
ATOM     25  C   UNL     1       9.479  16.137  18.260  0.00  0.00    +0.000 A 
ATOM     26  C   UNL     1       9.480  14.757  18.476  0.00  0.00    +0.000 A 
ATOM     27  C   UNL     1       8.384  14.105  19.276  0.00  0.00    +0.000 C 
ATOM     28  C   UNL     1       8.898  12.832  19.934  0.00  0.00    +0.000 C 
ATOM     29  N   UNL     1       9.575  11.965  18.978  0.00  0.00    +0.000 N 
ENDBRANCH  18  29
ENDBRANCH  17  18
ENDBRANCH  16  17
ENDBRANCH   1  16
TORSDOF 6
ENDMDL
MODEL 2
REMARK VINA RESULT:      -8.4      1.704      2.226
REMARK  Name = 
REMARK  6 active torsions:
REMARK  status: ('A' for Active; 'I' for Inactive)
REMARK    1  A    between atoms: N_11  and  C_12
REMARK    2  A    between atoms: C_12  and  C_13
REMARK    3  A    between atoms: C_13  and  C_14
REMARK    4  A    between atoms: C_14  and  C_15
REMARK    5  A    between atoms: C_15  and  N_16
REMARK    6  A    between atoms: N_19  and  C_20
REMARK                            x       y       z     vdW  Elec       q    Type
REMARK                         _______ _______ _______ _____ _____    ______ ____
ROOT
ATOM      1  C   UNL     1       7.924   7.155  18.164  0.00  0.00    +0.000 C 
ENDROOT
BRANCH   1   2
ATOM      2  N   UNL     1       7.506   6.137  17.187  0.00  0.00    +0.000 NA
ATOM      3  C   UNL     1       7.415   4.786  17.785  0.00  0.00    +0.000 C 
ATOM      4  C   UNL     1       6.289   4.604  18.826  0.00  0.00    +0.000 C 
ATOM      5  N   UNL     1       4.986   5.040  18.286  0.00  0.00    +0.000 N 
ATOM      6  C   UNL     1       4.994   6.348  17.600  0.00  0.00    +0.000 C 
ATOM      7  C   UNL     1       6.179   6.457  16.610  0.00  0.00    +0.000 C 
BRANCH   5   8
ATOM      8  C   UNL     1       3.877   4.200  18.325  0.00  0.00    +0.000 A 
ATOM      9  C   UNL     1       3.779   3.148  17.388  0.00  0.00    +0.000 A 
ATOM     10  C   UNL     1       2.736   2.218  17.402  0.00  0.00    +0.000 A 
ATOM     11  C   UNL     1       1.759   2.290  18.382  0.00  0.00    +0.000 A 
ATOM     12  C   UNL     1       1.799   3.321  19.318  0.00  0.00    +0.000 A 
ATOM     13 CL   UNL     1       0.550   3.325  20.523  0.00  0.00    +0.000 Cl
ATOM     14  C   UNL     1       2.818   4.295  19.273  0.00  0.00    +0.000 A 
ATOM     15 CL   UNL     1       2.662   5.684  20.324  0.00  0.00    +0.000 Cl
ENDBRANCH   5   8
ENDBRANCH   1   2
BRANCH   1  16
ATOM     16  C   UNL     1       7.592   8.591  17.720  0.00  0.00    +0.000 C 
BRANCH  16  17
ATOM     17  C   UNL     1       8.761   9.568  17.871  0.00  0.00    +0.000 C 
BRANCH  17  18
ATOM     18  C   UNL     1       9.011   9.941  19.332  0.00  0.00    +0.000 C 
BRANCH  18  29
ATOM     19  O   UNL     1       8.791  11.629  21.558  0.00  0.00    +0.000 OA
ATOM     20  C   UNL     1       9.447  12.007  20.593  0.00  0.00    +0.000 C 
ATOM     21  C   UNL     1      10.129  13.331  20.633  0.00  0.00    +0.000 A 
ATOM     22  C   UNL     1       9.845  14.217  21.678  0.00  0.00    +0.000 A 
ATOM     23  C   UNL     1      10.511  15.437  21.759  0.00  0.00    +0.000 A 
ATOM     24  C   UNL     1      11.469  15.774  20.803  0.00  0.00    +0.000 A 
ATOM     25  C   UNL     1      11.760  14.895  19.759  0.00  0.00    +0.000 A 
ATOM     26  C   UNL     1      11.085  13.675  19.662  0.00  0.00    +0.000 A 
ATOM     27  C   UNL     1      11.427  12.694  18.573  0.00  0.00    +0.000 C 
ATOM     28  C   UNL     1      10.218  11.832  18.241  0.00  0.00    +0.000 C 
ATOM     29  N   UNL     1       9.620  11.254  19.438  0.00  0.00    +0.000 N 
ENDBRANCH  18  29
ENDBRANCH  17  18
ENDBRANCH  16  17
ENDBRANCH   1  16
TORSDOF 6
ENDMDL
MODEL 3
REMARK VINA RESULT:      -8.3      1.507      1.882
REMARK  Name = 
REMARK  6 active torsions:
REMARK  status: ('A' for Active; 'I' for Inactive)
REMARK    1  A    between atoms: N_11  and  C_12
REMARK    2  A    between atoms: C_12  and  C_13
REMARK    3  A    between atoms: C_13  and  C_14
REMARK    4  A    between atoms: C_14  and  C_15
REMARK    5  A    between atoms: C_15  and  N_16
REMARK    6  A    between atoms: N_19  and  C_20
REMARK                            x       y       z     vdW  Elec       q    Type
REMARK                         _______ _______ _______ _____ _____    ______ ____
ROOT
ATOM      1  C   UNL     1       6.982   8.045  17.605  0.00  0.00    +0.000 C 
ENDROOT
BRANCH   1   2
ATOM      2  N   UNL     1       6.824   6.801  16.835  0.00  0.00    +0.000 NA
ATOM      3  C   UNL     1       7.098   5.596  17.649  0.00  0.00    +0.000 C 
ATOM      4  C   UNL     1       6.077   5.318  18.774  0.00  0.00    +0.000 C 
ATOM      5  N   UNL     1       4.696   5.311  18.253  0.00  0.00    +0.000 N 
ATOM      6  C   UNL     1       4.352   6.439  17.364  0.00  0.00    +0.000 C 
ATOM      7  C   UNL     1       5.449   6.670  16.297  0.00  0.00    +0.000 C 
BRANCH   5   8
ATOM      8  C   UNL     1       3.844   4.238  18.496  0.00  0.00    +0.000 A 
ATOM      9  C   UNL     1       3.910   3.103  17.659  0.00  0.00    +0.000 A 
ATOM     10  C   UNL     1       3.141   1.957  17.876  0.00  0.00    +0.000 A 
ATOM     11  C   UNL     1       2.292   1.892  18.969  0.00  0.00    +0.000 A 
ATOM     12  C   UNL     1       2.174   2.992  19.815  0.00  0.00    +0.000 A 
ATOM     13 CL   UNL     1       1.104   2.819  21.170  0.00  0.00    +0.000 Cl
ATOM     14  C   UNL     1       2.906   4.172  19.566  0.00  0.00    +0.000 A 
ATOM     15 CL   UNL     1       2.523   5.583  20.527  0.00  0.00    +0.000 Cl
ENDBRANCH   5   8
ENDBRANCH   1   2
BRANCH   1  16
ATOM     16  C   UNL     1       8.451   8.481  17.754  0.00  0.00    +0.000 C 
BRANCH  16  17
ATOM     17  C   UNL     1       8.669   9.558  18.819  0.00  0.00    +0.000 C 
BRANCH  17  18
ATOM     18  C   UNL     1       9.294  10.825  18.234  0.00  0.00    +0.000 C 
BRANCH  18  29
ATOM     19  O   UNL     1      10.539  13.301  17.819  0.00  0.00    +0.000 OA
ATOM     20  C   UNL     1      10.171  13.007  18.952  0.00  0.00    +0.000 C 
ATOM     21  C   UNL     1      10.368  13.974  20.069  0.00  0.00    +0.000 A 
ATOM     22  C   UNL     1      11.155  15.112  19.860  0.00  0.00    +0.000 A 
ATOM     23  C   UNL     1      11.307  16.052  20.876  0.00  0.00    +0.000 A 
ATOM     24  C   UNL     1      10.669  15.863  22.102  0.00  0.00    +0.000 A 
ATOM     25  C   UNL     1       9.880  14.732  22.318  0.00  0.00    +0.000 A 
ATOM     26  C   UNL     1       9.734  13.776  21.308  0.00  0.00    +0.000 A 
ATOM     27  C   UNL     1       8.845  12.579  21.508  0.00  0.00    +0.000 C 
ATOM     28  C   UNL     1       9.331  11.414  20.658  0.00  0.00    +0.000 C 
ATOM     29  N   UNL     1       9.547  11.808  19.272  0.00  0.00    +0.000 N 
ENDBRANCH  18  29
ENDBRANCH  17  18
ENDBRANCH  16  17
ENDBRANCH   1  16
TORSDOF 6
ENDMDL
MODEL 4
REMARK VINA RESULT:      -8.3      1.669      2.269
REMARK  Name = 
REMARK  6 active torsions:
REMARK  status: ('A' for Active; 'I' for Inactive)
REMARK    1  A    between atoms: N_11  and  C_12
REMARK    2  A    between atoms: C_12  and  C_13
REMARK    3  A    between atoms: C_13  and  C_14
REMARK    4  A    between atoms: C_14  and  C_15
REMARK    5  A    between atoms: C_15  and  N_16
REMARK    6  A    between atoms: N_19  and  C_20
REMARK                            x       y       z     vdW  Elec       q    Type
REMARK                         _______ _______ _______ _____ _____    ______ ____
ROOT
ATOM      1  C   UNL     1       7.094   7.696  17.148  0.00  0.00    +0.000 C 
ENDROOT
BRANCH   1   2
ATOM      2  N   UNL     1       6.497   6.436  16.678  0.00  0.00    +0.000 NA
ATOM      3  C   UNL     1       6.554   5.369  17.703  0.00  0.00    +0.000 C 
ATOM      4  C   UNL     1       5.674   5.608  18.949  0.00  0.00    +0.000 C 
ATOM      5  N   UNL     1       4.280   5.912  18.569  0.00  0.00    +0.000 N 
ATOM      6  C   UNL     1       4.124   6.913  17.495  0.00  0.00    +0.000 C 
ATOM      7  C   UNL     1       5.073   6.619  16.309  0.00  0.00    +0.000 C 
BRANCH   5   8
ATOM      8  C   UNL     1       3.217   5.197  19.113  0.00  0.00    +0.000 A 
ATOM      9  C   UNL     1       2.518   5.734  20.216  0.00  0.00    +0.000 A 
ATOM     10  C   UNL     1       1.398   5.116  20.775  0.00  0.00    +0.000 A 
ATOM     11  C   UNL     1       0.911   3.940  20.227  0.00  0.00    +0.000 A 
ATOM     12  C   UNL     1       1.576   3.357  19.150  0.00  0.00    +0.000 A 
ATOM     13 CL   UNL     1       0.889   1.898  18.511  0.00  0.00    +0.000 Cl
ATOM     14  C   UNL     1       2.741   3.948  18.618  0.00  0.00    +0.000 A 
ATOM     15 CL   UNL     1       3.648   3.034  17.435  0.00  0.00    +0.000 Cl
ENDBRANCH   5   8
ENDBRANCH   1   2
BRANCH   1  16
ATOM     16  C   UNL     1       8.243   7.482  18.150  0.00  0.00    +0.000 C 
BRANCH  16  17
ATOM     17  C   UNL     1       8.704   8.767  18.841  0.00  0.00    +0.000 C 
BRANCH  17  18
ATOM     18  C   UNL     1       8.346  10.014  18.033  0.00  0.00    +0.000 C 
BRANCH  18  29
ATOM     19  O   UNL     1       7.941  12.643  17.151  0.00  0.00    +0.000 OA
ATOM     20  C   UNL     1       8.820  12.426  17.979  0.00  0.00    +0.000 C 
ATOM     21  C   UNL     1       9.630  13.557  18.513  0.00  0.00    +0.000 A 
ATOM     22  C   UNL     1       9.524  14.818  17.916  0.00  0.00    +0.000 A 
ATOM     23  C   UNL     1      10.234  15.898  18.435  0.00  0.00    +0.000 A 
ATOM     24  C   UNL     1      11.045  15.725  19.556  0.00  0.00    +0.000 A 
ATOM     25  C   UNL     1      11.154  14.472  20.159  0.00  0.00    +0.000 A 
ATOM     26  C   UNL     1      10.456  13.379  19.636  0.00  0.00    +0.000 A 
ATOM     27  C   UNL     1      10.522  12.035  20.308  0.00  0.00    +0.000 C 
ATOM     28  C   UNL     1      10.298  10.925  19.290  0.00  0.00    +0.000 C 
ATOM     29  N   UNL     1       9.109  11.164  18.482  0.00  0.00    +0.000 N 
ENDBRANCH  18  29
ENDBRANCH  17  18
ENDBRANCH  16  17
ENDBRANCH   1  16
TORSDOF 6
ENDMDL
MODEL 5
REMARK VINA RESULT:      -8.2      1.319      1.892
REMARK  Name = 
REMARK  6 active torsions:
REMARK  status: ('A' for Active; 'I' for Inactive)
REMARK    1  A    between atoms: N_11  and  C_12
REMARK    2  A    between atoms: C_12  and  C_13
REMARK    3  A    between atoms: C_13  and  C_14
REMARK    4  A    between atoms: C_14  and  C_15
REMARK    5  A    between atoms: C_15  and  N_16
REMARK    6  A    between atoms: N_19  and  C_20
REMARK                            x       y       z     vdW  Elec       q    Type
REMARK                         _______ _______ _______ _____ _____    ______ ____
ROOT
ATOM      1  C   UNL     1       7.219   7.895  17.342  0.00  0.00    +0.000 C 
ENDROOT
BRANCH   1   2
ATOM      2  N   UNL     1       7.353   6.462  17.033  0.00  0.00    +0.000 NA
ATOM      3  C   UNL     1       7.342   5.620  18.250  0.00  0.00    +0.000 C 
ATOM      4  C   UNL     1       5.997   5.582  19.009  0.00  0.00    +0.000 C 
ATOM      5  N   UNL     1       4.882   5.235  18.106  0.00  0.00    +0.000 N 
ATOM      6  C   UNL     1       4.855   5.971  16.826  0.00  0.00    +0.000 C 
ATOM      7  C   UNL     1       6.251   5.994  16.159  0.00  0.00    +0.000 C 
BRANCH   5   8
ATOM      8  C   UNL     1       4.011   4.193  18.410  0.00  0.00    +0.000 A 
ATOM      9  C   UNL     1       4.132   2.970  17.715  0.00  0.00    +0.000 A 
ATOM     10  C   UNL     1       3.345   1.853  18.008  0.00  0.00    +0.000 A 
ATOM     11  C   UNL     1       2.421   1.910  19.039  0.00  0.00    +0.000 A 
ATOM     12  C   UNL     1       2.248   3.099  19.743  0.00  0.00    +0.000 A 
ATOM     13 CL   UNL     1       1.086   3.078  21.031  0.00  0.00    +0.000 Cl
ATOM     14  C   UNL     1       3.000   4.246  19.413  0.00  0.00    +0.000 A 
ATOM     15 CL   UNL     1       2.557   5.756  20.176  0.00  0.00    +0.000 Cl
ENDBRANCH   5   8
ENDBRANCH   1   2
BRANCH   1  16
ATOM     16  C   UNL     1       8.384   8.442  18.187  0.00  0.00    +0.000 C 
BRANCH  16  17
ATOM     17  C   UNL     1       8.421   9.969  18.271  0.00  0.00    +0.000 C 
BRANCH  17  18
ATOM     18  C   UNL     1       9.848  10.503  18.385  0.00  0.00    +0.000 C 
BRANCH  18  29
ATOM     19  O   UNL     1      10.121  11.500  20.990  0.00  0.00    +0.000 OA
ATOM     20  C   UNL     1       9.996  12.295  20.063  0.00  0.00    +0.000 C 
ATOM     21  C   UNL     1      10.018  13.760  20.335  0.00  0.00    +0.000 A 
ATOM     22  C   UNL     1       9.969  14.212  21.658  0.00  0.00    +0.000 A 
ATOM     23  C   UNL     1      10.042  15.576  21.933  0.00  0.00    +0.000 A 
ATOM     24  C   UNL     1      10.171  16.491  20.889  0.00  0.00    +0.000 A 
ATOM     25  C   UNL     1      10.223  16.048  19.567  0.00  0.00    +0.000 A 
ATOM     26  C   UNL     1      10.136  14.683  19.281  0.00  0.00    +0.000 A 
ATOM     27  C   UNL     1      10.246  14.187  17.865  0.00  0.00    +0.000 C 
ATOM     28  C   UNL     1       9.488  12.876  17.706  0.00  0.00    +0.000 C 
ATOM     29  N   UNL     1       9.852  11.912  18.736  0.00  0.00    +0.000 N 
ENDBRANCH  18  29
ENDBRANCH  17  18
ENDBRANCH  16  17
ENDBRANCH   1  16
TORSDOF 6
ENDMDL
MODEL 6
REMARK VINA RESULT:      -8.1      1.572      2.051
REMARK  Name = 
REMARK  6 active torsions:
REMARK  status: ('A' for Active; 'I' for Inactive)
REMARK    1  A    between atoms: N_11  and  C_12
REMARK    2  A    between atoms: C_12  and  C_13
REMARK    3  A    between atoms: C_13  and  C_14
REMARK    4  A    between atoms: C_14  and  C_15
REMARK    5  A    between atoms: C_15  and  N_16
REMARK    6  A    between atoms: N_19  and  C_20
REMARK                            x       y       z     vdW  Elec       q    Type
REMARK                         _______ _______ _______ _____ _____    ______ ____
ROOT
ATOM      1  C   UNL     1       7.870   7.272  17.745  0.00  0.00    +0.000 C 
ENDROOT
BRANCH   1   2
ATOM      2  N   UNL     1       7.128   6.559  16.693  0.00  0.00    +0.000 NA
ATOM      3  C   UNL     1       7.176   5.089  16.867  0.00  0.00    +0.000 C 
ATOM      4  C   UNL     1       6.425   4.550  18.105  0.00  0.00    +0.000 C 
ATOM      5  N   UNL     1       5.037   5.050  18.148  0.00  0.00    +0.000 N 
ATOM      6  C   UNL     1       4.881   6.499  17.907  0.00  0.00    +0.000 C 
ATOM      7  C   UNL     1       5.700   6.956  16.676  0.00  0.00    +0.000 C 
BRANCH   5   8
ATOM      8  C   UNL     1       3.964   4.174  18.281  0.00  0.00    +0.000 A 
ATOM      9  C   UNL     1       3.831   3.106  17.367  0.00  0.00    +0.000 A 
ATOM     10  C   UNL     1       2.824   2.142  17.472  0.00  0.00    +0.000 A 
ATOM     11  C   UNL     1       1.924   2.195  18.523  0.00  0.00    +0.000 A 
ATOM     12  C   UNL     1       1.998   3.241  19.441  0.00  0.00    +0.000 A 
ATOM     13 CL   UNL     1       0.846   3.221  20.737  0.00  0.00    +0.000 Cl
ATOM     14  C   UNL     1       2.977   4.247  19.306  0.00  0.00    +0.000 A 
ATOM     15 CL   UNL     1       2.854   5.646  20.349  0.00  0.00    +0.000 Cl
ENDBRANCH   5   8
ENDBRANCH   1   2
BRANCH   1  16
ATOM     16  C   UNL     1       7.779   8.803  17.616  0.00  0.00    +0.000 C 
BRANCH  16  17
ATOM     17  C   UNL     1       8.712   9.558  18.565  0.00  0.00    +0.000 C 
BRANCH  17  18
ATOM     18  C   UNL     1       9.391  10.743  17.880  0.00  0.00    +0.000 C 
BRANCH  18  29
ATOM     19  O   UNL     1       8.185  13.267  17.695  0.00  0.00    +0.000 OA
ATOM     20  C   UNL     1       8.952  13.045  18.628  0.00  0.00    +0.000 C 
ATOM     21  C   UNL     1       9.204  14.102  19.647  0.00  0.00    +0.000 A 
ATOM     22  C   UNL     1       8.733  15.400  19.420  0.00  0.00    +0.000 A 
ATOM     23  C   UNL     1       8.914  16.387  20.385  0.00  0.00    +0.000 A 
ATOM     24  C   UNL     1       9.559  16.080  21.583  0.00  0.00    +0.000 A 
ATOM     25  C   UNL     1      10.029  14.788  21.819  0.00  0.00    +0.000 A 
ATOM     26  C   UNL     1       9.865  13.795  20.849  0.00  0.00    +0.000 A 
ATOM     27  C   UNL     1      10.318  12.384  21.111  0.00  0.00    +0.000 C 
ATOM     28  C   UNL     1      10.667  11.691  19.802  0.00  0.00    +0.000 C 
ATOM     29  N   UNL     1       9.605  11.833  18.814  0.00  0.00    +0.000 N 
ENDBRANCH  18  29
ENDBRANCH  17  18
ENDBRANCH  16  17
ENDBRANCH   1  16
TORSDOF 6
ENDMDL
MODEL 7
REMARK VINA RESULT:      -8.1      2.055      2.732
REMARK  Name = 
REMARK  6 active torsions:
REMARK  status: ('A' for Active; 'I' for Inactive)
REMARK    1  A    between atoms: N_11  and  C_12
REMARK    2  A    between atoms: C_12  and  C_13
REMARK    3  A    between atoms: C_13  and  C_14
REMARK    4  A    between atoms: C_14  and  C_15
REMARK    5  A    between atoms: C_15  and  N_16
REMARK    6  A    between atoms: N_19  and  C_20
REMARK                            x       y       z     vdW  Elec       q    Type
REMARK                         _______ _______ _______ _____ _____    ______ ____
ROOT
ATOM      1  C   UNL     1       6.801   8.027  17.246  0.00  0.00    +0.000 C 
ENDROOT
BRANCH   1   2
ATOM      2  N   UNL     1       6.478   6.640  16.873  0.00  0.00    +0.000 NA
ATOM      3  C   UNL     1       6.598   5.708  18.016  0.00  0.00    +0.000 C 
ATOM      4  C   UNL     1       5.556   5.909  19.139  0.00  0.00    +0.000 C 
ATOM      5  N   UNL     1       4.183   5.921  18.598  0.00  0.00    +0.000 N 
ATOM      6  C   UNL     1       3.983   6.766  17.404  0.00  0.00    +0.000 C 
ATOM      7  C   UNL     1       5.095   6.529  16.354  0.00  0.00    +0.000 C 
BRANCH   5   8
ATOM      8  C   UNL     1       3.200   5.085  19.120  0.00  0.00    +0.000 A 
ATOM      9  C   UNL     1       2.418   5.537  20.206  0.00  0.00    +0.000 A 
ATOM     10  C   UNL     1       1.366   4.791  20.742  0.00  0.00    +0.000 A 
ATOM     11  C   UNL     1       1.034   3.566  20.187  0.00  0.00    +0.000 A 
ATOM     12  C   UNL     1       1.787   3.065  19.127  0.00  0.00    +0.000 A 
ATOM     13 CL   UNL     1       1.291   1.534  18.478  0.00  0.00    +0.000 Cl
ATOM     14  C   UNL     1       2.885   3.789  18.620  0.00  0.00    +0.000 A 
ATOM     15 CL   UNL     1       3.920   2.989  17.459  0.00  0.00    +0.000 Cl
ENDBRANCH   5   8
ENDBRANCH   1   2
BRANCH   1  16
ATOM     16  C   UNL     1       8.176   8.166  17.923  0.00  0.00    +0.000 C 
BRANCH  16  17
ATOM     17  C   UNL     1       8.650   9.614  18.066  0.00  0.00    +0.000 C 
BRANCH  17  18
ATOM     18  C   UNL     1       9.171   9.911  19.472  0.00  0.00    +0.000 C 
BRANCH  18  29
ATOM     19  O   UNL     1       8.851  11.678  21.623  0.00  0.00    +0.000 OA
ATOM     20  C   UNL     1       9.528  12.033  20.663  0.00  0.00    +0.000 C 
ATOM     21  C   UNL     1      10.180  13.372  20.670  0.00  0.00    +0.000 A 
ATOM     22  C   UNL     1       9.848  14.291  21.671  0.00  0.00    +0.000 A 
ATOM     23  C   UNL     1      10.487  15.528  21.723  0.00  0.00    +0.000 A 
ATOM     24  C   UNL     1      11.465  15.848  20.782  0.00  0.00    +0.000 A 
ATOM     25  C   UNL     1      11.805  14.935  19.783  0.00  0.00    +0.000 A 
ATOM     26  C   UNL     1      11.158  13.698  19.714  0.00  0.00    +0.000 A 
ATOM     27  C   UNL     1      11.552  12.684  18.675  0.00  0.00    +0.000 C 
ATOM     28  C   UNL     1      10.370  11.784  18.342  0.00  0.00    +0.000 C 
ATOM     29  N   UNL     1       9.750  11.240  19.544  0.00  0.00    +0.000 N 
ENDBRANCH  18  29
ENDBRANCH  17  18
ENDBRANCH  16  17
ENDBRANCH   1  16
TORSDOF 6
ENDMDL
MODEL 8
REMARK VINA RESULT:      -7.8      1.785      2.425
REMARK  Name = 
REMARK  6 active torsions:
REMARK  status: ('A' for Active; 'I' for Inactive)
REMARK    1  A    between atoms: N_11  and  C_12
REMARK    2  A    between atoms: C_12  and  C_13
REMARK    3  A    between atoms: C_13  and  C_14
REMARK    4  A    between atoms: C_14  and  C_15
REMARK    5  A    between atoms: C_15  and  N_16
REMARK    6  A    between atoms: N_19  and  C_20
REMARK                            x       y       z     vdW  Elec       q    Type
REMARK                         _______ _______ _______ _____ _____    ______ ____
ROOT
ATOM      1  C   UNL     1       6.537   7.877  17.573  0.00  0.00    +0.000 C 
ENDROOT
BRANCH   1   2
ATOM      2  N   UNL     1       6.144   6.554  17.061  0.00  0.00    +0.000 NA
ATOM      3  C   UNL     1       6.395   5.473  18.041  0.00  0.00    +0.000 C 
ATOM      4  C   UNL     1       5.512   5.518  19.307  0.00  0.00    +0.000 C 
ATOM      5  N   UNL     1       4.080   5.603  18.958  0.00  0.00    +0.000 N 
ATOM      6  C   UNL     1       3.741   6.604  17.927  0.00  0.00    +0.000 C 
ATOM      7  C   UNL     1       4.703   6.514  16.717  0.00  0.00    +0.000 C 
BRANCH   5   8
ATOM      8  C   UNL     1       3.159   4.703  19.486  0.00  0.00    +0.000 A 
ATOM      9  C   UNL     1       2.876   4.741  20.869  0.00  0.00    +0.000 A 
ATOM     10  C   UNL     1       1.914   3.922  21.466  0.00  0.00    +0.000 A 
ATOM     11  C   UNL     1       1.172   3.048  20.689  0.00  0.00    +0.000 A 
ATOM     12  C   UNL     1       1.426   2.957  19.322  0.00  0.00    +0.000 A 
ATOM     13 CL   UNL     1       0.438   1.853  18.419  0.00  0.00    +0.000 Cl
ATOM     14  C   UNL     1       2.435   3.741  18.725  0.00  0.00    +0.000 A 
ATOM     15 CL   UNL     1       2.856   3.396  17.062  0.00  0.00    +0.000 Cl
ENDBRANCH   5   8
ENDBRANCH   1   2
BRANCH   1  16
ATOM     16  C   UNL     1       8.060   8.099  17.567  0.00  0.00    +0.000 C 
BRANCH  16  17
ATOM     17  C   UNL     1       8.542   9.088  18.630  0.00  0.00    +0.000 C 
BRANCH  17  18
ATOM     18  C   UNL     1       9.150  10.346  18.009  0.00  0.00    +0.000 C 
BRANCH  18  29
ATOM     19  O   UNL     1      10.104  12.928  17.487  0.00  0.00    +0.000 OA
ATOM     20  C   UNL     1       9.899  12.599  18.651  0.00  0.00    +0.000 C 
ATOM     21  C   UNL     1      10.134  13.576  19.750  0.00  0.00    +0.000 A 
ATOM     22  C   UNL     1      10.782  14.783  19.467  0.00  0.00    +0.000 A 
ATOM     23  C   UNL     1      10.963  15.730  20.472  0.00  0.00    +0.000 A 
ATOM     24  C   UNL     1      10.492  15.479  21.760  0.00  0.00    +0.000 A 
ATOM     25  C   UNL     1       9.842  14.279  22.050  0.00  0.00    +0.000 A 
ATOM     26  C   UNL     1       9.669  13.317  21.051  0.00  0.00    +0.000 A 
ATOM     27  C   UNL     1       8.922  12.042  21.336  0.00  0.00    +0.000 C 
ATOM     28  C   UNL     1       9.413  10.929  20.420  0.00  0.00    +0.000 C 
ATOM     29  N   UNL     1       9.430  11.345  19.023  0.00  0.00    +0.000 N 
ENDBRANCH  18  29
ENDBRANCH  17  18
ENDBRANCH  16  17
ENDBRANCH   1  16
TORSDOF 6
ENDMDL
MODEL 9
REMARK VINA RESULT:      -7.8      4.085     11.132
REMARK  Name = 
REMARK  6 active torsions:
REMARK  status: ('A' for Active; 'I' for Inactive)
REMARK    1  A    between atoms: N_11  and  C_12
REMARK    2  A    between atoms: C_12  and  C_13
REMARK    3  A    between atoms: C_13  and  C_14
REMARK    4  A    between atoms: C_14  and  C_15
REMARK    5  A    between atoms: C_15  and  N_16
REMARK    6  A    between atoms: N_19  and  C_20
REMARK                            x       y       z     vdW  Elec       q    Type
REMARK                         _______ _______ _______ _____ _____    ______ ____
ROOT
ATOM      1  C   UNL     1       8.756  10.102  18.651  0.00  0.00    +0.000 C 
ENDROOT
BRANCH   1   2
ATOM      2  N   UNL     1       9.727  11.046  18.074  0.00  0.00    +0.000 NA
ATOM      3  C   UNL     1       9.168  12.409  17.927  0.00  0.00    +0.000 C 
ATOM      4  C   UNL     1       8.871  13.143  19.253  0.00  0.00    +0.000 C 
ATOM      5  N   UNL     1      10.049  13.140  20.142  0.00  0.00    +0.000 N 
ATOM      6  C   UNL     1      10.723  11.834  20.290  0.00  0.00    +0.000 C 
ATOM      7  C   UNL     1      10.941  11.154  18.917  0.00  0.00    +0.000 C 
BRANCH   5   8
ATOM      8  C   UNL     1      10.541  14.323  20.684  0.00  0.00    +0.000 A 
ATOM      9  C   UNL     1      11.557  15.024  19.999  0.00  0.00    +0.000 A 
ATOM     10  C   UNL     1      12.056  16.253  20.438  0.00  0.00    +0.000 A 
ATOM     11  C   UNL     1      11.529  16.847  21.573  0.00  0.00    +0.000 A 
ATOM     12  C   UNL     1      10.538  16.188  22.297  0.00  0.00    +0.000 A 
ATOM     13 CL   UNL     1       9.918  17.011  23.693  0.00  0.00    +0.000 Cl
ATOM     14  C   UNL     1      10.072  14.921  21.890  0.00  0.00    +0.000 A 
ATOM     15 CL   UNL     1       9.010  14.057  22.978  0.00  0.00    +0.000 Cl
ENDBRANCH   5   8
ENDBRANCH   1   2
BRANCH   1  16
ATOM     16  C   UNL     1       8.265   9.049  17.642  0.00  0.00    +0.000 C 
BRANCH  16  17
ATOM     17  C   UNL     1       7.978   7.682  18.268  0.00  0.00    +0.000 C 
BRANCH  17  18
ATOM     18  C   UNL     1       7.502   6.665  17.230  0.00  0.00    +0.000 C 
BRANCH  18  29
ATOM     19  O   UNL     1       6.889   4.431  18.808  0.00  0.00    +0.000 OA
ATOM     20  C   UNL     1       5.969   5.085  18.326  0.00  0.00    +0.000 C 
ATOM     21  C   UNL     1       4.559   4.697  18.608  0.00  0.00    +0.000 A 
ATOM     22  C   UNL     1       4.296   3.477  19.241  0.00  0.00    +0.000 A 
ATOM     23  C   UNL     1       2.987   3.123  19.558  0.00  0.00    +0.000 A 
ATOM     24  C   UNL     1       1.937   3.988  19.252  0.00  0.00    +0.000 A 
ATOM     25  C   UNL     1       2.190   5.208  18.624  0.00  0.00    +0.000 A 
ATOM     26  C   UNL     1       3.499   5.565  18.288  0.00  0.00    +0.000 A 
ATOM     27  C   UNL     1       3.793   6.900  17.659  0.00  0.00    +0.000 C 
ATOM     28  C   UNL     1       5.049   6.814  16.803  0.00  0.00    +0.000 C 
ATOM     29  N   UNL     1       6.158   6.206  17.529  0.00  0.00    +0.000 N 
ENDBRANCH  18  29
ENDBRANCH  17  18
ENDBRANCH  16  17
ENDBRANCH   1  16
TORSDOF 6
ENDMDL
