MODEL 1
REMARK VINA RESULT:      -8.0      0.000      0.000
REMARK  Name = 
REMARK  5 active torsions:
REMARK  status: ('A' for Active; 'I' for Inactive)
REMARK    1  A    between atoms: C_2  and  C_3
REMARK    2  A    between atoms: C_3  and  C_15
REMARK    3  A    between atoms: C_4  and  C_5
REMARK    4  A    between atoms: C_6  and  C_7
REMARK    5  A    between atoms: C_10  and  N_11
REMARK                            x       y       z     vdW  Elec       q    Type
REMARK                         _______ _______ _______ _____ _____    ______ ____
ROOT
ATOM      1  C   UNL     1       2.303   7.164  19.538  0.00  0.00    +0.000 C 
ATOM      2  C   UNL     1       2.896   7.446  18.354  0.00  0.00    +0.000 C 
ENDROOT
BRANCH   1   3
ATOM      3  C   UNL     1       1.528   8.158  20.196  0.00  0.00    +0.000 A 
ATOM      4  N   UNL     1       0.958   9.247  19.711  0.00  0.00    +0.000 NA
ATOM      5  C   UNL     1       0.314   9.845  20.764  0.00  0.00    +0.000 A 
ATOM      6  C   UNL     1      -0.454  11.018  20.800  0.00  0.00    +0.000 A 
ATOM      7  C   UNL     1      -1.007  11.420  22.022  0.00  0.00    +0.000 A 
ATOM      8  C   UNL     1      -0.800  10.670  23.183  0.00  0.00    +0.000 A 
ATOM      9  C   UNL     1      -0.040   9.495  23.165  0.00  0.00    +0.000 A 
ATOM     10  C   UNL     1       0.497   9.117  21.932  0.00  0.00    +0.000 A 
ATOM     11  N   UNL     1       1.267   8.049  21.547  0.00  0.00    +0.000 N 
ATOM     12  H   UNL     1       1.578   7.310  22.163  0.00  0.00    +0.000 HD
ENDBRANCH   1   3
BRANCH   1  14
ATOM     13  N   UNL     1       2.592   4.598  20.571  0.00  0.00    +0.000 NA
ATOM     14  C   UNL     1       2.461   5.762  20.103  0.00  0.00    +0.000 C 
ENDBRANCH   1  14
BRANCH   2  15
ATOM     15  C   UNL     1       3.673   6.496  17.565  0.00  0.00    +0.000 C 
ATOM     16  C   UNL     1       4.709   6.814  16.771  0.00  0.00    +0.000 C 
BRANCH  16  17
ATOM     17  C   UNL     1       5.364   5.799  16.010  0.00  0.00    +0.000 A 
ATOM     18  C   UNL     1       5.397   4.421  16.225  0.00  0.00    +0.000 A 
ATOM     19  C   UNL     1       6.196   3.827  15.214  0.00  0.00    +0.000 A 
ATOM     20  C   UNL     1       6.609   4.871  14.430  0.00  0.00    +0.000 A 
ATOM     21  O   UNL     1       6.124   6.054  14.880  0.00  0.00    +0.000 OA
BRANCH  20  22
ATOM     22  N   UNL     1       7.442   4.919  13.268  0.00  0.00    +0.000 N 
ATOM     23  O   UNL     1       8.394   5.709  13.312  0.00  0.00    +0.000 OA
ATOM     24  O   UNL     1       7.156   4.180  12.319  0.00  0.00    +0.000 OA
ENDBRANCH  20  22
ENDBRANCH  16  17
ENDBRANCH   2  15
TORSDOF 5
ENDMDL
MODEL 2
REMARK VINA RESULT:      -7.7      0.455      1.284
REMARK  Name = 
REMARK  5 active torsions:
REMARK  status: ('A' for Active; 'I' for Inactive)
REMARK    1  A    between atoms: C_2  and  C_3
REMARK    2  A    between atoms: C_3  and  C_15
REMARK    3  A    between atoms: C_4  and  C_5
REMARK    4  A    between atoms: C_6  and  C_7
REMARK    5  A    between atoms: C_10  and  N_11
REMARK                            x       y       z     vdW  Elec       q    Type
REMARK                         _______ _______ _______ _____ _____    ______ ____
ROOT
ATOM      1  C   UNL     1       2.064   7.110  19.843  0.00  0.00    +0.000 C 
ATOM      2  C   UNL     1       2.660   7.378  18.658  0.00  0.00    +0.000 C 
ENDROOT
BRANCH   1   3
ATOM      3  C   UNL     1       1.314   8.123  20.503  0.00  0.00    +0.000 A 
ATOM      4  N   UNL     1       0.871   8.173  21.747  0.00  0.00    +0.000 NA
ATOM      5  C   UNL     1       0.224   9.377  21.874  0.00  0.00    +0.000 A 
ATOM      6  C   UNL     1      -0.418   9.939  22.987  0.00  0.00    +0.000 A 
ATOM      7  C   UNL     1      -1.013  11.200  22.852  0.00  0.00    +0.000 A 
ATOM      8  C   UNL     1      -0.968  11.885  21.635  0.00  0.00    +0.000 A 
ATOM      9  C   UNL     1      -0.329  11.341  20.515  0.00  0.00    +0.000 A 
ATOM     10  C   UNL     1       0.258  10.084  20.681  0.00  0.00    +0.000 A 
ATOM     11  N   UNL     1       0.958   9.271  19.825  0.00  0.00    +0.000 N 
ATOM     12  H   UNL     1       1.173   9.494  18.863  0.00  0.00    +0.000 HD
ENDBRANCH   1   3
BRANCH   1  14
ATOM     13  N   UNL     1       2.298   4.540  20.879  0.00  0.00    +0.000 NA
ATOM     14  C   UNL     1       2.192   5.705  20.409  0.00  0.00    +0.000 C 
ENDBRANCH   1  14
BRANCH   2  15
ATOM     15  C   UNL     1       3.413   6.409  17.867  0.00  0.00    +0.000 C 
ATOM     16  C   UNL     1       4.502   6.690  17.133  0.00  0.00    +0.000 C 
BRANCH  16  17
ATOM     17  C   UNL     1       5.129   5.663  16.363  0.00  0.00    +0.000 A 
ATOM     18  C   UNL     1       5.181   4.290  16.605  0.00  0.00    +0.000 A 
ATOM     19  C   UNL     1       5.937   3.680  15.570  0.00  0.00    +0.000 A 
ATOM     20  C   UNL     1       6.305   4.710  14.745  0.00  0.00    +0.000 A 
ATOM     21  O   UNL     1       5.833   5.899  15.194  0.00  0.00    +0.000 OA
BRANCH  20  22
ATOM     22  N   UNL     1       7.082   4.739  13.545  0.00  0.00    +0.000 N 
ATOM     23  O   UNL     1       8.054   5.506  13.544  0.00  0.00    +0.000 OA
ATOM     24  O   UNL     1       6.734   4.008  12.611  0.00  0.00    +0.000 OA
ENDBRANCH  20  22
ENDBRANCH  16  17
ENDBRANCH   2  15
TORSDOF 5
ENDMDL
MODEL 3
REMARK VINA RESULT:      -7.3      6.763      9.608
REMARK  Name = 
REMARK  5 active torsions:
REMARK  status: ('A' for Active; 'I' for Inactive)
REMARK    1  A    between atoms: C_2  and  C_3
REMARK    2  A    between atoms: C_3  and  C_15
REMARK    3  A    between atoms: C_4  and  C_5
REMARK    4  A    between atoms: C_6  and  C_7
REMARK    5  A    between atoms: C_10  and  N_11
REMARK                            x       y       z     vdW  Elec       q    Type
REMARK                         _______ _______ _______ _____ _____    ______ ____
ROOT
ATOM      1  C   UNL     1       7.388   6.640  17.426  0.00  0.00    +0.000 C 
ATOM      2  C   UNL     1       7.789   7.917  17.227  0.00  0.00    +0.000 C 
ENDROOT
BRANCH   1   3
ATOM      3  C   UNL     1       6.924   5.865  16.327  0.00  0.00    +0.000 A 
ATOM      4  N   UNL     1       5.779   5.225  16.165  0.00  0.00    +0.000 NA
ATOM      5  C   UNL     1       5.832   4.655  14.918  0.00  0.00    +0.000 A 
ATOM      6  C   UNL     1       4.878   3.878  14.243  0.00  0.00    +0.000 A 
ATOM      7  C   UNL     1       5.184   3.407  12.960  0.00  0.00    +0.000 A 
ATOM      8  C   UNL     1       6.412   3.704  12.363  0.00  0.00    +0.000 A 
ATOM      9  C   UNL     1       7.373   4.481  13.019  0.00  0.00    +0.000 A 
ATOM     10  C   UNL     1       7.039   4.939  14.296  0.00  0.00    +0.000 A 
ATOM     11  N   UNL     1       7.716   5.711  15.207  0.00  0.00    +0.000 N 
ATOM     12  H   UNL     1       8.637   6.100  15.063  0.00  0.00    +0.000 HD
ENDBRANCH   1   3
BRANCH   1  14
ATOM     13  N   UNL     1       7.570   5.590  19.995  0.00  0.00    +0.000 NA
ATOM     14  C   UNL     1       7.487   6.066  18.830  0.00  0.00    +0.000 C 
ENDBRANCH   1  14
BRANCH   2  15
ATOM     15  C   UNL     1       8.327   8.791  18.265  0.00  0.00    +0.000 C 
ATOM     16  C   UNL     1       8.687  10.073  18.087  0.00  0.00    +0.000 C 
BRANCH  16  17
ATOM     17  C   UNL     1       9.245  10.816  19.172  0.00  0.00    +0.000 A 
ATOM     18  C   UNL     1       9.124  10.594  20.544  0.00  0.00    +0.000 A 
ATOM     19  C   UNL     1       9.840  11.611  21.228  0.00  0.00    +0.000 A 
ATOM     20  C   UNL     1      10.364  12.401  20.240  0.00  0.00    +0.000 A 
ATOM     21  O   UNL     1      10.028  11.946  19.008  0.00  0.00    +0.000 OA
BRANCH  20  22
ATOM     22  N   UNL     1      11.166  13.584  20.290  0.00  0.00    +0.000 N 
ATOM     23  O   UNL     1      12.121  13.630  19.502  0.00  0.00    +0.000 OA
ATOM     24  O   UNL     1      10.854  14.462  21.102  0.00  0.00    +0.000 OA
ENDBRANCH  20  22
ENDBRANCH  16  17
ENDBRANCH   2  15
TORSDOF 5
ENDMDL
MODEL 4
REMARK VINA RESULT:      -7.1      0.723      1.000
REMARK  Name = 
REMARK  5 active torsions:
REMARK  status: ('A' for Active; 'I' for Inactive)
REMARK    1  A    between atoms: C_2  and  C_3
REMARK    2  A    between atoms: C_3  and  C_15
REMARK    3  A    between atoms: C_4  and  C_5
REMARK    4  A    between atoms: C_6  and  C_7
REMARK    5  A    between atoms: C_10  and  N_11
REMARK                            x       y       z     vdW  Elec       q    Type
REMARK                         _______ _______ _______ _____ _____    ______ ____
ROOT
ATOM      1  C   UNL     1       2.108   7.778  19.263  0.00  0.00    +0.000 C 
ATOM      2  C   UNL     1       2.725   7.972  18.074  0.00  0.00    +0.000 C 
ENDROOT
BRANCH   1   3
ATOM      3  C   UNL     1       1.355   8.833  19.850  0.00  0.00    +0.000 A 
ATOM      4  N   UNL     1       0.840   9.916  19.295  0.00  0.00    +0.000 NA
ATOM      5  C   UNL     1       0.192  10.590  20.300  0.00  0.00    +0.000 A 
ATOM      6  C   UNL     1      -0.531  11.791  20.255  0.00  0.00    +0.000 A 
ATOM      7  C   UNL     1      -1.101  12.274  21.440  0.00  0.00    +0.000 A 
ATOM      8  C   UNL     1      -0.953  11.576  22.642  0.00  0.00    +0.000 A 
ATOM      9  C   UNL     1      -0.238  10.375  22.703  0.00  0.00    +0.000 A 
ATOM     10  C   UNL     1       0.316   9.916  21.506  0.00  0.00    +0.000 A 
ATOM     11  N   UNL     1       1.055   8.801  21.197  0.00  0.00    +0.000 N 
ATOM     12  H   UNL     1       1.320   8.083  21.856  0.00  0.00    +0.000 HD
ENDBRANCH   1   3
BRANCH   1  14
ATOM     13  N   UNL     1       2.306   5.272  20.453  0.00  0.00    +0.000 NA
ATOM     14  C   UNL     1       2.217   6.409  19.913  0.00  0.00    +0.000 C 
ENDBRANCH   1  14
BRANCH   2  15
ATOM     15  C   UNL     1       3.483   6.954  17.355  0.00  0.00    +0.000 C 
ATOM     16  C   UNL     1       4.807   6.755  17.462  0.00  0.00    +0.000 C 
BRANCH  16  17
ATOM     17  C   UNL     1       5.447   5.754  16.669  0.00  0.00    +0.000 A 
ATOM     18  C   UNL     1       5.651   4.404  16.955  0.00  0.00    +0.000 A 
ATOM     19  C   UNL     1       6.353   3.816  15.871  0.00  0.00    +0.000 A 
ATOM     20  C   UNL     1       6.539   4.835  14.975  0.00  0.00    +0.000 A 
ATOM     21  O   UNL     1       6.005   5.997  15.426  0.00  0.00    +0.000 OA
BRANCH  20  22
ATOM     22  N   UNL     1       7.185   4.878  13.700  0.00  0.00    +0.000 N 
ATOM     23  O   UNL     1       6.810   4.038  12.870  0.00  0.00    +0.000 OA
ATOM     24  O   UNL     1       8.057   5.736  13.521  0.00  0.00    +0.000 OA
ENDBRANCH  20  22
ENDBRANCH  16  17
ENDBRANCH   2  15
TORSDOF 5
ENDMDL
MODEL 5
REMARK VINA RESULT:      -7.1      6.136     10.409
REMARK  Name = 
REMARK  5 active torsions:
REMARK  status: ('A' for Active; 'I' for Inactive)
REMARK    1  A    between atoms: C_2  and  C_3
REMARK    2  A    between atoms: C_3  and  C_15
REMARK    3  A    between atoms: C_4  and  C_5
REMARK    4  A    between atoms: C_6  and  C_7
REMARK    5  A    between atoms: C_10  and  N_11
REMARK                            x       y       z     vdW  Elec       q    Type
REMARK                         _______ _______ _______ _____ _____    ______ ____
ROOT
ATOM      1  C   UNL     1       1.459   8.140  20.319  0.00  0.00    +0.000 C 
ATOM      2  C   UNL     1       0.922   8.453  21.522  0.00  0.00    +0.000 C 
ENDROOT
BRANCH   1   3
ATOM      3  C   UNL     1       2.102   6.885  20.136  0.00  0.00    +0.000 A 
ATOM      4  N   UNL     1       3.073   6.544  19.307  0.00  0.00    +0.000 NA
ATOM      5  C   UNL     1       3.339   5.220  19.552  0.00  0.00    +0.000 A 
ATOM      6  C   UNL     1       4.283   4.368  18.961  0.00  0.00    +0.000 A 
ATOM      7  C   UNL     1       4.350   3.038  19.394  0.00  0.00    +0.000 A 
ATOM      8  C   UNL     1       3.494   2.567  20.393  0.00  0.00    +0.000 A 
ATOM      9  C   UNL     1       2.549   3.404  20.996  0.00  0.00    +0.000 A 
ATOM     10  C   UNL     1       2.507   4.726  20.547  0.00  0.00    +0.000 A 
ATOM     11  N   UNL     1       1.733   5.800  20.906  0.00  0.00    +0.000 N 
ATOM     12  H   UNL     1       1.020   5.785  21.622  0.00  0.00    +0.000 HD
ENDBRANCH   1   3
BRANCH   1  14
ATOM     13  N   UNL     1       1.194   9.974  18.246  0.00  0.00    +0.000 NA
ATOM     14  C   UNL     1       1.314   9.143  19.186  0.00  0.00    +0.000 C 
ENDBRANCH   1  14
BRANCH   2  15
ATOM     15  C   UNL     1       0.198   9.686  21.815  0.00  0.00    +0.000 C 
ATOM     16  C   UNL     1      -0.634   9.867  22.854  0.00  0.00    +0.000 C 
BRANCH  16  17
ATOM     17  C   UNL     1      -1.323  11.108  23.010  0.00  0.00    +0.000 A 
ATOM     18  C   UNL     1      -0.877  12.401  22.739  0.00  0.00    +0.000 A 
ATOM     19  C   UNL     1      -1.911  13.313  23.075  0.00  0.00    +0.000 A 
ATOM     20  C   UNL     1      -2.938  12.531  23.533  0.00  0.00    +0.000 A 
ATOM     21  O   UNL     1      -2.614  11.215  23.500  0.00  0.00    +0.000 OA
BRANCH  20  22
ATOM     22  N   UNL     1      -4.239  12.859  24.028  0.00  0.00    +0.000 N 
ATOM     23  O   UNL     1      -4.719  13.929  23.632  0.00  0.00    +0.000 OA
ATOM     24  O   UNL     1      -4.782  12.062  24.803  0.00  0.00    +0.000 OA
ENDBRANCH  20  22
ENDBRANCH  16  17
ENDBRANCH   2  15
TORSDOF 5
ENDMDL
MODEL 6
REMARK VINA RESULT:      -7.1      5.302      9.369
REMARK  Name = 
REMARK  5 active torsions:
REMARK  status: ('A' for Active; 'I' for Inactive)
REMARK    1  A    between atoms: C_2  and  C_3
REMARK    2  A    between atoms: C_3  and  C_15
REMARK    3  A    between atoms: C_4  and  C_5
REMARK    4  A    between atoms: C_6  and  C_7
REMARK    5  A    between atoms: C_10  and  N_11
REMARK                            x       y       z     vdW  Elec       q    Type
REMARK                         _______ _______ _______ _____ _____    ______ ____
ROOT
ATOM      1  C   UNL     1       2.020   7.424  19.534  0.00  0.00    +0.000 C 
ATOM      2  C   UNL     1       1.587   7.737  20.778  0.00  0.00    +0.000 C 
ENDROOT
BRANCH   1   3
ATOM      3  C   UNL     1       2.379   6.083  19.227  0.00  0.00    +0.000 A 
ATOM      4  N   UNL     1       2.143   5.371  18.139  0.00  0.00    +0.000 NA
ATOM      5  C   UNL     1       2.723   4.145  18.349  0.00  0.00    +0.000 A 
ATOM      6  C   UNL     1       2.780   3.022  17.511  0.00  0.00    +0.000 A 
ATOM      7  C   UNL     1       3.440   1.875  17.972  0.00  0.00    +0.000 A 
ATOM      8  C   UNL     1       4.029   1.849  19.239  0.00  0.00    +0.000 A 
ATOM      9  C   UNL     1       3.986   2.962  20.085  0.00  0.00    +0.000 A 
ATOM     10  C   UNL     1       3.324   4.092  19.599  0.00  0.00    +0.000 A 
ATOM     11  N   UNL     1       3.097   5.334  20.137  0.00  0.00    +0.000 N 
ATOM     12  H   UNL     1       3.415   5.635  21.048  0.00  0.00    +0.000 HD
ENDBRANCH   1   3
BRANCH   1  14
ATOM     13  N   UNL     1       2.110   9.446  17.627  0.00  0.00    +0.000 NA
ATOM     14  C   UNL     1       2.069   8.529  18.492  0.00  0.00    +0.000 C 
ENDBRANCH   1  14
BRANCH   2  15
ATOM     15  C   UNL     1       1.147   9.065  21.196  0.00  0.00    +0.000 C 
ATOM     16  C   UNL     1       0.025   9.326  21.888  0.00  0.00    +0.000 C 
BRANCH  16  17
ATOM     17  C   UNL     1      -0.324  10.675  22.201  0.00  0.00    +0.000 A 
ATOM     18  C   UNL     1      -1.371  11.152  22.988  0.00  0.00    +0.000 A 
ATOM     19  C   UNL     1      -1.325  12.571  22.987  0.00  0.00    +0.000 A 
ATOM     20  C   UNL     1      -0.249  12.889  22.201  0.00  0.00    +0.000 A 
ATOM     21  O   UNL     1       0.365  11.778  21.725  0.00  0.00    +0.000 OA
BRANCH  20  22
ATOM     22  N   UNL     1       0.304  14.147  21.806  0.00  0.00    +0.000 N 
ATOM     23  O   UNL     1       1.474  14.361  22.152  0.00  0.00    +0.000 OA
ATOM     24  O   UNL     1      -0.413  14.918  21.158  0.00  0.00    +0.000 OA
ENDBRANCH  20  22
ENDBRANCH  16  17
ENDBRANCH   2  15
TORSDOF 5
ENDMDL
MODEL 7
REMARK VINA RESULT:      -7.0      4.011      9.582
REMARK  Name = 
REMARK  5 active torsions:
REMARK  status: ('A' for Active; 'I' for Inactive)
REMARK    1  A    between atoms: C_2  and  C_3
REMARK    2  A    between atoms: C_3  and  C_15
REMARK    3  A    between atoms: C_4  and  C_5
REMARK    4  A    between atoms: C_6  and  C_7
REMARK    5  A    between atoms: C_10  and  N_11
REMARK                            x       y       z     vdW  Elec       q    Type
REMARK                         _______ _______ _______ _____ _____    ______ ____
ROOT
ATOM      1  C   UNL     1       4.969   5.763  17.198  0.00  0.00    +0.000 C 
ATOM      2  C   UNL     1       3.828   6.491  17.207  0.00  0.00    +0.000 C 
ENDROOT
BRANCH   1   3
ATOM      3  C   UNL     1       5.554   5.378  15.960  0.00  0.00    +0.000 A 
ATOM      4  N   UNL     1       6.659   5.806  15.376  0.00  0.00    +0.000 NA
ATOM      5  C   UNL     1       6.776   5.093  14.209  0.00  0.00    +0.000 A 
ATOM      6  C   UNL     1       7.770   5.144  13.220  0.00  0.00    +0.000 A 
ATOM      7  C   UNL     1       7.652   4.302  12.108  0.00  0.00    +0.000 A 
ATOM      8  C   UNL     1       6.568   3.428  11.983  0.00  0.00    +0.000 A 
ATOM      9  C   UNL     1       5.570   3.362  12.962  0.00  0.00    +0.000 A 
ATOM     10  C   UNL     1       5.715   4.211  14.061  0.00  0.00    +0.000 A 
ATOM     11  N   UNL     1       4.954   4.406  15.186  0.00  0.00    +0.000 N 
ATOM     12  H   UNL     1       4.101   3.907  15.399  0.00  0.00    +0.000 HD
ENDBRANCH   1   3
BRANCH   1  14
ATOM     13  N   UNL     1       6.139   5.128  19.640  0.00  0.00    +0.000 NA
ATOM     14  C   UNL     1       5.609   5.416  18.533  0.00  0.00    +0.000 C 
ENDBRANCH   1  14
BRANCH   2  15
ATOM     15  C   UNL     1       3.164   6.984  18.410  0.00  0.00    +0.000 C 
ATOM     16  C   UNL     1       2.227   7.946  18.437  0.00  0.00    +0.000 C 
BRANCH  16  17
ATOM     17  C   UNL     1       1.682   8.377  19.685  0.00  0.00    +0.000 A 
ATOM     18  C   UNL     1       1.678   7.721  20.916  0.00  0.00    +0.000 A 
ATOM     19  C   UNL     1       0.997   8.537  21.857  0.00  0.00    +0.000 A 
ATOM     20  C   UNL     1       0.622   9.651  21.155  0.00  0.00    +0.000 A 
ATOM     21  O   UNL     1       1.021   9.581  19.861  0.00  0.00    +0.000 OA
BRANCH  20  22
ATOM     22  N   UNL     1      -0.101  10.823  21.541  0.00  0.00    +0.000 N 
ATOM     23  O   UNL     1       0.021  11.174  22.723  0.00  0.00    +0.000 OA
ATOM     24  O   UNL     1      -0.783  11.393  20.682  0.00  0.00    +0.000 OA
ENDBRANCH  20  22
ENDBRANCH  16  17
ENDBRANCH   2  15
TORSDOF 5
ENDMDL
MODEL 8
REMARK VINA RESULT:      -7.0      3.110      4.340
REMARK  Name = 
REMARK  5 active torsions:
REMARK  status: ('A' for Active; 'I' for Inactive)
REMARK    1  A    between atoms: C_2  and  C_3
REMARK    2  A    between atoms: C_3  and  C_15
REMARK    3  A    between atoms: C_4  and  C_5
REMARK    4  A    between atoms: C_6  and  C_7
REMARK    5  A    between atoms: C_10  and  N_11
REMARK                            x       y       z     vdW  Elec       q    Type
REMARK                         _______ _______ _______ _____ _____    ______ ____
ROOT
ATOM      1  C   UNL     1       0.413   9.458  18.865  0.00  0.00    +0.000 C 
ATOM      2  C   UNL     1       1.177   9.037  17.831  0.00  0.00    +0.000 C 
ENDROOT
BRANCH   1   3
ATOM      3  C   UNL     1      -0.833  10.096  18.611  0.00  0.00    +0.000 A 
ATOM      4  N   UNL     1      -1.590  10.825  19.412  0.00  0.00    +0.000 NA
ATOM      5  C   UNL     1      -2.672  11.217  18.665  0.00  0.00    +0.000 A 
ATOM      6  C   UNL     1      -3.770  12.013  19.022  0.00  0.00    +0.000 A 
ATOM      7  C   UNL     1      -4.756  12.265  18.060  0.00  0.00    +0.000 A 
ATOM      8  C   UNL     1      -4.650  11.736  16.771  0.00  0.00    +0.000 A 
ATOM      9  C   UNL     1      -3.559  10.944  16.396  0.00  0.00    +0.000 A 
ATOM     10  C   UNL     1      -2.590  10.712  17.375  0.00  0.00    +0.000 A 
ATOM     11  N   UNL     1      -1.413  10.006  17.362  0.00  0.00    +0.000 N 
ATOM     12  H   UNL     1      -1.044   9.514  16.561  0.00  0.00    +0.000 HD
ENDBRANCH   1   3
BRANCH   1  14
ATOM     13  N   UNL     1       1.319   8.974  21.450  0.00  0.00    +0.000 NA
ATOM     14  C   UNL     1       0.908   9.194  20.278  0.00  0.00    +0.000 C 
ENDBRANCH   1  14
BRANCH   2  15
ATOM     15  C   UNL     1       2.447   8.330  17.968  0.00  0.00    +0.000 C 
ATOM     16  C   UNL     1       2.587   6.996  18.033  0.00  0.00    +0.000 C 
BRANCH  16  17
ATOM     17  C   UNL     1       3.881   6.421  18.214  0.00  0.00    +0.000 A 
ATOM     18  C   UNL     1       4.387   5.719  19.308  0.00  0.00    +0.000 A 
ATOM     19  C   UNL     1       5.733   5.364  19.032  0.00  0.00    +0.000 A 
ATOM     20  C   UNL     1       5.981   5.863  17.781  0.00  0.00    +0.000 A 
ATOM     21  O   UNL     1       4.894   6.493  17.272  0.00  0.00    +0.000 OA
BRANCH  20  22
ATOM     22  N   UNL     1       7.152   5.841  16.961  0.00  0.00    +0.000 N 
ATOM     23  O   UNL     1       7.521   4.726  16.567  0.00  0.00    +0.000 OA
ATOM     24  O   UNL     1       7.703   6.919  16.707  0.00  0.00    +0.000 OA
ENDBRANCH  20  22
ENDBRANCH  16  17
ENDBRANCH   2  15
TORSDOF 5
ENDMDL
MODEL 9
REMARK VINA RESULT:      -7.0      0.917      1.657
REMARK  Name = 
REMARK  5 active torsions:
REMARK  status: ('A' for Active; 'I' for Inactive)
REMARK    1  A    between atoms: C_2  and  C_3
REMARK    2  A    between atoms: C_3  and  C_15
REMARK    3  A    between atoms: C_4  and  C_5
REMARK    4  A    between atoms: C_6  and  C_7
REMARK    5  A    between atoms: C_10  and  N_11
REMARK                            x       y       z     vdW  Elec       q    Type
REMARK                         _______ _______ _______ _____ _____    ______ ____
ROOT
ATOM      1  C   UNL     1       2.395   6.983  18.674  0.00  0.00    +0.000 C 
ATOM      2  C   UNL     1       3.362   7.442  17.846  0.00  0.00    +0.000 C 
ENDROOT
BRANCH   1   3
ATOM      3  C   UNL     1       1.771   7.870  19.594  0.00  0.00    +0.000 A 
ATOM      4  N   UNL     1       1.507   7.710  20.879  0.00  0.00    +0.000 NA
ATOM      5  C   UNL     1       0.917   8.876  21.297  0.00  0.00    +0.000 A 
ATOM      6  C   UNL     1       0.451   9.242  22.569  0.00  0.00    +0.000 A 
ATOM      7  C   UNL     1      -0.123  10.509  22.733  0.00  0.00    +0.000 A 
ATOM      8  C   UNL     1      -0.229  11.391  21.654  0.00  0.00    +0.000 A 
ATOM      9  C   UNL     1       0.234  11.044  20.380  0.00  0.00    +0.000 A 
ATOM     10  C   UNL     1       0.804   9.776  20.247  0.00  0.00    +0.000 A 
ATOM     11  N   UNL     1       1.356   9.118  19.177  0.00  0.00    +0.000 N 
ATOM     12  H   UNL     1       1.441   9.501  18.245  0.00  0.00    +0.000 HD
ENDBRANCH   1   3
BRANCH   1  14
ATOM     13  N   UNL     1       1.642   4.314  18.462  0.00  0.00    +0.000 NA
ATOM     14  C   UNL     1       1.984   5.524  18.558  0.00  0.00    +0.000 C 
ENDBRANCH   1  14
BRANCH   2  15
ATOM     15  C   UNL     1       4.038   6.640  16.831  0.00  0.00    +0.000 C 
ATOM     16  C   UNL     1       5.200   5.989  17.007  0.00  0.00    +0.000 C 
BRANCH  16  17
ATOM     17  C   UNL     1       5.789   5.272  15.922  0.00  0.00    +0.000 A 
ATOM     18  C   UNL     1       5.709   3.912  15.620  0.00  0.00    +0.000 A 
ATOM     19  C   UNL     1       6.480   3.665  14.454  0.00  0.00    +0.000 A 
ATOM     20  C   UNL     1       6.989   4.886  14.100  0.00  0.00    +0.000 A 
ATOM     21  O   UNL     1       6.590   5.858  14.956  0.00  0.00    +0.000 OA
BRANCH  20  22
ATOM     22  N   UNL     1       7.847   5.286  13.028  0.00  0.00    +0.000 N 
ATOM     23  O   UNL     1       7.557   4.849  11.906  0.00  0.00    +0.000 OA
ATOM     24  O   UNL     1       8.798   6.030  13.294  0.00  0.00    +0.000 OA
ENDBRANCH  20  22
ENDBRANCH  16  17
ENDBRANCH   2  15
TORSDOF 5
ENDMDL
