MODEL 1
REMARK VINA RESULT:      -7.4      0.000      0.000
REMARK  Name = 
REMARK  6 active torsions:
REMARK  status: ('A' for Active; 'I' for Inactive)
REMARK    1  A    between atoms: C_1  and  N_2
REMARK    2  A    between atoms: C_6  and  C_7
REMARK    3  A    between atoms: C_7  and  C_9
REMARK    4  A    between atoms: C_9  and  N_10
REMARK    5  A    between atoms: C_13  and  N_14
REMARK    6  A    between atoms: C_27  and  C_28
REMARK                            x       y       z     vdW  Elec       q    Type
REMARK                         _______ _______ _______ _____ _____    ______ ____
ROOT
ATOM      1  N   UNL     1      -0.317  11.870  20.000  0.00  0.00    +0.000 N 
ATOM      2  C   UNL     1      -1.416  11.503  19.245  0.00  0.00    +0.000 A 
ATOM      3  N   UNL     1      -2.571  12.052  19.493  0.00  0.00    +0.000 NA
ATOM      4  C   UNL     1      -3.681  11.716  18.758  0.00  0.00    +0.000 A 
ATOM      5  C   UNL     1      -3.589  10.844  17.744  0.00  0.00    +0.000 A 
ATOM      6  C   UNL     1      -2.299  10.248  17.405  0.00  0.00    +0.000 A 
ATOM      7  O   UNL     1      -2.207   9.534  16.410  0.00  0.00    +0.000 OA
ATOM      8  N   UNL     1      -1.257  10.563  18.247  0.00  0.00    +0.000 N 
ATOM      9  C   UNL     1       0.038   9.995  17.933  0.00  0.00    +0.000 C 
ATOM     10  C   UNL     1       0.967   9.981  19.130  0.00  0.00    +0.000 C 
ATOM     11  C   UNL     1       1.049  11.379  19.730  0.00  0.00    +0.000 C 
ENDROOT
BRANCH   4  12
ATOM     12  N   UNL     1      -4.902  12.304  19.058  0.00  0.00    +0.000 N 
ATOM     13  C   UNL     1      -5.994  12.654  18.130  0.00  0.00    +0.000 C 
ATOM     14  C   UNL     1      -6.897  13.523  19.040  0.00  0.00    +0.000 C 
ATOM     15  C   UNL     1      -5.870  14.248  19.893  0.00  0.00    +0.000 C 
ATOM     16  C   UNL     1      -5.247  12.935  20.350  0.00  0.00    +0.000 C 
ATOM     17  C   UNL     1      -6.499  12.233  20.900  0.00  0.00    +0.000 C 
ATOM     18  O   UNL     1      -7.567  12.660  19.999  0.00  0.00    +0.000 OA
ENDBRANCH   4  12
BRANCH  11  19
ATOM     19  C   UNL     1       1.895  12.352  18.869  0.00  0.00    +0.000 C 
ATOM     20  F   UNL     1       2.733  11.701  18.027  0.00  0.00    +0.000 F 
ATOM     21  F   UNL     1       1.082  13.112  18.094  0.00  0.00    +0.000 F 
ATOM     22  F   UNL     1       2.643  13.200  19.607  0.00  0.00    +0.000 F 
ENDBRANCH  11  19
BRANCH   1  23
ATOM     23  C   UNL     1      -0.441  12.902  21.044  0.00  0.00    +0.000 C 
BRANCH  23  24
ATOM     24  C   UNL     1      -0.943  12.308  22.356  0.00  0.00    +0.000 C 
ATOM     25  O   UNL     1      -0.315  11.477  23.012  0.00  0.00    +0.000 OA
BRANCH  24  31
ATOM     26  C   UNL     1      -6.643  15.139  23.697  0.00  0.00    +0.000 C 
ATOM     27  N   UNL     1      -5.880  14.109  24.365  0.00  0.00    +0.000 N 
ATOM     28  C   UNL     1      -4.656  13.732  23.844  0.00  0.00    +0.000 A 
ATOM     29  C   UNL     1      -3.782  14.620  23.224  0.00  0.00    +0.000 A 
ATOM     30  C   UNL     1      -2.565  14.159  22.724  0.00  0.00    +0.000 A 
ATOM     31  C   UNL     1      -2.221  12.823  22.899  0.00  0.00    +0.000 A 
ATOM     32  C   UNL     1      -3.130  12.007  23.554  0.00  0.00    +0.000 A 
ATOM     33  N   UNL     1      -4.330  12.435  24.019  0.00  0.00    +0.000 NA
ATOM     34  H   UNL     1      -6.391  13.258  24.591  0.00  0.00    +0.000 HD
ENDBRANCH  24  31
ENDBRANCH  23  24
ENDBRANCH   1  23
TORSDOF 5
ENDMDL
MODEL 2
REMARK VINA RESULT:      -7.4      0.711      1.136
REMARK  Name = 
REMARK  6 active torsions:
REMARK  status: ('A' for Active; 'I' for Inactive)
REMARK    1  A    between atoms: C_1  and  N_2
REMARK    2  A    between atoms: C_6  and  C_7
REMARK    3  A    between atoms: C_7  and  C_9
REMARK    4  A    between atoms: C_9  and  N_10
REMARK    5  A    between atoms: C_13  and  N_14
REMARK    6  A    between atoms: C_27  and  C_28
REMARK                            x       y       z     vdW  Elec       q    Type
REMARK                         _______ _______ _______ _____ _____    ______ ____
ROOT
ATOM      1  N   UNL     1      -0.662  11.894  20.005  0.00  0.00    +0.000 N 
ATOM      2  C   UNL     1      -1.699  11.493  19.183  0.00  0.00    +0.000 A 
ATOM      3  N   UNL     1      -2.877  12.026  19.338  0.00  0.00    +0.000 NA
ATOM      4  C   UNL     1      -3.927  11.657  18.533  0.00  0.00    +0.000 A 
ATOM      5  C   UNL     1      -3.749  10.768  17.546  0.00  0.00    +0.000 A 
ATOM      6  C   UNL     1      -2.429  10.189  17.310  0.00  0.00    +0.000 A 
ATOM      7  O   UNL     1      -2.255   9.458  16.338  0.00  0.00    +0.000 OA
ATOM      8  N   UNL     1      -1.454  10.538  18.217  0.00  0.00    +0.000 N 
ATOM      9  C   UNL     1      -0.131   9.988  18.006  0.00  0.00    +0.000 C 
ATOM     10  C   UNL     1       0.712  10.012  19.265  0.00  0.00    +0.000 C 
ATOM     11  C   UNL     1       0.728  11.422  19.842  0.00  0.00    +0.000 C 
ENDROOT
BRANCH   4  12
ATOM     12  N   UNL     1      -5.175  12.228  18.735  0.00  0.00    +0.000 N 
ATOM     13  C   UNL     1      -5.549  13.275  19.706  0.00  0.00    +0.000 C 
ATOM     14  C   UNL     1      -7.095  13.229  19.618  0.00  0.00    +0.000 C 
ATOM     15  C   UNL     1      -7.350  11.746  19.409  0.00  0.00    +0.000 C 
ATOM     16  C   UNL     1      -6.446  11.712  18.184  0.00  0.00    +0.000 C 
ATOM     17  C   UNL     1      -7.093  12.833  17.355  0.00  0.00    +0.000 C 
ATOM     18  O   UNL     1      -7.511  13.814  18.354  0.00  0.00    +0.000 OA
ENDBRANCH   4  12
BRANCH  11  19
ATOM     19  C   UNL     1       1.617  12.394  19.023  0.00  0.00    +0.000 C 
ATOM     20  F   UNL     1       2.462  11.742  18.190  0.00  0.00    +0.000 F 
ATOM     21  F   UNL     1       0.840  13.187  18.244  0.00  0.00    +0.000 F 
ATOM     22  F   UNL     1       2.362  13.211  19.799  0.00  0.00    +0.000 F 
ENDBRANCH  11  19
BRANCH   1  23
ATOM     23  C   UNL     1      -0.876  12.942  21.018  0.00  0.00    +0.000 C 
BRANCH  23  24
ATOM     24  C   UNL     1      -1.263  12.342  22.366  0.00  0.00    +0.000 C 
ATOM     25  O   UNL     1      -0.518  11.621  23.030  0.00  0.00    +0.000 OA
BRANCH  24  31
ATOM     26  C   UNL     1      -7.321  14.273  23.733  0.00  0.00    +0.000 C 
ATOM     27  N   UNL     1      -6.312  13.591  24.512  0.00  0.00    +0.000 N 
ATOM     28  C   UNL     1      -5.076  13.342  23.942  0.00  0.00    +0.000 A 
ATOM     29  C   UNL     1      -4.457  14.211  23.049  0.00  0.00    +0.000 A 
ATOM     30  C   UNL     1      -3.208  13.886  22.520  0.00  0.00    +0.000 A 
ATOM     31  C   UNL     1      -2.578  12.717  22.933  0.00  0.00    +0.000 A 
ATOM     32  C   UNL     1      -3.245  11.919  23.849  0.00  0.00    +0.000 A 
ATOM     33  N   UNL     1      -4.472  12.207  24.350  0.00  0.00    +0.000 NA
ATOM     34  H   UNL     1      -6.614  12.735  24.972  0.00  0.00    +0.000 HD
ENDBRANCH  24  31
ENDBRANCH  23  24
ENDBRANCH   1  23
TORSDOF 5
ENDMDL
MODEL 3
REMARK VINA RESULT:      -7.3      6.900     10.498
REMARK  Name = 
REMARK  6 active torsions:
REMARK  status: ('A' for Active; 'I' for Inactive)
REMARK    1  A    between atoms: C_1  and  N_2
REMARK    2  A    between atoms: C_6  and  C_7
REMARK    3  A    between atoms: C_7  and  C_9
REMARK    4  A    between atoms: C_9  and  N_10
REMARK    5  A    between atoms: C_13  and  N_14
REMARK    6  A    between atoms: C_27  and  C_28
REMARK                            x       y       z     vdW  Elec       q    Type
REMARK                         _______ _______ _______ _____ _____    ______ ____
ROOT
ATOM      1  N   UNL     1       5.890   6.345  17.106  0.00  0.00    +0.000 N 
ATOM      2  C   UNL     1       4.582   6.261  17.547  0.00  0.00    +0.000 A 
ATOM      3  N   UNL     1       3.947   7.351  17.872  0.00  0.00    +0.000 NA
ATOM      4  C   UNL     1       2.645   7.303  18.306  0.00  0.00    +0.000 A 
ATOM      5  C   UNL     1       1.989   6.136  18.367  0.00  0.00    +0.000 A 
ATOM      6  C   UNL     1       2.654   4.899  17.962  0.00  0.00    +0.000 A 
ATOM      7  O   UNL     1       2.011   3.854  17.922  0.00  0.00    +0.000 OA
ATOM      8  N   UNL     1       3.984   5.019  17.630  0.00  0.00    +0.000 N 
ATOM      9  C   UNL     1       4.670   3.813  17.214  0.00  0.00    +0.000 C 
ATOM     10  C   UNL     1       6.175   3.930  17.348  0.00  0.00    +0.000 C 
ATOM     11  C   UNL     1       6.657   5.180  16.623  0.00  0.00    +0.000 C 
ENDROOT
BRANCH   4  12
ATOM     12  N   UNL     1       2.002   8.479  18.663  0.00  0.00    +0.000 N 
ATOM     13  C   UNL     1       1.382   8.820  19.958  0.00  0.00    +0.000 C 
ATOM     14  C   UNL     1       0.605  10.108  19.592  0.00  0.00    +0.000 C 
ATOM     15  C   UNL     1       0.152   9.805  18.174  0.00  0.00    +0.000 C 
ATOM     16  C   UNL     1       1.581   9.538  17.720  0.00  0.00    +0.000 C 
ATOM     17  C   UNL     1       2.242  10.855  18.161  0.00  0.00    +0.000 C 
ATOM     18  O   UNL     1       1.555  11.193  19.406  0.00  0.00    +0.000 OA
ENDBRANCH   4  12
BRANCH  11  19
ATOM     19  C   UNL     1       6.634   5.024  15.079  0.00  0.00    +0.000 C 
ATOM     20  F   UNL     1       7.739   5.542  14.492  0.00  0.00    +0.000 F 
ATOM     21  F   UNL     1       6.600   3.709  14.747  0.00  0.00    +0.000 F 
ATOM     22  F   UNL     1       5.560   5.605  14.504  0.00  0.00    +0.000 F 
ENDBRANCH  11  19
BRANCH   1  23
ATOM     23  C   UNL     1       6.545   7.657  16.963  0.00  0.00    +0.000 C 
BRANCH  23  24
ATOM     24  C   UNL     1       7.676   7.826  17.972  0.00  0.00    +0.000 C 
ATOM     25  O   UNL     1       8.207   6.886  18.564  0.00  0.00    +0.000 OA
BRANCH  24  31
ATOM     26  C   UNL     1      11.071  13.277  19.005  0.00  0.00    +0.000 C 
ATOM     27  N   UNL     1       9.704  13.037  18.602  0.00  0.00    +0.000 N 
ATOM     28  C   UNL     1       9.251  11.734  18.498  0.00  0.00    +0.000 A 
ATOM     29  C   UNL     1       9.666  10.710  19.344  0.00  0.00    +0.000 A 
ATOM     30  C   UNL     1       9.160   9.422  19.173  0.00  0.00    +0.000 A 
ATOM     31  C   UNL     1       8.208   9.191  18.186  0.00  0.00    +0.000 A 
ATOM     32  C   UNL     1       7.822  10.269  17.404  0.00  0.00    +0.000 A 
ATOM     33  N   UNL     1       8.327  11.520  17.540  0.00  0.00    +0.000 NA
ATOM     34  H   UNL     1       9.396  13.534  17.770  0.00  0.00    +0.000 HD
ENDBRANCH  24  31
ENDBRANCH  23  24
ENDBRANCH   1  23
TORSDOF 5
ENDMDL
MODEL 4
REMARK VINA RESULT:      -7.2      0.966      1.416
REMARK  Name = 
REMARK  6 active torsions:
REMARK  status: ('A' for Active; 'I' for Inactive)
REMARK    1  A    between atoms: C_1  and  N_2
REMARK    2  A    between atoms: C_6  and  C_7
REMARK    3  A    between atoms: C_7  and  C_9
REMARK    4  A    between atoms: C_9  and  N_10
REMARK    5  A    between atoms: C_13  and  N_14
REMARK    6  A    between atoms: C_27  and  C_28
REMARK                            x       y       z     vdW  Elec       q    Type
REMARK                         _______ _______ _______ _____ _____    ______ ____
ROOT
ATOM      1  N   UNL     1      -0.958  11.832  20.075  0.00  0.00    +0.000 N 
ATOM      2  C   UNL     1      -2.001  11.478  19.240  0.00  0.00    +0.000 A 
ATOM      3  N   UNL     1      -3.176  12.008  19.428  0.00  0.00    +0.000 NA
ATOM      4  C   UNL     1      -4.231  11.684  18.611  0.00  0.00    +0.000 A 
ATOM      5  C   UNL     1      -4.064  10.845  17.579  0.00  0.00    +0.000 A 
ATOM      6  C   UNL     1      -2.747  10.272  17.308  0.00  0.00    +0.000 A 
ATOM      7  O   UNL     1      -2.582   9.590  16.300  0.00  0.00    +0.000 OA
ATOM      8  N   UNL     1      -1.766  10.570  18.226  0.00  0.00    +0.000 N 
ATOM      9  C   UNL     1      -0.447  10.025  17.981  0.00  0.00    +0.000 C 
ATOM     10  C   UNL     1       0.402   9.983  19.235  0.00  0.00    +0.000 C 
ATOM     11  C   UNL     1       0.428  11.362  19.881  0.00  0.00    +0.000 C 
ENDROOT
BRANCH   4  12
ATOM     12  N   UNL     1      -5.476  12.250  18.848  0.00  0.00    +0.000 N 
ATOM     13  C   UNL     1      -6.525  11.785  19.776  0.00  0.00    +0.000 C 
ATOM     14  C   UNL     1      -7.726  12.659  19.338  0.00  0.00    +0.000 C 
ATOM     15  C   UNL     1      -7.512  12.748  17.836  0.00  0.00    +0.000 C 
ATOM     16  C   UNL     1      -6.104  13.301  18.018  0.00  0.00    +0.000 C 
ATOM     17  C   UNL     1      -6.414  14.501  18.928  0.00  0.00    +0.000 C 
ATOM     18  O   UNL     1      -7.500  14.025  19.781  0.00  0.00    +0.000 OA
ENDBRANCH   4  12
BRANCH  11  19
ATOM     19  C   UNL     1       1.318  12.370  19.107  0.00  0.00    +0.000 C 
ATOM     20  F   UNL     1       0.608  13.110  18.222  0.00  0.00    +0.000 F 
ATOM     21  F   UNL     1       1.888  13.245  19.973  0.00  0.00    +0.000 F 
ATOM     22  F   UNL     1       2.321  11.777  18.426  0.00  0.00    +0.000 F 
ENDBRANCH  11  19
BRANCH   1  23
ATOM     23  C   UNL     1      -1.162  12.830  21.140  0.00  0.00    +0.000 C 
BRANCH  23  24
ATOM     24  C   UNL     1      -1.612  12.171  22.440  0.00  0.00    +0.000 C 
ATOM     25  O   UNL     1      -0.893  11.435  23.116  0.00  0.00    +0.000 OA
BRANCH  24  31
ATOM     26  C   UNL     1      -7.901  13.401  23.555  0.00  0.00    +0.000 C 
ATOM     27  N   UNL     1      -6.759  13.264  24.432  0.00  0.00    +0.000 N 
ATOM     28  C   UNL     1      -5.512  13.031  23.882  0.00  0.00    +0.000 A 
ATOM     29  C   UNL     1      -5.096  13.573  22.669  0.00  0.00    +0.000 A 
ATOM     30  C   UNL     1      -3.820  13.289  22.184  0.00  0.00    +0.000 A 
ATOM     31  C   UNL     1      -2.962  12.504  22.947  0.00  0.00    +0.000 A 
ATOM     32  C   UNL     1      -3.438  12.026  24.158  0.00  0.00    +0.000 A 
ATOM     33  N   UNL     1      -4.686  12.270  24.629  0.00  0.00    +0.000 NA
ATOM     34  H   UNL     1      -6.876  12.619  25.209  0.00  0.00    +0.000 HD
ENDBRANCH  24  31
ENDBRANCH  23  24
ENDBRANCH   1  23
TORSDOF 5
ENDMDL
MODEL 5
REMARK VINA RESULT:      -7.2      6.217     10.370
REMARK  Name = 
REMARK  6 active torsions:
REMARK  status: ('A' for Active; 'I' for Inactive)
REMARK    1  A    between atoms: C_1  and  N_2
REMARK    2  A    between atoms: C_6  and  C_7
REMARK    3  A    between atoms: C_7  and  C_9
REMARK    4  A    between atoms: C_9  and  N_10
REMARK    5  A    between atoms: C_13  and  N_14
REMARK    6  A    between atoms: C_27  and  C_28
REMARK                            x       y       z     vdW  Elec       q    Type
REMARK                         _______ _______ _______ _____ _____    ______ ____
ROOT
ATOM      1  N   UNL     1       2.912   6.566  18.811  0.00  0.00    +0.000 N 
ATOM      2  C   UNL     1       2.144   7.531  19.438  0.00  0.00    +0.000 A 
ATOM      3  N   UNL     1       2.199   8.762  19.017  0.00  0.00    +0.000 NA
ATOM      4  C   UNL     1       1.444   9.742  19.612  0.00  0.00    +0.000 A 
ATOM      5  C   UNL     1       0.604   9.444  20.613  0.00  0.00    +0.000 A 
ATOM      6  C   UNL     1       0.479   8.063  21.076  0.00  0.00    +0.000 A 
ATOM      7  O   UNL     1      -0.369   7.785  21.920  0.00  0.00    +0.000 OA
ATOM      8  N   UNL     1       1.337   7.159  20.494  0.00  0.00    +0.000 N 
ATOM      9  C   UNL     1       1.231   5.780  20.925  0.00  0.00    +0.000 C 
ATOM     10  C   UNL     1       2.485   4.983  20.624  0.00  0.00    +0.000 C 
ATOM     11  C   UNL     1       2.842   5.131  19.150  0.00  0.00    +0.000 C 
ENDROOT
BRANCH   4  12
ATOM     12  N   UNL     1       1.538  11.049  19.153  0.00  0.00    +0.000 N 
ATOM     13  C   UNL     1       2.286  11.550  17.984  0.00  0.00    +0.000 C 
ATOM     14  C   UNL     1       2.221  13.079  18.216  0.00  0.00    +0.000 C 
ATOM     15  C   UNL     1       2.312  13.167  19.730  0.00  0.00    +0.000 C 
ATOM     16  C   UNL     1       1.110  12.247  19.906  0.00  0.00    +0.000 C 
ATOM     17  C   UNL     1       0.081  13.002  19.049  0.00  0.00    +0.000 C 
ATOM     18  O   UNL     1       0.869  13.540  17.943  0.00  0.00    +0.000 OA
ENDBRANCH   4  12
BRANCH  11  19
ATOM     19  C   UNL     1       1.899   4.323  18.221  0.00  0.00    +0.000 C 
ATOM     20  F   UNL     1       2.573   3.445  17.440  0.00  0.00    +0.000 F 
ATOM     21  F   UNL     1       1.031   3.593  18.964  0.00  0.00    +0.000 F 
ATOM     22  F   UNL     1       1.161   5.105  17.405  0.00  0.00    +0.000 F 
ENDBRANCH  11  19
BRANCH   1  23
ATOM     23  C   UNL     1       3.751   6.919  17.652  0.00  0.00    +0.000 C 
BRANCH  23  24
ATOM     24  C   UNL     1       5.122   6.257  17.738  0.00  0.00    +0.000 C 
ATOM     25  O   UNL     1       5.806   6.235  18.762  0.00  0.00    +0.000 OA
BRANCH  24  31
ATOM     26  C   UNL     1       6.200   3.327  12.032  0.00  0.00    +0.000 C 
ATOM     27  N   UNL     1       7.069   3.674  13.134  0.00  0.00    +0.000 N 
ATOM     28  C   UNL     1       6.527   4.276  14.255  0.00  0.00    +0.000 A 
ATOM     29  C   UNL     1       5.260   3.978  14.747  0.00  0.00    +0.000 A 
ATOM     30  C   UNL     1       4.787   4.630  15.885  0.00  0.00    +0.000 A 
ATOM     31  C   UNL     1       5.613   5.536  16.541  0.00  0.00    +0.000 A 
ATOM     32  C   UNL     1       6.873   5.757  16.008  0.00  0.00    +0.000 A 
ATOM     33  N   UNL     1       7.336   5.153  14.885  0.00  0.00    +0.000 NA
ATOM     34  H   UNL     1       7.909   4.191  12.886  0.00  0.00    +0.000 HD
ENDBRANCH  24  31
ENDBRANCH  23  24
ENDBRANCH   1  23
TORSDOF 5
ENDMDL
MODEL 6
REMARK VINA RESULT:      -7.1      6.635     10.290
REMARK  Name = 
REMARK  6 active torsions:
REMARK  status: ('A' for Active; 'I' for Inactive)
REMARK    1  A    between atoms: C_1  and  N_2
REMARK    2  A    between atoms: C_6  and  C_7
REMARK    3  A    between atoms: C_7  and  C_9
REMARK    4  A    between atoms: C_9  and  N_10
REMARK    5  A    between atoms: C_13  and  N_14
REMARK    6  A    between atoms: C_27  and  C_28
REMARK                            x       y       z     vdW  Elec       q    Type
REMARK                         _______ _______ _______ _____ _____    ______ ____
ROOT
ATOM      1  N   UNL     1       4.632   5.713  17.898  0.00  0.00    +0.000 N 
ATOM      2  C   UNL     1       3.614   6.053  18.770  0.00  0.00    +0.000 A 
ATOM      3  N   UNL     1       3.063   7.230  18.680  0.00  0.00    +0.000 NA
ATOM      4  C   UNL     1       2.044   7.595  19.525  0.00  0.00    +0.000 A 
ATOM      5  C   UNL     1       1.570   6.733  20.435  0.00  0.00    +0.000 A 
ATOM      6  C   UNL     1       2.130   5.386  20.530  0.00  0.00    +0.000 A 
ATOM      7  O   UNL     1       1.617   4.572  21.293  0.00  0.00    +0.000 OA
ATOM      8  N   UNL     1       3.208   5.130  19.714  0.00  0.00    +0.000 N 
ATOM      9  C   UNL     1       3.781   3.801  19.777  0.00  0.00    +0.000 C 
ATOM     10  C   UNL     1       5.202   3.759  19.252  0.00  0.00    +0.000 C 
ATOM     11  C   UNL     1       5.249   4.373  17.858  0.00  0.00    +0.000 C 
ENDROOT
BRANCH   4  12
ATOM     12  N   UNL     1       1.490   8.863  19.416  0.00  0.00    +0.000 N 
ATOM     13  C   UNL     1       0.813   9.651  20.464  0.00  0.00    +0.000 C 
ATOM     14  C   UNL     1       0.190  10.794  19.626  0.00  0.00    +0.000 C 
ATOM     15  C   UNL     1      -0.186  10.070  18.344  0.00  0.00    +0.000 C 
ATOM     16  C   UNL     1       1.241   9.576  18.145  0.00  0.00    +0.000 C 
ATOM     17  C   UNL     1       1.989  10.919  18.202  0.00  0.00    +0.000 C 
ATOM     18  O   UNL     1       1.249  11.693  19.195  0.00  0.00    +0.000 OA
ENDBRANCH   4  12
BRANCH  11  19
ATOM     19  C   UNL     1       4.639   3.446  16.774  0.00  0.00    +0.000 C 
ATOM     20  F   UNL     1       3.539   3.984  16.195  0.00  0.00    +0.000 F 
ATOM     21  F   UNL     1       5.538   3.240  15.781  0.00  0.00    +0.000 F 
ATOM     22  F   UNL     1       4.290   2.231  17.251  0.00  0.00    +0.000 F 
ENDBRANCH  11  19
BRANCH   1  23
ATOM     23  C   UNL     1       5.061   6.656  16.850  0.00  0.00    +0.000 C 
BRANCH  23  24
ATOM     24  C   UNL     1       6.574   6.623  16.658  0.00  0.00    +0.000 C 
ATOM     25  O   UNL     1       7.140   5.907  15.832  0.00  0.00    +0.000 OA
BRANCH  24  31
ATOM     26  C   UNL     1       9.178  11.441  20.166  0.00  0.00    +0.000 C 
ATOM     27  N   UNL     1       9.629  10.103  19.853  0.00  0.00    +0.000 N 
ATOM     28  C   UNL     1       8.852   9.305  19.034  0.00  0.00    +0.000 A 
ATOM     29  C   UNL     1       8.108   9.800  17.966  0.00  0.00    +0.000 A 
ATOM     30  C   UNL     1       7.351   8.927  17.186  0.00  0.00    +0.000 A 
ATOM     31  C   UNL     1       7.389   7.564  17.459  0.00  0.00    +0.000 A 
ATOM     32  C   UNL     1       8.177   7.145  18.520  0.00  0.00    +0.000 A 
ATOM     33  N   UNL     1       8.896   7.985  19.305  0.00  0.00    +0.000 NA
ATOM     34  H   UNL     1       9.914   9.537  20.649  0.00  0.00    +0.000 HD
ENDBRANCH  24  31
ENDBRANCH  23  24
ENDBRANCH   1  23
TORSDOF 5
ENDMDL
MODEL 7
REMARK VINA RESULT:      -7.1      6.834     10.384
REMARK  Name = 
REMARK  6 active torsions:
REMARK  status: ('A' for Active; 'I' for Inactive)
REMARK    1  A    between atoms: C_1  and  N_2
REMARK    2  A    between atoms: C_6  and  C_7
REMARK    3  A    between atoms: C_7  and  C_9
REMARK    4  A    between atoms: C_9  and  N_10
REMARK    5  A    between atoms: C_13  and  N_14
REMARK    6  A    between atoms: C_27  and  C_28
REMARK                            x       y       z     vdW  Elec       q    Type
REMARK                         _______ _______ _______ _____ _____    ______ ____
ROOT
ATOM      1  N   UNL     1       5.834   6.275  17.085  0.00  0.00    +0.000 N 
ATOM      2  C   UNL     1       4.524   6.214  17.525  0.00  0.00    +0.000 A 
ATOM      3  N   UNL     1       3.912   7.315  17.860  0.00  0.00    +0.000 NA
ATOM      4  C   UNL     1       2.610   7.290  18.293  0.00  0.00    +0.000 A 
ATOM      5  C   UNL     1       1.928   6.137  18.342  0.00  0.00    +0.000 A 
ATOM      6  C   UNL     1       2.567   4.891  17.925  0.00  0.00    +0.000 A 
ATOM      7  O   UNL     1       1.902   3.859  17.874  0.00  0.00    +0.000 OA
ATOM      8  N   UNL     1       3.900   4.985  17.595  0.00  0.00    +0.000 N 
ATOM      9  C   UNL     1       4.560   3.768  17.168  0.00  0.00    +0.000 C 
ATOM     10  C   UNL     1       6.067   3.852  17.304  0.00  0.00    +0.000 C 
ATOM     11  C   UNL     1       6.576   5.099  16.591  0.00  0.00    +0.000 C 
ENDROOT
BRANCH   4  12
ATOM     12  N   UNL     1       1.991   8.477  18.660  0.00  0.00    +0.000 N 
ATOM     13  C   UNL     1       1.419   8.835  19.973  0.00  0.00    +0.000 C 
ATOM     14  C   UNL     1       0.644  10.129  19.622  0.00  0.00    +0.000 C 
ATOM     15  C   UNL     1       0.140   9.818  18.223  0.00  0.00    +0.000 C 
ATOM     16  C   UNL     1       1.550   9.532  17.723  0.00  0.00    +0.000 C 
ATOM     17  C   UNL     1       2.239  10.845  18.131  0.00  0.00    +0.000 C 
ATOM     18  O   UNL     1       1.599  11.202  19.394  0.00  0.00    +0.000 OA
ENDBRANCH   4  12
BRANCH  11  19
ATOM     19  C   UNL     1       6.551   4.958  15.047  0.00  0.00    +0.000 C 
ATOM     20  F   UNL     1       5.479   5.571  14.490  0.00  0.00    +0.000 F 
ATOM     21  F   UNL     1       7.652   5.541  14.511  0.00  0.00    +0.000 F 
ATOM     22  F   UNL     1       6.543   3.673  14.631  0.00  0.00    +0.000 F 
ENDBRANCH  11  19
BRANCH   1  23
ATOM     23  C   UNL     1       6.517   7.574  16.956  0.00  0.00    +0.000 C 
BRANCH  23  24
ATOM     24  C   UNL     1       7.648   7.710  17.970  0.00  0.00    +0.000 C 
ATOM     25  O   UNL     1       8.152   6.755  18.561  0.00  0.00    +0.000 OA
BRANCH  24  31
ATOM     26  C   UNL     1       9.021  14.014  18.791  0.00  0.00    +0.000 C 
ATOM     27  N   UNL     1       9.798  12.810  18.984  0.00  0.00    +0.000 N 
ATOM     28  C   UNL     1       9.228  11.586  18.684  0.00  0.00    +0.000 A 
ATOM     29  C   UNL     1       8.337  11.394  17.632  0.00  0.00    +0.000 A 
ATOM     30  C   UNL     1       7.807  10.126  17.396  0.00  0.00    +0.000 A 
ATOM     31  C   UNL     1       8.217   9.060  18.189  0.00  0.00    +0.000 A 
ATOM     32  C   UNL     1       9.130   9.325  19.197  0.00  0.00    +0.000 A 
ATOM     33  N   UNL     1       9.632  10.557  19.457  0.00  0.00    +0.000 NA
ATOM     34  H   UNL     1      10.255  12.720  19.889  0.00  0.00    +0.000 HD
ENDBRANCH  24  31
ENDBRANCH  23  24
ENDBRANCH   1  23
TORSDOF 5
ENDMDL
MODEL 8
REMARK VINA RESULT:      -7.1      4.186      6.946
REMARK  Name = 
REMARK  6 active torsions:
REMARK  status: ('A' for Active; 'I' for Inactive)
REMARK    1  A    between atoms: C_1  and  N_2
REMARK    2  A    between atoms: C_6  and  C_7
REMARK    3  A    between atoms: C_7  and  C_9
REMARK    4  A    between atoms: C_9  and  N_10
REMARK    5  A    between atoms: C_13  and  N_14
REMARK    6  A    between atoms: C_27  and  C_28
REMARK                            x       y       z     vdW  Elec       q    Type
REMARK                         _______ _______ _______ _____ _____    ______ ____
ROOT
ATOM      1  N   UNL     1       0.654   9.379  20.157  0.00  0.00    +0.000 N 
ATOM      2  C   UNL     1       1.436   8.407  19.560  0.00  0.00    +0.000 A 
ATOM      3  N   UNL     1       1.445   7.203  20.057  0.00  0.00    +0.000 NA
ATOM      4  C   UNL     1       2.204   6.213  19.484  0.00  0.00    +0.000 A 
ATOM      5  C   UNL     1       2.921   6.456  18.378  0.00  0.00    +0.000 A 
ATOM      6  C   UNL     1       2.893   7.781  17.764  0.00  0.00    +0.000 A 
ATOM      7  O   UNL     1       3.468   7.963  16.694  0.00  0.00    +0.000 OA
ATOM      8  N   UNL     1       2.186   8.742  18.450  0.00  0.00    +0.000 N 
ATOM      9  C   UNL     1       2.131  10.065  17.863  0.00  0.00    +0.000 C 
ATOM     10  C   UNL     1       1.780  11.133  18.879  0.00  0.00    +0.000 C 
ATOM     11  C   UNL     1       0.501  10.742  19.610  0.00  0.00    +0.000 C 
ENDROOT
BRANCH   4  12
ATOM     12  N   UNL     1       2.208   4.944  20.048  0.00  0.00    +0.000 N 
ATOM     13  C   UNL     1       2.305   4.585  21.475  0.00  0.00    +0.000 C 
ATOM     14  C   UNL     1       2.554   3.059  21.386  0.00  0.00    +0.000 C 
ATOM     15  C   UNL     1       3.416   2.958  20.139  0.00  0.00    +0.000 C 
ATOM     16  C   UNL     1       2.373   3.681  19.297  0.00  0.00    +0.000 C 
ATOM     17  C   UNL     1       1.150   2.795  19.586  0.00  0.00    +0.000 C 
ATOM     18  O   UNL     1       1.319   2.404  20.983  0.00  0.00    +0.000 OA
ENDBRANCH   4  12
BRANCH  11  19
ATOM     19  C   UNL     1      -0.767  10.916  18.734  0.00  0.00    +0.000 C 
ATOM     20  F   UNL     1      -1.885  11.102  19.476  0.00  0.00    +0.000 F 
ATOM     21  F   UNL     1      -0.639  12.013  17.946  0.00  0.00    +0.000 F 
ATOM     22  F   UNL     1      -0.994   9.866  17.915  0.00  0.00    +0.000 F 
ENDBRANCH  11  19
BRANCH   1  23
ATOM     23  C   UNL     1      -0.193   9.047  21.316  0.00  0.00    +0.000 C 
BRANCH  23  24
ATOM     24  C   UNL     1       0.088   9.975  22.493  0.00  0.00    +0.000 C 
ATOM     25  O   UNL     1       1.019   9.812  23.283  0.00  0.00    +0.000 OA
BRANCH  24  31
ATOM     26  C   UNL     1      -3.863  14.841  24.231  0.00  0.00    +0.000 C 
ATOM     27  N   UNL     1      -2.995  14.643  23.091  0.00  0.00    +0.000 N 
ATOM     28  C   UNL     1      -2.288  13.460  22.980  0.00  0.00    +0.000 A 
ATOM     29  C   UNL     1      -2.787  12.229  23.396  0.00  0.00    +0.000 A 
ATOM     30  C   UNL     1      -2.010  11.081  23.247  0.00  0.00    +0.000 A 
ATOM     31  C   UNL     1      -0.763  11.178  22.639  0.00  0.00    +0.000 A 
ATOM     32  C   UNL     1      -0.349  12.434  22.224  0.00  0.00    +0.000 A 
ATOM     33  N   UNL     1      -1.081  13.563  22.388  0.00  0.00    +0.000 NA
ATOM     34  H   UNL     1      -2.350  15.404  22.891  0.00  0.00    +0.000 HD
ENDBRANCH  24  31
ENDBRANCH  23  24
ENDBRANCH   1  23
TORSDOF 5
ENDMDL
MODEL 9
REMARK VINA RESULT:      -7.0      0.610      1.149
REMARK  Name = 
REMARK  6 active torsions:
REMARK  status: ('A' for Active; 'I' for Inactive)
REMARK    1  A    between atoms: C_1  and  N_2
REMARK    2  A    between atoms: C_6  and  C_7
REMARK    3  A    between atoms: C_7  and  C_9
REMARK    4  A    between atoms: C_9  and  N_10
REMARK    5  A    between atoms: C_13  and  N_14
REMARK    6  A    between atoms: C_27  and  C_28
REMARK                            x       y       z     vdW  Elec       q    Type
REMARK                         _______ _______ _______ _____ _____    ______ ____
ROOT
ATOM      1  N   UNL     1      -0.278  11.923  20.053  0.00  0.00    +0.000 N 
ATOM      2  C   UNL     1      -1.428  11.584  19.365  0.00  0.00    +0.000 A 
ATOM      3  N   UNL     1      -2.556  12.147  19.693  0.00  0.00    +0.000 NA
ATOM      4  C   UNL     1      -3.715  11.839  19.024  0.00  0.00    +0.000 A 
ATOM      5  C   UNL     1      -3.702  10.981  17.994  0.00  0.00    +0.000 A 
ATOM      6  C   UNL     1      -2.445  10.371  17.566  0.00  0.00    +0.000 A 
ATOM      7  O   UNL     1      -2.428   9.671  16.557  0.00  0.00    +0.000 OA
ATOM      8  N   UNL     1      -1.347  10.657  18.345  0.00  0.00    +0.000 N 
ATOM      9  C   UNL     1      -0.084  10.075  17.941  0.00  0.00    +0.000 C 
ATOM     10  C   UNL     1       0.919  10.028  19.077  0.00  0.00    +0.000 C 
ATOM     11  C   UNL     1       1.060  11.415  19.691  0.00  0.00    +0.000 C 
ENDROOT
BRANCH   4  12
ATOM     12  N   UNL     1      -4.905  12.440  19.409  0.00  0.00    +0.000 N 
ATOM     13  C   UNL     1      -5.089  13.732  20.098  0.00  0.00    +0.000 C 
ATOM     14  C   UNL     1      -6.586  13.657  20.487  0.00  0.00    +0.000 C 
ATOM     15  C   UNL     1      -6.750  12.181  20.804  0.00  0.00    +0.000 C 
ATOM     16  C   UNL     1      -6.226  11.775  19.433  0.00  0.00    +0.000 C 
ATOM     17  C   UNL     1      -7.181  12.587  18.542  0.00  0.00    +0.000 C 
ATOM     18  O   UNL     1      -7.392  13.825  19.288  0.00  0.00    +0.000 OA
ENDBRANCH   4  12
BRANCH  11  19
ATOM     19  C   UNL     1       1.866  12.389  18.791  0.00  0.00    +0.000 C 
ATOM     20  F   UNL     1       2.701  13.180  19.507  0.00  0.00    +0.000 F 
ATOM     21  F   UNL     1       2.642  11.688  17.928  0.00  0.00    +0.000 F 
ATOM     22  F   UNL     1       1.080  13.198  18.048  0.00  0.00    +0.000 F 
ENDBRANCH  11  19
BRANCH   1  23
ATOM     23  C   UNL     1      -0.319  12.941  21.118  0.00  0.00    +0.000 C 
BRANCH  23  24
ATOM     24  C   UNL     1      -0.909  12.374  22.405  0.00  0.00    +0.000 C 
ATOM     25  O   UNL     1      -0.390  11.462  23.049  0.00  0.00    +0.000 OA
BRANCH  24  31
ATOM     26  C   UNL     1      -6.004  16.084  24.014  0.00  0.00    +0.000 C 
ATOM     27  N   UNL     1      -5.651  14.717  24.325  0.00  0.00    +0.000 N 
ATOM     28  C   UNL     1      -4.455  14.206  23.854  0.00  0.00    +0.000 A 
ATOM     29  C   UNL     1      -3.293  14.964  23.736  0.00  0.00    +0.000 A 
ATOM     30  C   UNL     1      -2.127  14.372  23.253  0.00  0.00    +0.000 A 
ATOM     31  C   UNL     1      -2.131  13.017  22.942  0.00  0.00    +0.000 A 
ATOM     32  C   UNL     1      -3.318  12.323  23.115  0.00  0.00    +0.000 A 
ATOM     33  N   UNL     1      -4.468  12.890  23.556  0.00  0.00    +0.000 NA
ATOM     34  H   UNL     1      -6.372  14.023  24.141  0.00  0.00    +0.000 HD
ENDBRANCH  24  31
ENDBRANCH  23  24
ENDBRANCH   1  23
TORSDOF 5
ENDMDL
