MODEL 1
REMARK VINA RESULT:      -6.4      0.000      0.000
REMARK  Name = 
REMARK  8 active torsions:
REMARK  status: ('A' for Active; 'I' for Inactive)
REMARK    1  A    between atoms: C_1  and  C_2
REMARK    2  A    between atoms: C_2  and  C_3
REMARK    3  A    between atoms: C_2  and  N_4
REMARK    4  A    between atoms: N_7  and  C_8
REMARK    5  A    between atoms: N_7  and  C_15
REMARK    6  A    between atoms: C_8  and  C_9
REMARK    7  A    between atoms: C_15  and  C_16
REMARK    8  A    between atoms: C_15  and  C_17
REMARK                            x       y       z     vdW  Elec       q    Type
REMARK                         _______ _______ _______ _____ _____    ______ ____
ROOT
ATOM      1  N   UNL     1       3.030   6.322  18.910  0.00  0.00    +0.000 N 
ATOM      2  C   UNL     1       2.701   4.998  19.059  0.00  0.00    +0.000 C 
ATOM      3  O   UNL     1       1.550   4.650  19.318  0.00  0.00    +0.000 OA
ATOM      4  N   UNL     1       3.748   4.086  18.943  0.00  0.00    +0.000 N 
ATOM      5  H   UNL     1       3.811   6.527  18.306  0.00  0.00    +0.000 HD
ENDROOT
BRANCH   1   7
ATOM      6  C   UNL     1       1.858   7.862  20.427  0.00  0.00    +0.000 C 
ATOM      7  C   UNL     1       1.998   7.354  18.995  0.00  0.00    +0.000 C 
ATOM      8  C   UNL     1       2.309   8.500  18.036  0.00  0.00    +0.000 C 
ENDBRANCH   1   7
BRANCH   4   9
ATOM      9  C   UNL     1       3.433   2.686  19.318  0.00  0.00    +0.000 C 
ATOM     10  C   UNL     1       3.194   1.739  18.141  0.00  0.00    +0.000 C 
ATOM     11  C   UNL     1       4.512   2.121  20.251  0.00  0.00    +0.000 C 
ENDBRANCH   4   9
BRANCH   4  12
ATOM     12  C   UNL     1       5.162   4.472  18.826  0.00  0.00    +0.000 C 
BRANCH  12  13
ATOM     13  C   UNL     1       5.715   4.525  17.421  0.00  0.00    +0.000 A 
ATOM     14  C   UNL     1       4.944   4.447  16.255  0.00  0.00    +0.000 A 
ATOM     15  C   UNL     1       5.569   4.436  15.008  0.00  0.00    +0.000 A 
ATOM     16  C   UNL     1       6.951   4.524  14.959  0.00  0.00    +0.000 A 
ATOM     17  N   UNL     1       7.727   4.641  16.053  0.00  0.00    +0.000 NA
ATOM     18  C   UNL     1       7.094   4.638  17.249  0.00  0.00    +0.000 A 
ENDBRANCH  12  13
ENDBRANCH   4  12
TORSDOF 4
ENDMDL
MODEL 2
REMARK VINA RESULT:      -6.3      2.875      6.131
REMARK  Name = 
REMARK  8 active torsions:
REMARK  status: ('A' for Active; 'I' for Inactive)
REMARK    1  A    between atoms: C_1  and  C_2
REMARK    2  A    between atoms: C_2  and  C_3
REMARK    3  A    between atoms: C_2  and  N_4
REMARK    4  A    between atoms: N_7  and  C_8
REMARK    5  A    between atoms: N_7  and  C_15
REMARK    6  A    between atoms: C_8  and  C_9
REMARK    7  A    between atoms: C_15  and  C_16
REMARK    8  A    between atoms: C_15  and  C_17
REMARK                            x       y       z     vdW  Elec       q    Type
REMARK                         _______ _______ _______ _____ _____    ______ ____
ROOT
ATOM      1  N   UNL     1       5.682   3.755  13.762  0.00  0.00    +0.000 N 
ATOM      2  C   UNL     1       6.417   4.658  14.488  0.00  0.00    +0.000 C 
ATOM      3  O   UNL     1       7.212   5.422  13.942  0.00  0.00    +0.000 OA
ATOM      4  N   UNL     1       6.241   4.628  15.869  0.00  0.00    +0.000 N 
ATOM      5  H   UNL     1       4.792   3.484  14.149  0.00  0.00    +0.000 HD
ENDROOT
BRANCH   1   7
ATOM      6  C   UNL     1       6.865   2.744  11.858  0.00  0.00    +0.000 C 
ATOM      7  C   UNL     1       5.783   3.722  12.304  0.00  0.00    +0.000 C 
ATOM      8  C   UNL     1       4.434   3.366  11.683  0.00  0.00    +0.000 C 
ENDBRANCH   1   7
BRANCH   4   9
ATOM      9  C   UNL     1       7.189   5.447  16.662  0.00  0.00    +0.000 C 
ATOM     10  C   UNL     1       6.667   6.824  17.075  0.00  0.00    +0.000 C 
ATOM     11  C   UNL     1       7.679   4.669  17.891  0.00  0.00    +0.000 C 
ENDBRANCH   4   9
BRANCH   4  12
ATOM     12  C   UNL     1       5.449   3.607  16.573  0.00  0.00    +0.000 C 
BRANCH  12  13
ATOM     13  C   UNL     1       4.080   4.042  17.037  0.00  0.00    +0.000 A 
ATOM     14  C   UNL     1       3.764   5.322  17.508  0.00  0.00    +0.000 A 
ATOM     15  C   UNL     1       2.479   5.593  17.978  0.00  0.00    +0.000 A 
ATOM     16  C   UNL     1       1.535   4.579  17.946  0.00  0.00    +0.000 A 
ATOM     17  N   UNL     1       1.784   3.347  17.465  0.00  0.00    +0.000 NA
ATOM     18  C   UNL     1       3.042   3.110  17.026  0.00  0.00    +0.000 A 
ENDBRANCH  12  13
ENDBRANCH   4  12
TORSDOF 4
ENDMDL
MODEL 3
REMARK VINA RESULT:      -6.1      1.945      5.117
REMARK  Name = 
REMARK  8 active torsions:
REMARK  status: ('A' for Active; 'I' for Inactive)
REMARK    1  A    between atoms: C_1  and  C_2
REMARK    2  A    between atoms: C_2  and  C_3
REMARK    3  A    between atoms: C_2  and  N_4
REMARK    4  A    between atoms: N_7  and  C_8
REMARK    5  A    between atoms: N_7  and  C_15
REMARK    6  A    between atoms: C_8  and  C_9
REMARK    7  A    between atoms: C_15  and  C_16
REMARK    8  A    between atoms: C_15  and  C_17
REMARK                            x       y       z     vdW  Elec       q    Type
REMARK                         _______ _______ _______ _____ _____    ______ ____
ROOT
ATOM      1  N   UNL     1       5.330   4.696  18.335  0.00  0.00    +0.000 N 
ATOM      2  C   UNL     1       4.681   3.806  19.155  0.00  0.00    +0.000 C 
ATOM      3  O   UNL     1       5.293   2.924  19.754  0.00  0.00    +0.000 OA
ATOM      4  N   UNL     1       3.296   3.936  19.230  0.00  0.00    +0.000 N 
ATOM      5  H   UNL     1       4.903   5.602  18.227  0.00  0.00    +0.000 HD
ENDROOT
BRANCH   1   7
ATOM      6  C   UNL     1       7.195   4.597  16.736  0.00  0.00    +0.000 C 
ATOM      7  C   UNL     1       6.785   4.653  18.205  0.00  0.00    +0.000 C 
ATOM      8  C   UNL     1       7.419   5.853  18.904  0.00  0.00    +0.000 C 
ENDBRANCH   1   7
BRANCH   4   9
ATOM      9  C   UNL     1       2.580   2.846  19.937  0.00  0.00    +0.000 C 
ATOM     10  C   UNL     1       2.319   3.101  21.423  0.00  0.00    +0.000 C 
ATOM     11  C   UNL     1       1.271   2.501  19.214  0.00  0.00    +0.000 C 
ENDBRANCH   4   9
BRANCH   4  12
ATOM     12  C   UNL     1       2.510   4.848  18.386  0.00  0.00    +0.000 C 
BRANCH  12  13
ATOM     13  C   UNL     1       2.217   6.205  18.980  0.00  0.00    +0.000 A 
ATOM     14  C   UNL     1       1.840   6.432  20.309  0.00  0.00    +0.000 A 
ATOM     15  C   UNL     1       1.524   7.724  20.732  0.00  0.00    +0.000 A 
ATOM     16  C   UNL     1       1.614   8.760  19.817  0.00  0.00    +0.000 A 
ATOM     17  N   UNL     1       2.009   8.593  18.541  0.00  0.00    +0.000 NA
ATOM     18  C   UNL     1       2.298   7.328  18.156  0.00  0.00    +0.000 A 
ENDBRANCH  12  13
ENDBRANCH   4  12
TORSDOF 4
ENDMDL
MODEL 4
REMARK VINA RESULT:      -6.1      2.741      6.091
REMARK  Name = 
REMARK  8 active torsions:
REMARK  status: ('A' for Active; 'I' for Inactive)
REMARK    1  A    between atoms: C_1  and  C_2
REMARK    2  A    between atoms: C_2  and  C_3
REMARK    3  A    between atoms: C_2  and  N_4
REMARK    4  A    between atoms: N_7  and  C_8
REMARK    5  A    between atoms: N_7  and  C_15
REMARK    6  A    between atoms: C_8  and  C_9
REMARK    7  A    between atoms: C_15  and  C_16
REMARK    8  A    between atoms: C_15  and  C_17
REMARK                            x       y       z     vdW  Elec       q    Type
REMARK                         _______ _______ _______ _____ _____    ______ ____
ROOT
ATOM      1  N   UNL     1       5.789   3.552  13.723  0.00  0.00    +0.000 N 
ATOM      2  C   UNL     1       6.430   4.525  14.450  0.00  0.00    +0.000 C 
ATOM      3  O   UNL     1       7.145   5.364  13.905  0.00  0.00    +0.000 OA
ATOM      4  N   UNL     1       6.255   4.477  15.831  0.00  0.00    +0.000 N 
ATOM      5  H   UNL     1       4.930   3.194  14.109  0.00  0.00    +0.000 HD
ENDROOT
BRANCH   1   7
ATOM      6  C   UNL     1       6.865   2.442  11.810  0.00  0.00    +0.000 C 
ATOM      7  C   UNL     1       5.896   3.529  12.265  0.00  0.00    +0.000 C 
ATOM      8  C   UNL     1       4.520   3.335  11.633  0.00  0.00    +0.000 C 
ENDBRANCH   1   7
BRANCH   4   9
ATOM      9  C   UNL     1       7.116   5.387  16.625  0.00  0.00    +0.000 C 
ATOM     10  C   UNL     1       6.434   6.670  17.102  0.00  0.00    +0.000 C 
ATOM     11  C   UNL     1       7.743   4.641  17.810  0.00  0.00    +0.000 C 
ENDBRANCH   4   9
BRANCH   4  12
ATOM     12  C   UNL     1       5.568   3.383  16.533  0.00  0.00    +0.000 C 
BRANCH  12  13
ATOM     13  C   UNL     1       4.432   3.794  17.439  0.00  0.00    +0.000 A 
ATOM     14  C   UNL     1       3.386   4.649  17.072  0.00  0.00    +0.000 A 
ATOM     15  C   UNL     1       2.425   5.018  18.014  0.00  0.00    +0.000 A 
ATOM     16  C   UNL     1       2.526   4.505  19.297  0.00  0.00    +0.000 A 
ATOM     17  N   UNL     1       3.492   3.650  19.682  0.00  0.00    +0.000 NA
ATOM     18  C   UNL     1       4.416   3.319  18.751  0.00  0.00    +0.000 A 
ENDBRANCH  12  13
ENDBRANCH   4  12
TORSDOF 4
ENDMDL
MODEL 5
REMARK VINA RESULT:      -5.9      1.955      4.982
REMARK  Name = 
REMARK  8 active torsions:
REMARK  status: ('A' for Active; 'I' for Inactive)
REMARK    1  A    between atoms: C_1  and  C_2
REMARK    2  A    between atoms: C_2  and  C_3
REMARK    3  A    between atoms: C_2  and  N_4
REMARK    4  A    between atoms: N_7  and  C_8
REMARK    5  A    between atoms: N_7  and  C_15
REMARK    6  A    between atoms: C_8  and  C_9
REMARK    7  A    between atoms: C_15  and  C_16
REMARK    8  A    between atoms: C_15  and  C_17
REMARK                            x       y       z     vdW  Elec       q    Type
REMARK                         _______ _______ _______ _____ _____    ______ ____
ROOT
ATOM      1  N   UNL     1       5.323   4.655  18.256  0.00  0.00    +0.000 N 
ATOM      2  C   UNL     1       4.643   3.794  19.081  0.00  0.00    +0.000 C 
ATOM      3  O   UNL     1       5.234   2.959  19.763  0.00  0.00    +0.000 OA
ATOM      4  N   UNL     1       3.254   3.895  19.065  0.00  0.00    +0.000 N 
ATOM      5  H   UNL     1       4.886   5.544  18.074  0.00  0.00    +0.000 HD
ENDROOT
BRANCH   1   7
ATOM      6  C   UNL     1       7.286   4.537  16.780  0.00  0.00    +0.000 C 
ATOM      7  C   UNL     1       6.785   4.639  18.217  0.00  0.00    +0.000 C 
ATOM      8  C   UNL     1       7.350   5.879  18.907  0.00  0.00    +0.000 C 
ENDBRANCH   1   7
BRANCH   4   9
ATOM      9  C   UNL     1       2.518   2.827  19.784  0.00  0.00    +0.000 C 
ATOM     10  C   UNL     1       2.235   3.117  21.259  0.00  0.00    +0.000 C 
ATOM     11  C   UNL     1       1.218   2.476  19.048  0.00  0.00    +0.000 C 
ENDBRANCH   4   9
BRANCH   4  12
ATOM     12  C   UNL     1       2.504   4.743  18.127  0.00  0.00    +0.000 C 
BRANCH  12  13
ATOM     13  C   UNL     1       2.234   6.155  18.589  0.00  0.00    +0.000 A 
ATOM     14  C   UNL     1       2.248   7.284  17.761  0.00  0.00    +0.000 A 
ATOM     15  C   UNL     1       2.053   8.552  18.309  0.00  0.00    +0.000 A 
ATOM     16  C   UNL     1       1.829   8.656  19.673  0.00  0.00    +0.000 A 
ATOM     17  N   UNL     1       1.768   7.595  20.499  0.00  0.00    +0.000 NA
ATOM     18  C   UNL     1       1.972   6.379  19.941  0.00  0.00    +0.000 A 
ENDBRANCH  12  13
ENDBRANCH   4  12
TORSDOF 4
ENDMDL
MODEL 6
REMARK VINA RESULT:      -5.9      2.121      5.298
REMARK  Name = 
REMARK  8 active torsions:
REMARK  status: ('A' for Active; 'I' for Inactive)
REMARK    1  A    between atoms: C_1  and  C_2
REMARK    2  A    between atoms: C_2  and  C_3
REMARK    3  A    between atoms: C_2  and  N_4
REMARK    4  A    between atoms: N_7  and  C_8
REMARK    5  A    between atoms: N_7  and  C_15
REMARK    6  A    between atoms: C_8  and  C_9
REMARK    7  A    between atoms: C_15  and  C_16
REMARK    8  A    between atoms: C_15  and  C_17
REMARK                            x       y       z     vdW  Elec       q    Type
REMARK                         _______ _______ _______ _____ _____    ______ ____
ROOT
ATOM      1  N   UNL     1       5.739   5.608  18.377  0.00  0.00    +0.000 N 
ATOM      2  C   UNL     1       4.840   4.718  18.911  0.00  0.00    +0.000 C 
ATOM      3  O   UNL     1       5.214   3.723  19.528  0.00  0.00    +0.000 OA
ATOM      4  N   UNL     1       3.494   4.988  18.676  0.00  0.00    +0.000 N 
ATOM      5  H   UNL     1       5.426   6.561  18.281  0.00  0.00    +0.000 HD
ENDROOT
BRANCH   1   7
ATOM      6  C   UNL     1       7.761   4.501  17.522  0.00  0.00    +0.000 C 
ATOM      7  C   UNL     1       7.174   5.423  18.586  0.00  0.00    +0.000 C 
ATOM      8  C   UNL     1       7.890   6.771  18.598  0.00  0.00    +0.000 C 
ENDBRANCH   1   7
BRANCH   4   9
ATOM      9  C   UNL     1       2.542   3.918  19.061  0.00  0.00    +0.000 C 
ATOM     10  C   UNL     1       1.913   4.080  20.446  0.00  0.00    +0.000 C 
ATOM     11  C   UNL     1       1.452   3.753  17.993  0.00  0.00    +0.000 C 
ENDBRANCH   4   9
BRANCH   4  12
ATOM     12  C   UNL     1       3.014   6.055  17.785  0.00  0.00    +0.000 C 
BRANCH  12  13
ATOM     13  C   UNL     1       2.351   7.229  18.465  0.00  0.00    +0.000 A 
ATOM     14  C   UNL     1       1.897   8.381  17.810  0.00  0.00    +0.000 A 
ATOM     15  C   UNL     1       1.362   9.436  18.548  0.00  0.00    +0.000 A 
ATOM     16  C   UNL     1       1.276   9.304  19.925  0.00  0.00    +0.000 A 
ATOM     17  N   UNL     1       1.662   8.200  20.591  0.00  0.00    +0.000 NA
ATOM     18  C   UNL     1       2.188   7.197  19.850  0.00  0.00    +0.000 A 
ENDBRANCH  12  13
ENDBRANCH   4  12
TORSDOF 4
ENDMDL
MODEL 7
REMARK VINA RESULT:      -5.8      1.836      5.110
REMARK  Name = 
REMARK  8 active torsions:
REMARK  status: ('A' for Active; 'I' for Inactive)
REMARK    1  A    between atoms: C_1  and  C_2
REMARK    2  A    between atoms: C_2  and  C_3
REMARK    3  A    between atoms: C_2  and  N_4
REMARK    4  A    between atoms: N_7  and  C_8
REMARK    5  A    between atoms: N_7  and  C_15
REMARK    6  A    between atoms: C_8  and  C_9
REMARK    7  A    between atoms: C_15  and  C_16
REMARK    8  A    between atoms: C_15  and  C_17
REMARK                            x       y       z     vdW  Elec       q    Type
REMARK                         _______ _______ _______ _____ _____    ______ ____
ROOT
ATOM      1  N   UNL     1       5.345   4.824  18.061  0.00  0.00    +0.000 N 
ATOM      2  C   UNL     1       4.204   4.060  18.085  0.00  0.00    +0.000 C 
ATOM      3  O   UNL     1       4.020   3.157  17.272  0.00  0.00    +0.000 OA
ATOM      4  N   UNL     1       3.259   4.397  19.052  0.00  0.00    +0.000 N 
ATOM      5  H   UNL     1       5.642   5.217  18.940  0.00  0.00    +0.000 HD
ENDROOT
BRANCH   1   7
ATOM      6  C   UNL     1       6.316   5.478  15.899  0.00  0.00    +0.000 C 
ATOM      7  C   UNL     1       6.404   4.536  17.096  0.00  0.00    +0.000 C 
ATOM      8  C   UNL     1       7.774   4.627  17.764  0.00  0.00    +0.000 C 
ENDBRANCH   1   7
BRANCH   4   9
ATOM      9  C   UNL     1       1.944   3.719  18.937  0.00  0.00    +0.000 C 
ATOM     10  C   UNL     1       1.045   3.837  20.169  0.00  0.00    +0.000 C 
ATOM     11  C   UNL     1       1.199   4.194  17.682  0.00  0.00    +0.000 C 
ENDBRANCH   4   9
BRANCH   4  12
ATOM     12  C   UNL     1       3.354   5.584  19.914  0.00  0.00    +0.000 C 
BRANCH  12  13
ATOM     13  C   UNL     1       2.702   6.838  19.380  0.00  0.00    +0.000 A 
ATOM     14  C   UNL     1       2.874   7.339  18.085  0.00  0.00    +0.000 A 
ATOM     15  C   UNL     1       2.278   8.547  17.721  0.00  0.00    +0.000 A 
ATOM     16  C   UNL     1       1.507   9.213  18.659  0.00  0.00    +0.000 A 
ATOM     17  N   UNL     1       1.282   8.748  19.902  0.00  0.00    +0.000 NA
ATOM     18  C   UNL     1       1.882   7.580  20.230  0.00  0.00    +0.000 A 
ENDBRANCH  12  13
ENDBRANCH   4  12
TORSDOF 4
ENDMDL
MODEL 8
REMARK VINA RESULT:      -5.8      2.719      6.108
REMARK  Name = 
REMARK  8 active torsions:
REMARK  status: ('A' for Active; 'I' for Inactive)
REMARK    1  A    between atoms: C_1  and  C_2
REMARK    2  A    between atoms: C_2  and  C_3
REMARK    3  A    between atoms: C_2  and  N_4
REMARK    4  A    between atoms: N_7  and  C_8
REMARK    5  A    between atoms: N_7  and  C_15
REMARK    6  A    between atoms: C_8  and  C_9
REMARK    7  A    between atoms: C_15  and  C_16
REMARK    8  A    between atoms: C_15  and  C_17
REMARK                            x       y       z     vdW  Elec       q    Type
REMARK                         _______ _______ _______ _____ _____    ______ ____
ROOT
ATOM      1  N   UNL     1       5.691   3.724  13.780  0.00  0.00    +0.000 N 
ATOM      2  C   UNL     1       6.409   4.638  14.511  0.00  0.00    +0.000 C 
ATOM      3  O   UNL     1       7.181   5.427  13.969  0.00  0.00    +0.000 OA
ATOM      4  N   UNL     1       6.242   4.589  15.893  0.00  0.00    +0.000 N 
ATOM      5  H   UNL     1       4.811   3.427  14.169  0.00  0.00    +0.000 HD
ENDROOT
BRANCH   1   7
ATOM      6  C   UNL     1       6.853   2.725  11.856  0.00  0.00    +0.000 C 
ATOM      7  C   UNL     1       5.784   3.710  12.321  0.00  0.00    +0.000 C 
ATOM      8  C   UNL     1       4.428   3.376  11.703  0.00  0.00    +0.000 C 
ENDBRANCH   1   7
BRANCH   4   9
ATOM      9  C   UNL     1       7.175   5.423  16.689  0.00  0.00    +0.000 C 
ATOM     10  C   UNL     1       6.588   6.737  17.205  0.00  0.00    +0.000 C 
ATOM     11  C   UNL     1       7.772   4.611  17.846  0.00  0.00    +0.000 C 
ENDBRANCH   4   9
BRANCH   4  12
ATOM     12  C   UNL     1       5.481   3.542  16.590  0.00  0.00    +0.000 C 
BRANCH  12  13
ATOM     13  C   UNL     1       4.472   4.027  17.604  0.00  0.00    +0.000 A 
ATOM     14  C   UNL     1       4.407   3.598  18.935  0.00  0.00    +0.000 A 
ATOM     15  C   UNL     1       3.387   4.062  19.767  0.00  0.00    +0.000 A 
ATOM     16  C   UNL     1       2.468   4.960  19.249  0.00  0.00    +0.000 A 
ATOM     17  N   UNL     1       2.517   5.428  17.988  0.00  0.00    +0.000 NA
ATOM     18  C   UNL     1       3.510   4.953  17.201  0.00  0.00    +0.000 A 
ENDBRANCH  12  13
ENDBRANCH   4  12
TORSDOF 4
ENDMDL
MODEL 9
REMARK VINA RESULT:      -5.7      1.840      4.737
REMARK  Name = 
REMARK  8 active torsions:
REMARK  status: ('A' for Active; 'I' for Inactive)
REMARK    1  A    between atoms: C_1  and  C_2
REMARK    2  A    between atoms: C_2  and  C_3
REMARK    3  A    between atoms: C_2  and  N_4
REMARK    4  A    between atoms: N_7  and  C_8
REMARK    5  A    between atoms: N_7  and  C_15
REMARK    6  A    between atoms: C_8  and  C_9
REMARK    7  A    between atoms: C_15  and  C_16
REMARK    8  A    between atoms: C_15  and  C_17
REMARK                            x       y       z     vdW  Elec       q    Type
REMARK                         _______ _______ _______ _____ _____    ______ ____
ROOT
ATOM      1  N   UNL     1       2.866   3.480  19.449  0.00  0.00    +0.000 N 
ATOM      2  C   UNL     1       3.684   3.341  18.355  0.00  0.00    +0.000 C 
ATOM      3  O   UNL     1       3.707   2.301  17.701  0.00  0.00    +0.000 OA
ATOM      4  N   UNL     1       4.509   4.425  18.062  0.00  0.00    +0.000 N 
ATOM      5  H   UNL     1       2.565   4.416  19.669  0.00  0.00    +0.000 HD
ENDROOT
BRANCH   1   7
ATOM      6  C   UNL     1       1.577   2.506  21.302  0.00  0.00    +0.000 C 
ATOM      7  C   UNL     1       1.950   2.406  19.826  0.00  0.00    +0.000 C 
ATOM      8  C   UNL     1       0.704   2.432  18.944  0.00  0.00    +0.000 C 
ENDBRANCH   1   7
BRANCH   4   9
ATOM      9  C   UNL     1       5.540   4.192  17.021  0.00  0.00    +0.000 C 
ATOM     10  C   UNL     1       5.226   4.796  15.652  0.00  0.00    +0.000 C 
ATOM     11  C   UNL     1       6.917   4.660  17.510  0.00  0.00    +0.000 C 
ENDBRANCH   4   9
BRANCH   4  12
ATOM     12  C   UNL     1       4.651   5.606  18.926  0.00  0.00    +0.000 C 
BRANCH  12  13
ATOM     13  C   UNL     1       3.599   6.676  18.755  0.00  0.00    +0.000 A 
ATOM     14  C   UNL     1       3.455   7.481  17.618  0.00  0.00    +0.000 A 
ATOM     15  C   UNL     1       2.491   8.489  17.597  0.00  0.00    +0.000 A 
ATOM     16  C   UNL     1       1.680   8.653  18.709  0.00  0.00    +0.000 A 
ATOM     17  N   UNL     1       1.758   7.877  19.806  0.00  0.00    +0.000 NA
ATOM     18  C   UNL     1       2.710   6.915  19.803  0.00  0.00    +0.000 A 
ENDBRANCH  12  13
ENDBRANCH   4  12
TORSDOF 4
ENDMDL
