MODEL 1
REMARK VINA RESULT:      -6.7      0.000      0.000
REMARK  Name = 
REMARK  14 active torsions:
REMARK  status: ('A' for Active; 'I' for Inactive)
REMARK    1  A    between atoms: C_1  and  O_2
REMARK    2  A    between atoms: O_2  and  C_3
REMARK    3  A    between atoms: C_3  and  C_4
REMARK    4  A    between atoms: C_4  and  C_5
REMARK    5  A    between atoms: C_4  and  N_12
REMARK    6  A    between atoms: C_5  and  C_6
REMARK    7  A    between atoms: N_12  and  C_13
REMARK    8  A    between atoms: C_15  and  C_16
REMARK    9  A    between atoms: C_19  and  C_20
REMARK   10  A    between atoms: C_23  and  N_24
REMARK   11  A    between atoms: N_24  and  C_25
REMARK   12  A    between atoms: N_24  and  C_26
REMARK   13  A    between atoms: C_28  and  C_29
REMARK   14  A    between atoms: C_30  and  C_31
REMARK                            x       y       z     vdW  Elec       q    Type
REMARK                         _______ _______ _______ _____ _____    ______ ____
ROOT
ATOM      1  C   UNL     1      -2.856  11.992  18.796  0.00  0.00    +0.000 A 
ATOM      2  C   UNL     1      -3.275  11.531  17.604  0.00  0.00    +0.000 A 
ATOM      3  C   UNL     1      -2.576  10.345  17.053  0.00  0.00    +0.000 A 
ATOM      4  C   UNL     1      -3.094   9.779  15.756  0.00  0.00    +0.000 C 
ATOM      5  N   UNL     1      -1.557   9.768  17.605  0.00  0.00    +0.000 NA
ATOM      6  C   UNL     1      -1.021  10.361  18.712  0.00  0.00    +0.000 A 
ATOM      7  C   UNL     1       0.170  10.147  19.387  0.00  0.00    +0.000 A 
ATOM      8  C   UNL     1       0.109  11.072  20.477  0.00  0.00    +0.000 A 
ATOM      9  C   UNL     1       1.102  11.319  21.566  0.00  0.00    +0.000 C 
ATOM     10  N   UNL     1      -1.011  11.806  20.480  0.00  0.00    +0.000 NA
ATOM     11  N   UNL     1      -1.668  11.426  19.344  0.00  0.00    +0.000 N 
ENDROOT
BRANCH   7  12
ATOM     12  C   UNL     1       1.157   9.119  19.024  0.00  0.00    +0.000 A 
ATOM     13  C   UNL     1       1.795   9.190  17.789  0.00  0.00    +0.000 A 
ATOM     14  N   UNL     1       2.748   8.332  17.329  0.00  0.00    +0.000 NA
ATOM     15  C   UNL     1       3.181   7.336  18.127  0.00  0.00    +0.000 A 
ATOM     16  C   UNL     1       2.599   7.200  19.382  0.00  0.00    +0.000 A 
ATOM     17  C   UNL     1       1.565   8.051  19.837  0.00  0.00    +0.000 A 
ATOM     18  C   UNL     1       1.031   7.738  21.209  0.00  0.00    +0.000 C 
BRANCH  15  19
ATOM     19  N   UNL     1       4.205   6.519  17.686  0.00  0.00    +0.000 N 
ATOM     20  C   UNL     1       4.912   6.875  16.462  0.00  0.00    +0.000 C 
ATOM     21  C   UNL     1       4.516   5.205  18.228  0.00  0.00    +0.000 C 
ENDBRANCH  15  19
ENDBRANCH   7  12
BRANCH   1  22
ATOM     22  N   UNL     1      -3.515  13.013  19.506  0.00  0.00    +0.000 N 
ATOM     23  H   UNL     1      -2.796  13.674  19.832  0.00  0.00    +0.000 HD
BRANCH  22  24
ATOM     24  C   UNL     1      -4.479  12.688  20.596  0.00  0.00    +0.000 C 
BRANCH  24  25
ATOM     25  C   UNL     1      -4.218  13.553  21.847  0.00  0.00    +0.000 C 
BRANCH  25  27
ATOM     26  C   UNL     1      -2.640  15.186  22.507  0.00  0.00    +0.000 C 
ATOM     27  O   UNL     1      -3.493  14.728  21.467  0.00  0.00    +0.000 OA
ENDBRANCH  25  27
ENDBRANCH  24  25
BRANCH  24  28
ATOM     28  C   UNL     1      -5.969  12.764  20.171  0.00  0.00    +0.000 C 
BRANCH  28  29
ATOM     29  C   UNL     1      -6.304  13.692  19.027  0.00  0.00    +0.000 A 
ATOM     30  C   UNL     1      -6.598  13.199  17.751  0.00  0.00    +0.000 A 
ATOM     31  C   UNL     1      -6.900  14.071  16.704  0.00  0.00    +0.000 A 
ATOM     32  C   UNL     1      -6.924  15.446  16.926  0.00  0.00    +0.000 A 
ATOM     33  C   UNL     1      -6.655  15.948  18.197  0.00  0.00    +0.000 A 
ATOM     34  C   UNL     1      -6.350  15.077  19.243  0.00  0.00    +0.000 A 
ENDBRANCH  28  29
ENDBRANCH  24  28
ENDBRANCH  22  24
ENDBRANCH   1  22
TORSDOF 8
ENDMDL
MODEL 2
REMARK VINA RESULT:      -6.7      2.514      4.260
REMARK  Name = 
REMARK  14 active torsions:
REMARK  status: ('A' for Active; 'I' for Inactive)
REMARK    1  A    between atoms: C_1  and  O_2
REMARK    2  A    between atoms: O_2  and  C_3
REMARK    3  A    between atoms: C_3  and  C_4
REMARK    4  A    between atoms: C_4  and  C_5
REMARK    5  A    between atoms: C_4  and  N_12
REMARK    6  A    between atoms: C_5  and  C_6
REMARK    7  A    between atoms: N_12  and  C_13
REMARK    8  A    between atoms: C_15  and  C_16
REMARK    9  A    between atoms: C_19  and  C_20
REMARK   10  A    between atoms: C_23  and  N_24
REMARK   11  A    between atoms: N_24  and  C_25
REMARK   12  A    between atoms: N_24  and  C_26
REMARK   13  A    between atoms: C_28  and  C_29
REMARK   14  A    between atoms: C_30  and  C_31
REMARK                            x       y       z     vdW  Elec       q    Type
REMARK                         _______ _______ _______ _____ _____    ______ ____
ROOT
ATOM      1  C   UNL     1      -0.224  14.404  19.757  0.00  0.00    +0.000 A 
ATOM      2  C   UNL     1       0.922  14.720  20.383  0.00  0.00    +0.000 A 
ATOM      3  C   UNL     1       2.003  13.705  20.371  0.00  0.00    +0.000 A 
ATOM      4  C   UNL     1       3.316  14.086  21.004  0.00  0.00    +0.000 C 
ATOM      5  N   UNL     1       1.896  12.520  19.857  0.00  0.00    +0.000 NA
ATOM      6  C   UNL     1       0.667  12.143  19.398  0.00  0.00    +0.000 A 
ATOM      7  C   UNL     1       0.165  10.909  19.018  0.00  0.00    +0.000 A 
ATOM      8  C   UNL     1      -1.173  11.203  18.606  0.00  0.00    +0.000 A 
ATOM      9  C   UNL     1      -2.229  10.282  18.086  0.00  0.00    +0.000 C 
ATOM     10  N   UNL     1      -1.485  12.501  18.726  0.00  0.00    +0.000 NA
ATOM     11  N   UNL     1      -0.378  13.064  19.294  0.00  0.00    +0.000 N 
ENDROOT
BRANCH   7  12
ATOM     12  C   UNL     1       0.945   9.663  19.004  0.00  0.00    +0.000 A 
ATOM     13  C   UNL     1       1.613   9.288  17.841  0.00  0.00    +0.000 A 
ATOM     14  N   UNL     1       2.396   8.184  17.687  0.00  0.00    +0.000 NA
ATOM     15  C   UNL     1       2.613   7.375  18.744  0.00  0.00    +0.000 A 
ATOM     16  C   UNL     1       1.986   7.684  19.946  0.00  0.00    +0.000 A 
ATOM     17  C   UNL     1       1.123   8.794  20.091  0.00  0.00    +0.000 A 
ATOM     18  C   UNL     1       0.508   8.958  21.454  0.00  0.00    +0.000 C 
BRANCH  15  19
ATOM     19  N   UNL     1       3.471   6.302  18.603  0.00  0.00    +0.000 N 
ATOM     20  C   UNL     1       3.576   5.335  19.688  0.00  0.00    +0.000 C 
ATOM     21  C   UNL     1       4.449   6.151  17.535  0.00  0.00    +0.000 C 
ENDBRANCH  15  19
ENDBRANCH   7  12
BRANCH   1  22
ATOM     22  N   UNL     1      -1.278  15.317  19.562  0.00  0.00    +0.000 N 
ATOM     23  H   UNL     1      -0.906  16.102  19.011  0.00  0.00    +0.000 HD
BRANCH  22  24
ATOM     24  C   UNL     1      -2.090  15.806  20.713  0.00  0.00    +0.000 C 
BRANCH  24  25
ATOM     25  C   UNL     1      -2.269  17.337  20.657  0.00  0.00    +0.000 C 
BRANCH  25  27
ATOM     26  C   UNL     1      -0.979  17.188  22.634  0.00  0.00    +0.000 C 
ATOM     27  O   UNL     1      -1.276  17.961  21.479  0.00  0.00    +0.000 OA
ENDBRANCH  25  27
ENDBRANCH  24  25
BRANCH  24  28
ATOM     28  C   UNL     1      -3.458  15.092  20.875  0.00  0.00    +0.000 C 
BRANCH  28  29
ATOM     29  C   UNL     1      -3.585  14.116  22.020  0.00  0.00    +0.000 A 
ATOM     30  C   UNL     1      -2.668  13.072  22.192  0.00  0.00    +0.000 A 
ATOM     31  C   UNL     1      -2.804  12.175  23.253  0.00  0.00    +0.000 A 
ATOM     32  C   UNL     1      -3.850  12.321  24.160  0.00  0.00    +0.000 A 
ATOM     33  C   UNL     1      -4.756  13.369  24.013  0.00  0.00    +0.000 A 
ATOM     34  C   UNL     1      -4.623  14.264  22.951  0.00  0.00    +0.000 A 
ENDBRANCH  28  29
ENDBRANCH  24  28
ENDBRANCH  22  24
ENDBRANCH   1  22
TORSDOF 8
ENDMDL
MODEL 3
REMARK VINA RESULT:      -6.5      4.174      5.867
REMARK  Name = 
REMARK  14 active torsions:
REMARK  status: ('A' for Active; 'I' for Inactive)
REMARK    1  A    between atoms: C_1  and  O_2
REMARK    2  A    between atoms: O_2  and  C_3
REMARK    3  A    between atoms: C_3  and  C_4
REMARK    4  A    between atoms: C_4  and  C_5
REMARK    5  A    between atoms: C_4  and  N_12
REMARK    6  A    between atoms: C_5  and  C_6
REMARK    7  A    between atoms: N_12  and  C_13
REMARK    8  A    between atoms: C_15  and  C_16
REMARK    9  A    between atoms: C_19  and  C_20
REMARK   10  A    between atoms: C_23  and  N_24
REMARK   11  A    between atoms: N_24  and  C_25
REMARK   12  A    between atoms: N_24  and  C_26
REMARK   13  A    between atoms: C_28  and  C_29
REMARK   14  A    between atoms: C_30  and  C_31
REMARK                            x       y       z     vdW  Elec       q    Type
REMARK                         _______ _______ _______ _____ _____    ______ ____
ROOT
ATOM      1  C   UNL     1      -1.079  11.099  18.538  0.00  0.00    +0.000 A 
ATOM      2  C   UNL     1      -0.308  10.055  18.190  0.00  0.00    +0.000 A 
ATOM      3  C   UNL     1       1.161  10.229  18.300  0.00  0.00    +0.000 A 
ATOM      4  C   UNL     1       2.024   9.035  17.985  0.00  0.00    +0.000 C 
ATOM      5  N   UNL     1       1.748  11.332  18.644  0.00  0.00    +0.000 NA
ATOM      6  C   UNL     1       0.964  12.437  18.806  0.00  0.00    +0.000 A 
ATOM      7  C   UNL     1       1.281  13.780  18.937  0.00  0.00    +0.000 A 
ATOM      8  C   UNL     1       0.008  14.410  19.108  0.00  0.00    +0.000 A 
ATOM      9  C   UNL     1      -0.315  15.856  19.302  0.00  0.00    +0.000 C 
ATOM     10  N   UNL     1      -1.014  13.545  19.077  0.00  0.00    +0.000 NA
ATOM     11  N   UNL     1      -0.430  12.340  18.806  0.00  0.00    +0.000 N 
ENDROOT
BRANCH   7  12
ATOM     12  C   UNL     1       2.652  14.311  18.964  0.00  0.00    +0.000 A 
ATOM     13  C   UNL     1       3.316  14.547  17.763  0.00  0.00    +0.000 A 
ATOM     14  N   UNL     1       4.570  15.063  17.629  0.00  0.00    +0.000 NA
ATOM     15  C   UNL     1       5.251  15.440  18.730  0.00  0.00    +0.000 A 
ATOM     16  C   UNL     1       4.653  15.244  19.970  0.00  0.00    +0.000 A 
ATOM     17  C   UNL     1       3.378  14.650  20.115  0.00  0.00    +0.000 A 
ATOM     18  C   UNL     1       2.901  14.488  21.533  0.00  0.00    +0.000 C 
BRANCH  15  19
ATOM     19  N   UNL     1       6.488  16.036  18.583  0.00  0.00    +0.000 N 
ATOM     20  C   UNL     1       7.527  15.329  17.844  0.00  0.00    +0.000 C 
ATOM     21  C   UNL     1       6.924  17.237  19.280  0.00  0.00    +0.000 C 
ENDBRANCH  15  19
ENDBRANCH   7  12
BRANCH   1  22
ATOM     22  N   UNL     1      -2.482  11.032  18.623  0.00  0.00    +0.000 N 
ATOM     23  H   UNL     1      -2.725  10.082  18.938  0.00  0.00    +0.000 HD
BRANCH  22  24
ATOM     24  C   UNL     1      -3.340  11.455  17.480  0.00  0.00    +0.000 C 
BRANCH  24  25
ATOM     25  C   UNL     1      -2.635  11.202  16.131  0.00  0.00    +0.000 C 
BRANCH  25  27
ATOM     26  C   UNL     1      -3.072  10.015  14.133  0.00  0.00    +0.000 C 
ATOM     27  O   UNL     1      -3.613  10.853  15.145  0.00  0.00    +0.000 OA
ENDBRANCH  25  27
ENDBRANCH  24  25
BRANCH  24  28
ATOM     28  C   UNL     1      -4.762  10.835  17.489  0.00  0.00    +0.000 C 
BRANCH  28  29
ATOM     29  C   UNL     1      -5.658  11.202  18.648  0.00  0.00    +0.000 A 
ATOM     30  C   UNL     1      -6.599  10.299  19.156  0.00  0.00    +0.000 A 
ATOM     31  C   UNL     1      -7.423  10.658  20.224  0.00  0.00    +0.000 A 
ATOM     32  C   UNL     1      -7.305  11.918  20.804  0.00  0.00    +0.000 A 
ATOM     33  C   UNL     1      -6.356  12.817  20.323  0.00  0.00    +0.000 A 
ATOM     34  C   UNL     1      -5.535  12.462  19.253  0.00  0.00    +0.000 A 
ENDBRANCH  28  29
ENDBRANCH  24  28
ENDBRANCH  22  24
ENDBRANCH   1  22
TORSDOF 8
ENDMDL
MODEL 4
REMARK VINA RESULT:      -6.5      2.094      2.753
REMARK  Name = 
REMARK  14 active torsions:
REMARK  status: ('A' for Active; 'I' for Inactive)
REMARK    1  A    between atoms: C_1  and  O_2
REMARK    2  A    between atoms: O_2  and  C_3
REMARK    3  A    between atoms: C_3  and  C_4
REMARK    4  A    between atoms: C_4  and  C_5
REMARK    5  A    between atoms: C_4  and  N_12
REMARK    6  A    between atoms: C_5  and  C_6
REMARK    7  A    between atoms: N_12  and  C_13
REMARK    8  A    between atoms: C_15  and  C_16
REMARK    9  A    between atoms: C_19  and  C_20
REMARK   10  A    between atoms: C_23  and  N_24
REMARK   11  A    between atoms: N_24  and  C_25
REMARK   12  A    between atoms: N_24  and  C_26
REMARK   13  A    between atoms: C_28  and  C_29
REMARK   14  A    between atoms: C_30  and  C_31
REMARK                            x       y       z     vdW  Elec       q    Type
REMARK                         _______ _______ _______ _____ _____    ______ ____
ROOT
ATOM      1  C   UNL     1      -1.517  12.003  20.584  0.00  0.00    +0.000 A 
ATOM      2  C   UNL     1      -1.955  12.038  19.314  0.00  0.00    +0.000 A 
ATOM      3  C   UNL     1      -1.582  10.901  18.437  0.00  0.00    +0.000 A 
ATOM      4  C   UNL     1      -2.138  10.898  17.037  0.00  0.00    +0.000 C 
ATOM      5  N   UNL     1      -0.816   9.919  18.791  0.00  0.00    +0.000 NA
ATOM      6  C   UNL     1      -0.221   9.995  20.018  0.00  0.00    +0.000 A 
ATOM      7  C   UNL     1       0.803   9.259  20.592  0.00  0.00    +0.000 A 
ATOM      8  C   UNL     1       0.924   9.819  21.903  0.00  0.00    +0.000 A 
ATOM      9  C   UNL     1       1.859   9.448  23.008  0.00  0.00    +0.000 C 
ATOM     10  N   UNL     1       0.063  10.819  22.127  0.00  0.00    +0.000 NA
ATOM     11  N   UNL     1      -0.585  10.983  20.935  0.00  0.00    +0.000 N 
ENDROOT
BRANCH   7  12
ATOM     12  C   UNL     1       1.482   8.130  19.939  0.00  0.00    +0.000 A 
ATOM     13  C   UNL     1       1.491   6.885  20.563  0.00  0.00    +0.000 A 
ATOM     14  N   UNL     1       2.049   5.745  20.068  0.00  0.00    +0.000 NA
ATOM     15  C   UNL     1       2.614   5.763  18.844  0.00  0.00    +0.000 A 
ATOM     16  C   UNL     1       2.640   6.968  18.151  0.00  0.00    +0.000 A 
ATOM     17  C   UNL     1       2.117   8.166  18.689  0.00  0.00    +0.000 A 
ATOM     18  C   UNL     1       2.259   9.381  17.812  0.00  0.00    +0.000 C 
BRANCH  15  19
ATOM     19  N   UNL     1       3.107   4.586  18.315  0.00  0.00    +0.000 N 
ATOM     20  C   UNL     1       4.523   4.502  17.980  0.00  0.00    +0.000 C 
ATOM     21  C   UNL     1       2.291   3.467  17.865  0.00  0.00    +0.000 C 
ENDBRANCH  15  19
ENDBRANCH   7  12
BRANCH   1  22
ATOM     22  N   UNL     1      -1.910  12.933  21.566  0.00  0.00    +0.000 N 
ATOM     23  H   UNL     1      -1.119  13.051  22.212  0.00  0.00    +0.000 HD
BRANCH  22  24
ATOM     24  C   UNL     1      -3.191  12.764  22.310  0.00  0.00    +0.000 C 
BRANCH  24  25
ATOM     25  C   UNL     1      -3.019  13.117  23.801  0.00  0.00    +0.000 C 
BRANCH  25  27
ATOM     26  C   UNL     1      -2.047  15.102  24.644  0.00  0.00    +0.000 C 
ATOM     27  O   UNL     1      -1.814  13.871  23.974  0.00  0.00    +0.000 OA
ENDBRANCH  25  27
ENDBRANCH  24  25
BRANCH  24  28
ATOM     28  C   UNL     1      -4.391  13.531  21.692  0.00  0.00    +0.000 C 
BRANCH  28  29
ATOM     29  C   UNL     1      -5.477  12.696  21.056  0.00  0.00    +0.000 A 
ATOM     30  C   UNL     1      -5.381  12.267  19.727  0.00  0.00    +0.000 A 
ATOM     31  C   UNL     1      -6.397  11.502  19.153  0.00  0.00    +0.000 A 
ATOM     32  C   UNL     1      -7.513  11.145  19.906  0.00  0.00    +0.000 A 
ATOM     33  C   UNL     1      -7.609  11.546  21.236  0.00  0.00    +0.000 A 
ATOM     34  C   UNL     1      -6.596  12.315  21.810  0.00  0.00    +0.000 A 
ENDBRANCH  28  29
ENDBRANCH  24  28
ENDBRANCH  22  24
ENDBRANCH   1  22
TORSDOF 8
ENDMDL
MODEL 5
REMARK VINA RESULT:      -6.4      2.419      4.196
REMARK  Name = 
REMARK  14 active torsions:
REMARK  status: ('A' for Active; 'I' for Inactive)
REMARK    1  A    between atoms: C_1  and  O_2
REMARK    2  A    between atoms: O_2  and  C_3
REMARK    3  A    between atoms: C_3  and  C_4
REMARK    4  A    between atoms: C_4  and  C_5
REMARK    5  A    between atoms: C_4  and  N_12
REMARK    6  A    between atoms: C_5  and  C_6
REMARK    7  A    between atoms: N_12  and  C_13
REMARK    8  A    between atoms: C_15  and  C_16
REMARK    9  A    between atoms: C_19  and  C_20
REMARK   10  A    between atoms: C_23  and  N_24
REMARK   11  A    between atoms: N_24  and  C_25
REMARK   12  A    between atoms: N_24  and  C_26
REMARK   13  A    between atoms: C_28  and  C_29
REMARK   14  A    between atoms: C_30  and  C_31
REMARK                            x       y       z     vdW  Elec       q    Type
REMARK                         _______ _______ _______ _____ _____    ______ ____
ROOT
ATOM      1  C   UNL     1      -0.617  14.232  19.989  0.00  0.00    +0.000 A 
ATOM      2  C   UNL     1       0.509  14.596  20.626  0.00  0.00    +0.000 A 
ATOM      3  C   UNL     1       1.665  13.670  20.544  0.00  0.00    +0.000 A 
ATOM      4  C   UNL     1       2.952  14.112  21.190  0.00  0.00    +0.000 C 
ATOM      5  N   UNL     1       1.642  12.514  19.959  0.00  0.00    +0.000 NA
ATOM      6  C   UNL     1       0.441  12.073  19.485  0.00  0.00    +0.000 A 
ATOM      7  C   UNL     1       0.030  10.829  19.033  0.00  0.00    +0.000 A 
ATOM      8  C   UNL     1      -1.331  11.044  18.649  0.00  0.00    +0.000 A 
ATOM      9  C   UNL     1      -2.319  10.078  18.080  0.00  0.00    +0.000 C 
ATOM     10  N   UNL     1      -1.740  12.304  18.851  0.00  0.00    +0.000 NA
ATOM     11  N   UNL     1      -0.673  12.915  19.445  0.00  0.00    +0.000 N 
ENDROOT
BRANCH   7  12
ATOM     12  C   UNL     1       0.904   9.650  18.937  0.00  0.00    +0.000 A 
ATOM     13  C   UNL     1       1.604   9.413  17.757  0.00  0.00    +0.000 A 
ATOM     14  N   UNL     1       2.469   8.385  17.532  0.00  0.00    +0.000 NA
ATOM     15  C   UNL     1       2.742   7.520  18.529  0.00  0.00    +0.000 A 
ATOM     16  C   UNL     1       2.087   7.691  19.744  0.00  0.00    +0.000 A 
ATOM     17  C   UNL     1       1.141   8.720  19.960  0.00  0.00    +0.000 A 
ATOM     18  C   UNL     1       0.509   8.736  21.325  0.00  0.00    +0.000 C 
BRANCH  15  19
ATOM     19  N   UNL     1       3.680   6.528  18.319  0.00  0.00    +0.000 N 
ATOM     20  C   UNL     1       4.561   6.624  17.162  0.00  0.00    +0.000 C 
ATOM     21  C   UNL     1       3.740   5.268  19.047  0.00  0.00    +0.000 C 
ENDBRANCH  15  19
ENDBRANCH   7  12
BRANCH   1  22
ATOM     22  N   UNL     1      -1.739  15.072  19.858  0.00  0.00    +0.000 N 
ATOM     23  H   UNL     1      -1.479  15.834  19.219  0.00  0.00    +0.000 HD
BRANCH  22  24
ATOM     24  C   UNL     1      -2.446  15.597  21.061  0.00  0.00    +0.000 C 
BRANCH  24  25
ATOM     25  C   UNL     1      -2.402  17.138  21.104  0.00  0.00    +0.000 C 
BRANCH  25  27
ATOM     26  C   UNL     1      -1.545  18.631  19.483  0.00  0.00    +0.000 C 
ATOM     27  O   UNL     1      -2.533  17.653  19.775  0.00  0.00    +0.000 OA
ENDBRANCH  25  27
ENDBRANCH  24  25
BRANCH  24  28
ATOM     28  C   UNL     1      -3.900  15.078  21.220  0.00  0.00    +0.000 C 
BRANCH  28  29
ATOM     29  C   UNL     1      -4.167  14.144  22.377  0.00  0.00    +0.000 A 
ATOM     30  C   UNL     1      -3.123  13.640  23.161  0.00  0.00    +0.000 A 
ATOM     31  C   UNL     1      -3.387  12.773  24.222  0.00  0.00    +0.000 A 
ATOM     32  C   UNL     1      -4.699  12.413  24.519  0.00  0.00    +0.000 A 
ATOM     33  C   UNL     1      -5.749  12.926  23.761  0.00  0.00    +0.000 A 
ATOM     34  C   UNL     1      -5.485  13.789  22.697  0.00  0.00    +0.000 A 
ENDBRANCH  28  29
ENDBRANCH  24  28
ENDBRANCH  22  24
ENDBRANCH   1  22
TORSDOF 8
ENDMDL
MODEL 6
REMARK VINA RESULT:      -6.4      1.022      1.221
REMARK  Name = 
REMARK  14 active torsions:
REMARK  status: ('A' for Active; 'I' for Inactive)
REMARK    1  A    between atoms: C_1  and  O_2
REMARK    2  A    between atoms: O_2  and  C_3
REMARK    3  A    between atoms: C_3  and  C_4
REMARK    4  A    between atoms: C_4  and  C_5
REMARK    5  A    between atoms: C_4  and  N_12
REMARK    6  A    between atoms: C_5  and  C_6
REMARK    7  A    between atoms: N_12  and  C_13
REMARK    8  A    between atoms: C_15  and  C_16
REMARK    9  A    between atoms: C_19  and  C_20
REMARK   10  A    between atoms: C_23  and  N_24
REMARK   11  A    between atoms: N_24  and  C_25
REMARK   12  A    between atoms: N_24  and  C_26
REMARK   13  A    between atoms: C_28  and  C_29
REMARK   14  A    between atoms: C_30  and  C_31
REMARK                            x       y       z     vdW  Elec       q    Type
REMARK                         _______ _______ _______ _____ _____    ______ ____
ROOT
ATOM      1  C   UNL     1      -2.769  12.471  19.402  0.00  0.00    +0.000 A 
ATOM      2  C   UNL     1      -3.507  11.803  18.498  0.00  0.00    +0.000 A 
ATOM      3  C   UNL     1      -2.991  10.491  18.037  0.00  0.00    +0.000 A 
ATOM      4  C   UNL     1      -3.854   9.706  17.085  0.00  0.00    +0.000 C 
ATOM      5  N   UNL     1      -1.856   9.980  18.395  0.00  0.00    +0.000 NA
ATOM      6  C   UNL     1      -1.030  10.753  19.159  0.00  0.00    +0.000 A 
ATOM      7  C   UNL     1       0.304  10.611  19.507  0.00  0.00    +0.000 A 
ATOM      8  C   UNL     1       0.553  11.739  20.351  0.00  0.00    +0.000 A 
ATOM      9  C   UNL     1       1.813  12.143  21.044  0.00  0.00    +0.000 C 
ATOM     10  N   UNL     1      -0.522  12.523  20.509  0.00  0.00    +0.000 NA
ATOM     11  N   UNL     1      -1.473  11.960  19.706  0.00  0.00    +0.000 N 
ENDROOT
BRANCH   7  12
ATOM     12  C   UNL     1       1.149   9.475  19.111  0.00  0.00    +0.000 A 
ATOM     13  C   UNL     1       1.724   9.461  17.842  0.00  0.00    +0.000 A 
ATOM     14  N   UNL     1       2.550   8.497  17.348  0.00  0.00    +0.000 NA
ATOM     15  C   UNL     1       2.911   7.467  18.139  0.00  0.00    +0.000 A 
ATOM     16  C   UNL     1       2.386   7.411  19.425  0.00  0.00    +0.000 A 
ATOM     17  C   UNL     1       1.478   8.376  19.918  0.00  0.00    +0.000 A 
ATOM     18  C   UNL     1       0.988   8.140  21.321  0.00  0.00    +0.000 C 
BRANCH  15  19
ATOM     19  N   UNL     1       3.812   6.536  17.659  0.00  0.00    +0.000 N 
ATOM     20  C   UNL     1       4.830   6.965  16.708  0.00  0.00    +0.000 C 
ATOM     21  C   UNL     1       3.714   5.098  17.862  0.00  0.00    +0.000 C 
ENDBRANCH  15  19
ENDBRANCH   7  12
BRANCH   1  22
ATOM     22  N   UNL     1      -3.201  13.652  20.035  0.00  0.00    +0.000 N 
ATOM     23  H   UNL     1      -2.361  14.192  20.284  0.00  0.00    +0.000 HD
BRANCH  22  24
ATOM     24  C   UNL     1      -4.164  13.602  21.172  0.00  0.00    +0.000 C 
BRANCH  24  25
ATOM     25  C   UNL     1      -3.457  13.888  22.513  0.00  0.00    +0.000 C 
BRANCH  25  27
ATOM     26  C   UNL     1      -4.151  12.588  24.363  0.00  0.00    +0.000 C 
ATOM     27  O   UNL     1      -4.398  13.750  23.583  0.00  0.00    +0.000 OA
ENDBRANCH  25  27
ENDBRANCH  24  25
BRANCH  24  28
ATOM     28  C   UNL     1      -5.406  14.514  20.994  0.00  0.00    +0.000 C 
BRANCH  28  29
ATOM     29  C   UNL     1      -6.208  14.333  19.726  0.00  0.00    +0.000 A 
ATOM     30  C   UNL     1      -6.809  13.108  19.414  0.00  0.00    +0.000 A 
ATOM     31  C   UNL     1      -7.541  12.956  18.236  0.00  0.00    +0.000 A 
ATOM     32  C   UNL     1      -7.691  14.031  17.364  0.00  0.00    +0.000 A 
ATOM     33  C   UNL     1      -7.116  15.262  17.674  0.00  0.00    +0.000 A 
ATOM     34  C   UNL     1      -6.380  15.413  18.850  0.00  0.00    +0.000 A 
ENDBRANCH  28  29
ENDBRANCH  24  28
ENDBRANCH  22  24
ENDBRANCH   1  22
TORSDOF 8
ENDMDL
MODEL 7
REMARK VINA RESULT:      -6.4      1.577      3.040
REMARK  Name = 
REMARK  14 active torsions:
REMARK  status: ('A' for Active; 'I' for Inactive)
REMARK    1  A    between atoms: C_1  and  O_2
REMARK    2  A    between atoms: O_2  and  C_3
REMARK    3  A    between atoms: C_3  and  C_4
REMARK    4  A    between atoms: C_4  and  C_5
REMARK    5  A    between atoms: C_4  and  N_12
REMARK    6  A    between atoms: C_5  and  C_6
REMARK    7  A    between atoms: N_12  and  C_13
REMARK    8  A    between atoms: C_15  and  C_16
REMARK    9  A    between atoms: C_19  and  C_20
REMARK   10  A    between atoms: C_23  and  N_24
REMARK   11  A    between atoms: N_24  and  C_25
REMARK   12  A    between atoms: N_24  and  C_26
REMARK   13  A    between atoms: C_28  and  C_29
REMARK   14  A    between atoms: C_30  and  C_31
REMARK                            x       y       z     vdW  Elec       q    Type
REMARK                         _______ _______ _______ _____ _____    ______ ____
ROOT
ATOM      1  C   UNL     1      -3.002  11.881  18.622  0.00  0.00    +0.000 A 
ATOM      2  C   UNL     1      -3.350  11.463  17.394  0.00  0.00    +0.000 A 
ATOM      3  C   UNL     1      -2.594  10.320  16.827  0.00  0.00    +0.000 A 
ATOM      4  C   UNL     1      -3.033   9.799  15.483  0.00  0.00    +0.000 C 
ATOM      5  N   UNL     1      -1.586   9.745  17.404  0.00  0.00    +0.000 NA
ATOM      6  C   UNL     1      -1.121  10.303  18.560  0.00  0.00    +0.000 A 
ATOM      7  C   UNL     1       0.042  10.089  19.282  0.00  0.00    +0.000 A 
ATOM      8  C   UNL     1      -0.096  10.963  20.406  0.00  0.00    +0.000 A 
ATOM      9  C   UNL     1       0.836  11.187  21.552  0.00  0.00    +0.000 C 
ATOM     10  N   UNL     1      -1.235  11.668  20.386  0.00  0.00    +0.000 NA
ATOM     11  N   UNL     1      -1.826  11.322  19.204  0.00  0.00    +0.000 N 
ENDROOT
BRANCH   7  12
ATOM     12  C   UNL     1       1.073   9.103  18.925  0.00  0.00    +0.000 A 
ATOM     13  C   UNL     1       1.723   9.209  17.698  0.00  0.00    +0.000 A 
ATOM     14  N   UNL     1       2.715   8.393  17.245  0.00  0.00    +0.000 NA
ATOM     15  C   UNL     1       3.177   7.408  18.041  0.00  0.00    +0.000 A 
ATOM     16  C   UNL     1       2.585   7.240  19.288  0.00  0.00    +0.000 A 
ATOM     17  C   UNL     1       1.512   8.046  19.735  0.00  0.00    +0.000 A 
ATOM     18  C   UNL     1       0.974   7.702  21.097  0.00  0.00    +0.000 C 
BRANCH  15  19
ATOM     19  N   UNL     1       4.237   6.636  17.607  0.00  0.00    +0.000 N 
ATOM     20  C   UNL     1       4.192   5.195  17.818  0.00  0.00    +0.000 C 
ATOM     21  C   UNL     1       5.510   7.158  17.130  0.00  0.00    +0.000 C 
ENDBRANCH  15  19
ENDBRANCH   7  12
BRANCH   1  22
ATOM     22  N   UNL     1      -3.722  12.853  19.343  0.00  0.00    +0.000 N 
ATOM     23  H   UNL     1      -3.406  12.806  20.321  0.00  0.00    +0.000 HD
BRANCH  22  24
ATOM     24  C   UNL     1      -5.209  12.921  19.261  0.00  0.00    +0.000 C 
BRANCH  24  25
ATOM     25  C   UNL     1      -5.844  11.534  19.495  0.00  0.00    +0.000 C 
BRANCH  25  27
ATOM     26  C   UNL     1      -6.943  12.236  17.522  0.00  0.00    +0.000 C 
ATOM     27  O   UNL     1      -7.005  11.400  18.669  0.00  0.00    +0.000 OA
ENDBRANCH  25  27
ENDBRANCH  24  25
BRANCH  24  28
ATOM     28  C   UNL     1      -5.849  13.987  20.189  0.00  0.00    +0.000 C 
BRANCH  28  29
ATOM     29  C   UNL     1      -6.218  13.542  21.585  0.00  0.00    +0.000 A 
ATOM     30  C   UNL     1      -5.250  13.409  22.587  0.00  0.00    +0.000 A 
ATOM     31  C   UNL     1      -5.608  12.990  23.869  0.00  0.00    +0.000 A 
ATOM     32  C   UNL     1      -6.940  12.715  24.166  0.00  0.00    +0.000 A 
ATOM     33  C   UNL     1      -7.917  12.866  23.184  0.00  0.00    +0.000 A 
ATOM     34  C   UNL     1      -7.559  13.280  21.901  0.00  0.00    +0.000 A 
ENDBRANCH  28  29
ENDBRANCH  24  28
ENDBRANCH  22  24
ENDBRANCH   1  22
TORSDOF 8
ENDMDL
MODEL 8
REMARK VINA RESULT:      -6.4      4.194      5.931
REMARK  Name = 
REMARK  14 active torsions:
REMARK  status: ('A' for Active; 'I' for Inactive)
REMARK    1  A    between atoms: C_1  and  O_2
REMARK    2  A    between atoms: O_2  and  C_3
REMARK    3  A    between atoms: C_3  and  C_4
REMARK    4  A    between atoms: C_4  and  C_5
REMARK    5  A    between atoms: C_4  and  N_12
REMARK    6  A    between atoms: C_5  and  C_6
REMARK    7  A    between atoms: N_12  and  C_13
REMARK    8  A    between atoms: C_15  and  C_16
REMARK    9  A    between atoms: C_19  and  C_20
REMARK   10  A    between atoms: C_23  and  N_24
REMARK   11  A    between atoms: N_24  and  C_25
REMARK   12  A    between atoms: N_24  and  C_26
REMARK   13  A    between atoms: C_28  and  C_29
REMARK   14  A    between atoms: C_30  and  C_31
REMARK                            x       y       z     vdW  Elec       q    Type
REMARK                         _______ _______ _______ _____ _____    ______ ____
ROOT
ATOM      1  C   UNL     1      -1.412  13.040  20.141  0.00  0.00    +0.000 A 
ATOM      2  C   UNL     1      -1.017  11.826  20.562  0.00  0.00    +0.000 A 
ATOM      3  C   UNL     1       0.429  11.639  20.833  0.00  0.00    +0.000 A 
ATOM      4  C   UNL     1       0.863  10.304  21.379  0.00  0.00    +0.000 C 
ATOM      5  N   UNL     1       1.338  12.540  20.632  0.00  0.00    +0.000 NA
ATOM      6  C   UNL     1       0.951  13.699  20.024  0.00  0.00    +0.000 A 
ATOM      7  C   UNL     1       1.683  14.737  19.468  0.00  0.00    +0.000 A 
ATOM      8  C   UNL     1       0.680  15.658  19.031  0.00  0.00    +0.000 A 
ATOM      9  C   UNL     1       0.840  16.979  18.351  0.00  0.00    +0.000 C 
ATOM     10  N   UNL     1      -0.566  15.235  19.280  0.00  0.00    +0.000 NA
ATOM     11  N   UNL     1      -0.399  13.989  19.815  0.00  0.00    +0.000 N 
ENDROOT
BRANCH   7  12
ATOM     12  C   UNL     1       3.152  14.806  19.460  0.00  0.00    +0.000 A 
ATOM     13  C   UNL     1       3.842  14.546  18.279  0.00  0.00    +0.000 A 
ATOM     14  N   UNL     1       5.193  14.602  18.111  0.00  0.00    +0.000 NA
ATOM     15  C   UNL     1       5.971  14.985  19.143  0.00  0.00    +0.000 A 
ATOM     16  C   UNL     1       5.358  15.269  20.358  0.00  0.00    +0.000 A 
ATOM     17  C   UNL     1       3.963  15.151  20.551  0.00  0.00    +0.000 A 
ATOM     18  C   UNL     1       3.476  15.469  21.939  0.00  0.00    +0.000 C 
BRANCH  15  19
ATOM     19  N   UNL     1       7.332  15.117  18.944  0.00  0.00    +0.000 N 
ATOM     20  C   UNL     1       8.247  14.501  19.897  0.00  0.00    +0.000 C 
ATOM     21  C   UNL     1       7.951  15.999  17.964  0.00  0.00    +0.000 C 
ENDBRANCH  15  19
ENDBRANCH   7  12
BRANCH   1  22
ATOM     22  N   UNL     1      -2.763  13.404  19.985  0.00  0.00    +0.000 N 
ATOM     23  H   UNL     1      -2.938  14.207  20.604  0.00  0.00    +0.000 HD
BRANCH  22  24
ATOM     24  C   UNL     1      -3.848  12.389  20.103  0.00  0.00    +0.000 C 
BRANCH  24  25
ATOM     25  C   UNL     1      -4.796  12.721  21.274  0.00  0.00    +0.000 C 
BRANCH  25  27
ATOM     26  C   UNL     1      -7.003  12.347  22.037  0.00  0.00    +0.000 C 
ATOM     27  O   UNL     1      -5.956  11.885  21.196  0.00  0.00    +0.000 OA
ENDBRANCH  25  27
ENDBRANCH  24  25
BRANCH  24  28
ATOM     28  C   UNL     1      -4.645  12.155  18.793  0.00  0.00    +0.000 C 
BRANCH  28  29
ATOM     29  C   UNL     1      -3.959  11.351  17.713  0.00  0.00    +0.000 A 
ATOM     30  C   UNL     1      -2.869  10.521  18.004  0.00  0.00    +0.000 A 
ATOM     31  C   UNL     1      -2.243   9.791  16.994  0.00  0.00    +0.000 A 
ATOM     32  C   UNL     1      -2.709   9.870  15.684  0.00  0.00    +0.000 A 
ATOM     33  C   UNL     1      -3.807  10.674  15.385  0.00  0.00    +0.000 A 
ATOM     34  C   UNL     1      -4.431  11.408  16.394  0.00  0.00    +0.000 A 
ENDBRANCH  28  29
ENDBRANCH  24  28
ENDBRANCH  22  24
ENDBRANCH   1  22
TORSDOF 8
ENDMDL
MODEL 9
REMARK VINA RESULT:      -6.3      1.689      3.464
REMARK  Name = 
REMARK  14 active torsions:
REMARK  status: ('A' for Active; 'I' for Inactive)
REMARK    1  A    between atoms: C_1  and  O_2
REMARK    2  A    between atoms: O_2  and  C_3
REMARK    3  A    between atoms: C_3  and  C_4
REMARK    4  A    between atoms: C_4  and  C_5
REMARK    5  A    between atoms: C_4  and  N_12
REMARK    6  A    between atoms: C_5  and  C_6
REMARK    7  A    between atoms: N_12  and  C_13
REMARK    8  A    between atoms: C_15  and  C_16
REMARK    9  A    between atoms: C_19  and  C_20
REMARK   10  A    between atoms: C_23  and  N_24
REMARK   11  A    between atoms: N_24  and  C_25
REMARK   12  A    between atoms: N_24  and  C_26
REMARK   13  A    between atoms: C_28  and  C_29
REMARK   14  A    between atoms: C_30  and  C_31
REMARK                            x       y       z     vdW  Elec       q    Type
REMARK                         _______ _______ _______ _____ _____    ______ ____
ROOT
ATOM      1  C   UNL     1      -2.952  12.214  19.091  0.00  0.00    +0.000 A 
ATOM      2  C   UNL     1      -3.545  11.599  18.053  0.00  0.00    +0.000 A 
ATOM      3  C   UNL     1      -2.926  10.343  17.566  0.00  0.00    +0.000 A 
ATOM      4  C   UNL     1      -3.631   9.611  16.454  0.00  0.00    +0.000 C 
ATOM      5  N   UNL     1      -1.826   9.837  18.027  0.00  0.00    +0.000 NA
ATOM      6  C   UNL     1      -1.133  10.570  18.946  0.00  0.00    +0.000 A 
ATOM      7  C   UNL     1       0.151  10.438  19.451  0.00  0.00    +0.000 A 
ATOM      8  C   UNL     1       0.249  11.503  20.401  0.00  0.00    +0.000 A 
ATOM      9  C   UNL     1       1.396  11.887  21.278  0.00  0.00    +0.000 C 
ATOM     10  N   UNL     1      -0.866  12.242  20.478  0.00  0.00    +0.000 NA
ATOM     11  N   UNL     1      -1.686  11.717  19.520  0.00  0.00    +0.000 N 
ENDROOT
BRANCH   7  12
ATOM     12  C   UNL     1       1.082   9.362  19.082  0.00  0.00    +0.000 A 
ATOM     13  C   UNL     1       1.686   9.380  17.827  0.00  0.00    +0.000 A 
ATOM     14  N   UNL     1       2.589   8.473  17.359  0.00  0.00    +0.000 NA
ATOM     15  C   UNL     1       3.002   7.475  18.166  0.00  0.00    +0.000 A 
ATOM     16  C   UNL     1       2.451   7.390  19.439  0.00  0.00    +0.000 A 
ATOM     17  C   UNL     1       1.467   8.293  19.905  0.00  0.00    +0.000 A 
ATOM     18  C   UNL     1       0.961   8.032  21.298  0.00  0.00    +0.000 C 
BRANCH  15  19
ATOM     19  N   UNL     1       3.976   6.606  17.713  0.00  0.00    +0.000 N 
ATOM     20  C   UNL     1       4.353   5.473  18.549  0.00  0.00    +0.000 C 
ATOM     21  C   UNL     1       4.819   6.832  16.548  0.00  0.00    +0.000 C 
ENDBRANCH  15  19
ENDBRANCH   7  12
BRANCH   1  22
ATOM     22  N   UNL     1      -3.505  13.329  19.750  0.00  0.00    +0.000 N 
ATOM     23  H   UNL     1      -2.724  13.939  20.029  0.00  0.00    +0.000 HD
BRANCH  22  24
ATOM     24  C   UNL     1      -4.475  13.153  20.868  0.00  0.00    +0.000 C 
BRANCH  24  25
ATOM     25  C   UNL     1      -5.664  12.269  20.441  0.00  0.00    +0.000 C 
BRANCH  25  27
ATOM     26  C   UNL     1      -6.980  14.084  21.193  0.00  0.00    +0.000 C 
ATOM     27  O   UNL     1      -6.804  13.098  20.186  0.00  0.00    +0.000 OA
ENDBRANCH  25  27
ENDBRANCH  24  25
BRANCH  24  28
ATOM     28  C   UNL     1      -3.840  12.631  22.184  0.00  0.00    +0.000 C 
BRANCH  28  29
ATOM     29  C   UNL     1      -3.318  13.671  23.148  0.00  0.00    +0.000 A 
ATOM     30  C   UNL     1      -1.955  13.758  23.457  0.00  0.00    +0.000 A 
ATOM     31  C   UNL     1      -1.491  14.721  24.354  0.00  0.00    +0.000 A 
ATOM     32  C   UNL     1      -2.382  15.616  24.940  0.00  0.00    +0.000 A 
ATOM     33  C   UNL     1      -3.737  15.554  24.623  0.00  0.00    +0.000 A 
ATOM     34  C   UNL     1      -4.203  14.589  23.730  0.00  0.00    +0.000 A 
ENDBRANCH  28  29
ENDBRANCH  24  28
ENDBRANCH  22  24
ENDBRANCH   1  22
TORSDOF 8
ENDMDL
