MODEL 1
REMARK VINA RESULT:      -9.0      0.000      0.000
REMARK  Name = 
REMARK  6 active torsions:
REMARK  status: ('A' for Active; 'I' for Inactive)
REMARK    1  A    between atoms: C_6  and  C_7
REMARK    2  A    between atoms: C_10  and  C_11
REMARK    3  A    between atoms: C_14  and  C_15
REMARK    4  A    between atoms: C_15  and  C_16
REMARK    5  A    between atoms: C_16  and  C_17
REMARK    6  A    between atoms: C_17  and  C_18
REMARK                            x       y       z     vdW  Elec       q    Type
REMARK                         _______ _______ _______ _____ _____    ______ ____
ROOT
ATOM      1  C   UNL     1       1.878   5.664  20.305  0.00  0.00    +0.000 A 
ATOM      2  N   UNL     1       2.397   5.132  21.397  0.00  0.00    +0.000 NA
ATOM      3  N   UNL     1       2.292   3.768  21.259  0.00  0.00    +0.000 NA
ATOM      4  C   UNL     1       1.723   3.554  20.093  0.00  0.00    +0.000 A 
ATOM      5  O   UNL     1       1.419   4.715  19.423  0.00  0.00    +0.000 OA
ENDROOT
BRANCH   1   9
ATOM      6  C   UNL     1       1.280   9.817  19.364  0.00  0.00    +0.000 A 
ATOM      7  C   UNL     1       0.888   9.266  20.593  0.00  0.00    +0.000 A 
ATOM      8  C   UNL     1       1.120   7.924  20.895  0.00  0.00    +0.000 A 
ATOM      9  C   UNL     1       1.738   7.072  19.967  0.00  0.00    +0.000 A 
ATOM     10  C   UNL     1       2.151   7.609  18.747  0.00  0.00    +0.000 A 
ATOM     11  C   UNL     1       1.921   8.962  18.450  0.00  0.00    +0.000 A 
BRANCH   6  17
ATOM     12 CL   UNL     1       3.097  14.485  17.897  0.00  0.00    +0.000 Cl
ATOM     13  C   UNL     1       1.809  13.451  18.383  0.00  0.00    +0.000 A 
ATOM     14  C   UNL     1       0.525  13.970  18.514  0.00  0.00    +0.000 A 
ATOM     15  C   UNL     1      -0.514  13.136  18.911  0.00  0.00    +0.000 A 
ATOM     16  C   UNL     1      -0.258  11.793  19.184  0.00  0.00    +0.000 A 
ATOM     17  C   UNL     1       1.034  11.244  19.060  0.00  0.00    +0.000 A 
ATOM     18  C   UNL     1       2.065  12.105  18.646  0.00  0.00    +0.000 A 
ENDBRANCH   6  17
ENDBRANCH   1   9
BRANCH   4  19
ATOM     19  C   UNL     1       1.470   2.257  19.418  0.00  0.00    +0.000 C 
BRANCH  19  20
ATOM     20  C   UNL     1       2.302   2.077  18.149  0.00  0.00    +0.000 C 
BRANCH  20  21
ATOM     21  C   UNL     1       3.804   2.083  18.466  0.00  0.00    +0.000 C 
BRANCH  21  22
ATOM     22  C   UNL     1       4.460   3.371  18.036  0.00  0.00    +0.000 A 
ATOM     23  C   UNL     1       3.874   4.187  17.078  0.00  0.00    +0.000 A 
ATOM     24  C   UNL     1       4.494   5.391  16.772  0.00  0.00    +0.000 A 
ATOM     25  C   UNL     1       5.676   5.745  17.440  0.00  0.00    +0.000 A 
ATOM     26  C   UNL     1       6.327   6.966  17.204  0.00  0.00    +0.000 A 
ATOM     27  C   UNL     1       7.483   7.269  17.908  0.00  0.00    +0.000 A 
ATOM     28  C   UNL     1       7.945   6.332  18.807  0.00  0.00    +0.000 A 
ATOM     29  N   UNL     1       7.338   5.149  19.045  0.00  0.00    +0.000 NA
ATOM     30  C   UNL     1       6.216   4.855  18.386  0.00  0.00    +0.000 A 
ATOM     31  N   UNL     1       5.611   3.698  18.668  0.00  0.00    +0.000 NA
ENDBRANCH  21  22
ENDBRANCH  20  21
ENDBRANCH  19  20
ENDBRANCH   4  19
TORSDOF 6
ENDMDL
MODEL 2
REMARK VINA RESULT:      -8.9      3.142      3.683
REMARK  Name = 
REMARK  6 active torsions:
REMARK  status: ('A' for Active; 'I' for Inactive)
REMARK    1  A    between atoms: C_6  and  C_7
REMARK    2  A    between atoms: C_10  and  C_11
REMARK    3  A    between atoms: C_14  and  C_15
REMARK    4  A    between atoms: C_15  and  C_16
REMARK    5  A    between atoms: C_16  and  C_17
REMARK    6  A    between atoms: C_17  and  C_18
REMARK                            x       y       z     vdW  Elec       q    Type
REMARK                         _______ _______ _______ _____ _____    ______ ____
ROOT
ATOM      1  C   UNL     1       1.370   7.518  20.689  0.00  0.00    +0.000 A 
ATOM      2  N   UNL     1       2.411   7.440  19.879  0.00  0.00    +0.000 NA
ATOM      3  N   UNL     1       2.658   6.101  19.685  0.00  0.00    +0.000 NA
ATOM      4  C   UNL     1       1.752   5.450  20.381  0.00  0.00    +0.000 A 
ATOM      5  O   UNL     1       0.895   6.284  21.060  0.00  0.00    +0.000 OA
ENDROOT
BRANCH   1   9
ATOM      6  C   UNL     1      -0.685  10.937  22.298  0.00  0.00    +0.000 A 
ATOM      7  C   UNL     1      -0.455   9.778  23.056  0.00  0.00    +0.000 A 
ATOM      8  C   UNL     1       0.243   8.692  22.529  0.00  0.00    +0.000 A 
ATOM      9  C   UNL     1       0.723   8.712  21.211  0.00  0.00    +0.000 A 
ATOM     10  C   UNL     1       0.518   9.864  20.450  0.00  0.00    +0.000 A 
ATOM     11  C   UNL     1      -0.179  10.958  20.986  0.00  0.00    +0.000 A 
BRANCH   6  17
ATOM     12 CL   UNL     1      -5.071  12.915  24.322  0.00  0.00    +0.000 Cl
ATOM     13  C   UNL     1      -3.431  13.078  23.824  0.00  0.00    +0.000 A 
ATOM     14  C   UNL     1      -2.797  14.310  23.942  0.00  0.00    +0.000 A 
ATOM     15  C   UNL     1      -1.473  14.441  23.535  0.00  0.00    +0.000 A 
ATOM     16  C   UNL     1      -0.799  13.343  23.004  0.00  0.00    +0.000 A 
ATOM     17  C   UNL     1      -1.420  12.084  22.872  0.00  0.00    +0.000 A 
ATOM     18  C   UNL     1      -2.755  11.974  23.302  0.00  0.00    +0.000 A 
ENDBRANCH   6  17
ENDBRANCH   1   9
BRANCH   4  19
ATOM     19  C   UNL     1       1.514   3.986  20.437  0.00  0.00    +0.000 C 
BRANCH  19  20
ATOM     20  C   UNL     1       2.768   3.197  20.816  0.00  0.00    +0.000 C 
BRANCH  20  21
ATOM     21  C   UNL     1       3.354   2.471  19.597  0.00  0.00    +0.000 C 
BRANCH  21  22
ATOM     22  C   UNL     1       4.247   3.376  18.786  0.00  0.00    +0.000 A 
ATOM     23  C   UNL     1       3.994   3.612  17.442  0.00  0.00    +0.000 A 
ATOM     24  C   UNL     1       4.815   4.505  16.766  0.00  0.00    +0.000 A 
ATOM     25  C   UNL     1       5.858   5.139  17.457  0.00  0.00    +0.000 A 
ATOM     26  C   UNL     1       6.695   6.081  16.839  0.00  0.00    +0.000 A 
ATOM     27  C   UNL     1       7.698   6.690  17.579  0.00  0.00    +0.000 A 
ATOM     28  C   UNL     1       7.829   6.319  18.901  0.00  0.00    +0.000 A 
ATOM     29  N   UNL     1       7.038   5.411  19.513  0.00  0.00    +0.000 NA
ATOM     30  C   UNL     1       6.060   4.833  18.815  0.00  0.00    +0.000 A 
ATOM     31  N   UNL     1       5.265   3.969  19.452  0.00  0.00    +0.000 NA
ENDBRANCH  21  22
ENDBRANCH  20  21
ENDBRANCH  19  20
ENDBRANCH   4  19
TORSDOF 6
ENDMDL
MODEL 3
REMARK VINA RESULT:      -8.7      4.786      7.296
REMARK  Name = 
REMARK  6 active torsions:
REMARK  status: ('A' for Active; 'I' for Inactive)
REMARK    1  A    between atoms: C_6  and  C_7
REMARK    2  A    between atoms: C_10  and  C_11
REMARK    3  A    between atoms: C_14  and  C_15
REMARK    4  A    between atoms: C_15  and  C_16
REMARK    5  A    between atoms: C_16  and  C_17
REMARK    6  A    between atoms: C_17  and  C_18
REMARK                            x       y       z     vdW  Elec       q    Type
REMARK                         _______ _______ _______ _____ _____    ______ ____
ROOT
ATOM      1  C   UNL     1       8.086   8.363  18.186  0.00  0.00    +0.000 A 
ATOM      2  N   UNL     1       8.413   7.271  18.853  0.00  0.00    +0.000 NA
ATOM      3  N   UNL     1       7.627   6.257  18.358  0.00  0.00    +0.000 NA
ATOM      4  C   UNL     1       6.877   6.791  17.420  0.00  0.00    +0.000 A 
ATOM      5  O   UNL     1       7.104   8.137  17.253  0.00  0.00    +0.000 OA
ENDROOT
BRANCH   1   9
ATOM      6  C   UNL     1       9.617  12.330  18.832  0.00  0.00    +0.000 A 
ATOM      7  C   UNL     1       9.964  11.252  19.659  0.00  0.00    +0.000 A 
ATOM      8  C   UNL     1       9.486   9.964  19.415  0.00  0.00    +0.000 A 
ATOM      9  C   UNL     1       8.620   9.708  18.341  0.00  0.00    +0.000 A 
ATOM     10  C   UNL     1       8.279  10.766  17.498  0.00  0.00    +0.000 A 
ATOM     11  C   UNL     1       8.769  12.059  17.743  0.00  0.00    +0.000 A 
BRANCH   6  17
ATOM     12 CL   UNL     1      10.789  17.118  17.115  0.00  0.00    +0.000 Cl
ATOM     13  C   UNL     1      10.712  15.941  18.369  0.00  0.00    +0.000 A 
ATOM     14  C   UNL     1      11.167  16.264  19.643  0.00  0.00    +0.000 A 
ATOM     15  C   UNL     1      11.108  15.311  20.655  0.00  0.00    +0.000 A 
ATOM     16  C   UNL     1      10.604  14.041  20.381  0.00  0.00    +0.000 A 
ATOM     17  C   UNL     1      10.139  13.688  19.098  0.00  0.00    +0.000 A 
ATOM     18  C   UNL     1      10.198  14.672  18.095  0.00  0.00    +0.000 A 
ENDBRANCH   6  17
ENDBRANCH   1   9
BRANCH   4  19
ATOM     19  C   UNL     1       5.926   6.111  16.507  0.00  0.00    +0.000 C 
BRANCH  19  20
ATOM     20  C   UNL     1       6.078   4.590  16.520  0.00  0.00    +0.000 C 
BRANCH  20  21
ATOM     21  C   UNL     1       4.755   3.898  16.160  0.00  0.00    +0.000 C 
BRANCH  21  22
ATOM     22  C   UNL     1       3.772   3.947  17.302  0.00  0.00    +0.000 A 
ATOM     23  C   UNL     1       2.557   4.605  17.171  0.00  0.00    +0.000 A 
ATOM     24  C   UNL     1       1.668   4.559  18.237  0.00  0.00    +0.000 A 
ATOM     25  C   UNL     1       2.018   3.850  19.395  0.00  0.00    +0.000 A 
ATOM     26  C   UNL     1       1.145   3.734  20.489  0.00  0.00    +0.000 A 
ATOM     27  C   UNL     1       1.540   3.005  21.601  0.00  0.00    +0.000 A 
ATOM     28  C   UNL     1       2.795   2.435  21.577  0.00  0.00    +0.000 A 
ATOM     29  N   UNL     1       3.653   2.540  20.537  0.00  0.00    +0.000 NA
ATOM     30  C   UNL     1       3.276   3.225  19.457  0.00  0.00    +0.000 A 
ATOM     31  N   UNL     1       4.124   3.280  18.425  0.00  0.00    +0.000 NA
ENDBRANCH  21  22
ENDBRANCH  20  21
ENDBRANCH  19  20
ENDBRANCH   4  19
TORSDOF 6
ENDMDL
MODEL 4
REMARK VINA RESULT:      -8.7      2.779      3.268
REMARK  Name = 
REMARK  6 active torsions:
REMARK  status: ('A' for Active; 'I' for Inactive)
REMARK    1  A    between atoms: C_6  and  C_7
REMARK    2  A    between atoms: C_10  and  C_11
REMARK    3  A    between atoms: C_14  and  C_15
REMARK    4  A    between atoms: C_15  and  C_16
REMARK    5  A    between atoms: C_16  and  C_17
REMARK    6  A    between atoms: C_17  and  C_18
REMARK                            x       y       z     vdW  Elec       q    Type
REMARK                         _______ _______ _______ _____ _____    ______ ____
ROOT
ATOM      1  C   UNL     1       1.389   7.496  20.705  0.00  0.00    +0.000 A 
ATOM      2  N   UNL     1       2.395   7.386  19.855  0.00  0.00    +0.000 NA
ATOM      3  N   UNL     1       2.620   6.040  19.684  0.00  0.00    +0.000 NA
ATOM      4  C   UNL     1       1.737   5.416  20.432  0.00  0.00    +0.000 A 
ATOM      5  O   UNL     1       0.918   6.276  21.125  0.00  0.00    +0.000 OA
ENDROOT
BRANCH   1   9
ATOM      6  C   UNL     1      -0.584  10.983  22.269  0.00  0.00    +0.000 A 
ATOM      7  C   UNL     1      -0.609   9.748  22.935  0.00  0.00    +0.000 A 
ATOM      8  C   UNL     1       0.065   8.636  22.431  0.00  0.00    +0.000 A 
ATOM      9  C   UNL     1       0.777   8.709  21.225  0.00  0.00    +0.000 A 
ATOM     10  C   UNL     1       0.827   9.934  20.559  0.00  0.00    +0.000 A 
ATOM     11  C   UNL     1       0.154  11.054  21.073  0.00  0.00    +0.000 A 
BRANCH   6  17
ATOM     12 CL   UNL     1      -0.634  16.061  23.474  0.00  0.00    +0.000 Cl
ATOM     13  C   UNL     1      -1.393  14.517  23.409  0.00  0.00    +0.000 A 
ATOM     14  C   UNL     1      -2.685  14.367  23.903  0.00  0.00    +0.000 A 
ATOM     15  C   UNL     1      -3.296  13.118  23.855  0.00  0.00    +0.000 A 
ATOM     16  C   UNL     1      -2.607  12.030  23.324  0.00  0.00    +0.000 A 
ATOM     17  C   UNL     1      -1.296  12.156  22.819  0.00  0.00    +0.000 A 
ATOM     18  C   UNL     1      -0.705  13.430  22.868  0.00  0.00    +0.000 A 
ENDBRANCH   6  17
ENDBRANCH   1   9
BRANCH   4  19
ATOM     19  C   UNL     1       1.487   3.957  20.534  0.00  0.00    +0.000 C 
BRANCH  19  20
ATOM     20  C   UNL     1       2.744   3.165  20.894  0.00  0.00    +0.000 C 
BRANCH  20  21
ATOM     21  C   UNL     1       3.300   2.422  19.671  0.00  0.00    +0.000 C 
BRANCH  21  22
ATOM     22  C   UNL     1       4.209   3.301  18.850  0.00  0.00    +0.000 A 
ATOM     23  C   UNL     1       3.987   3.491  17.494  0.00  0.00    +0.000 A 
ATOM     24  C   UNL     1       4.822   4.363  16.807  0.00  0.00    +0.000 A 
ATOM     25  C   UNL     1       5.846   5.024  17.501  0.00  0.00    +0.000 A 
ATOM     26  C   UNL     1       6.695   5.947  16.871  0.00  0.00    +0.000 A 
ATOM     27  C   UNL     1       7.679   6.584  17.613  0.00  0.00    +0.000 A 
ATOM     28  C   UNL     1       7.780   6.259  18.949  0.00  0.00    +0.000 A 
ATOM     29  N   UNL     1       6.977   5.369  19.573  0.00  0.00    +0.000 NA
ATOM     30  C   UNL     1       6.017   4.764  18.872  0.00  0.00    +0.000 A 
ATOM     31  N   UNL     1       5.209   3.920  19.520  0.00  0.00    +0.000 NA
ENDBRANCH  21  22
ENDBRANCH  20  21
ENDBRANCH  19  20
ENDBRANCH   4  19
TORSDOF 6
ENDMDL
MODEL 5
REMARK VINA RESULT:      -8.6      4.580      7.305
REMARK  Name = 
REMARK  6 active torsions:
REMARK  status: ('A' for Active; 'I' for Inactive)
REMARK    1  A    between atoms: C_6  and  C_7
REMARK    2  A    between atoms: C_10  and  C_11
REMARK    3  A    between atoms: C_14  and  C_15
REMARK    4  A    between atoms: C_15  and  C_16
REMARK    5  A    between atoms: C_16  and  C_17
REMARK    6  A    between atoms: C_17  and  C_18
REMARK                            x       y       z     vdW  Elec       q    Type
REMARK                         _______ _______ _______ _____ _____    ______ ____
ROOT
ATOM      1  C   UNL     1       8.180   8.286  18.183  0.00  0.00    +0.000 A 
ATOM      2  N   UNL     1       8.356   7.223  18.949  0.00  0.00    +0.000 NA
ATOM      3  N   UNL     1       7.772   6.165  18.294  0.00  0.00    +0.000 NA
ATOM      4  C   UNL     1       7.284   6.644  17.171  0.00  0.00    +0.000 A 
ATOM      5  O   UNL     1       7.495   7.995  17.028  0.00  0.00    +0.000 OA
ENDROOT
BRANCH   1   9
ATOM      6  C   UNL     1       9.484  12.346  18.738  0.00  0.00    +0.000 A 
ATOM      7  C   UNL     1       8.693  11.958  17.647  0.00  0.00    +0.000 A 
ATOM      8  C   UNL     1       8.250  10.643  17.500  0.00  0.00    +0.000 A 
ATOM      9  C   UNL     1       8.600   9.656  18.433  0.00  0.00    +0.000 A 
ATOM     10  C   UNL     1       9.372  10.029  19.534  0.00  0.00    +0.000 A 
ATOM     11  C   UNL     1       9.810  11.354  19.682  0.00  0.00    +0.000 A 
BRANCH   6  17
ATOM     12 CL   UNL     1       8.508  17.460  18.366  0.00  0.00    +0.000 Cl
ATOM     13  C   UNL     1       9.558  16.146  18.736  0.00  0.00    +0.000 A 
ATOM     14  C   UNL     1      10.859  16.405  19.155  0.00  0.00    +0.000 A 
ATOM     15  C   UNL     1      11.708  15.343  19.449  0.00  0.00    +0.000 A 
ATOM     16  C   UNL     1      11.252  14.034  19.311  0.00  0.00    +0.000 A 
ATOM     17  C   UNL     1       9.940  13.745  18.885  0.00  0.00    +0.000 A 
ATOM     18  C   UNL     1       9.097  14.835  18.606  0.00  0.00    +0.000 A 
ENDBRANCH   6  17
ENDBRANCH   1   9
BRANCH   4  19
ATOM     19  C   UNL     1       6.641   5.903  16.059  0.00  0.00    +0.000 C 
BRANCH  19  20
ATOM     20  C   UNL     1       5.178   6.298  15.852  0.00  0.00    +0.000 C 
BRANCH  20  21
ATOM     21  C   UNL     1       4.507   6.657  17.185  0.00  0.00    +0.000 C 
BRANCH  21  22
ATOM     22  C   UNL     1       3.769   5.481  17.772  0.00  0.00    +0.000 A 
ATOM     23  C   UNL     1       3.523   4.342  17.019  0.00  0.00    +0.000 A 
ATOM     24  C   UNL     1       2.895   3.268  17.636  0.00  0.00    +0.000 A 
ATOM     25  C   UNL     1       2.540   3.365  18.990  0.00  0.00    +0.000 A 
ATOM     26  C   UNL     1       1.940   2.299  19.679  0.00  0.00    +0.000 A 
ATOM     27  C   UNL     1       1.628   2.447  21.023  0.00  0.00    +0.000 A 
ATOM     28  C   UNL     1       1.917   3.658  21.615  0.00  0.00    +0.000 A 
ATOM     29  N   UNL     1       2.489   4.698  20.968  0.00  0.00    +0.000 NA
ATOM     30  C   UNL     1       2.808   4.560  19.680  0.00  0.00    +0.000 A 
ATOM     31  N   UNL     1       3.409   5.587  19.073  0.00  0.00    +0.000 NA
ENDBRANCH  21  22
ENDBRANCH  20  21
ENDBRANCH  19  20
ENDBRANCH   4  19
TORSDOF 6
ENDMDL
MODEL 6
REMARK VINA RESULT:      -8.5      1.123      1.322
REMARK  Name = 
REMARK  6 active torsions:
REMARK  status: ('A' for Active; 'I' for Inactive)
REMARK    1  A    between atoms: C_6  and  C_7
REMARK    2  A    between atoms: C_10  and  C_11
REMARK    3  A    between atoms: C_14  and  C_15
REMARK    4  A    between atoms: C_15  and  C_16
REMARK    5  A    between atoms: C_16  and  C_17
REMARK    6  A    between atoms: C_17  and  C_18
REMARK                            x       y       z     vdW  Elec       q    Type
REMARK                         _______ _______ _______ _____ _____    ______ ____
ROOT
ATOM      1  C   UNL     1       1.850   5.523  20.411  0.00  0.00    +0.000 A 
ATOM      2  N   UNL     1       2.369   4.882  21.444  0.00  0.00    +0.000 NA
ATOM      3  N   UNL     1       2.264   3.539  21.167  0.00  0.00    +0.000 NA
ATOM      4  C   UNL     1       1.696   3.445  19.985  0.00  0.00    +0.000 A 
ATOM      5  O   UNL     1       1.392   4.669  19.437  0.00  0.00    +0.000 OA
ENDROOT
BRANCH   1   9
ATOM      6  C   UNL     1       1.249   9.750  19.898  0.00  0.00    +0.000 A 
ATOM      7  C   UNL     1       0.843   9.073  21.058  0.00  0.00    +0.000 A 
ATOM      8  C   UNL     1       1.077   7.708  21.222  0.00  0.00    +0.000 A 
ATOM      9  C   UNL     1       1.709   6.958  20.220  0.00  0.00    +0.000 A 
ATOM     10  C   UNL     1       2.135   7.619  19.067  0.00  0.00    +0.000 A 
ATOM     11  C   UNL     1       1.905   8.995  18.908  0.00  0.00    +0.000 A 
BRANCH   6  17
ATOM     12 CL   UNL     1      -0.793  14.193  21.725  0.00  0.00    +0.000 Cl
ATOM     13  C   UNL     1       0.075  13.310  20.528  0.00  0.00    +0.000 A 
ATOM     14  C   UNL     1       0.530  13.965  19.388  0.00  0.00    +0.000 A 
ATOM     15  C   UNL     1       1.227  13.250  18.420  0.00  0.00    +0.000 A 
ATOM     16  C   UNL     1       1.454  11.886  18.595  0.00  0.00    +0.000 A 
ATOM     17  C   UNL     1       1.002  11.200  19.740  0.00  0.00    +0.000 A 
ATOM     18  C   UNL     1       0.310  11.946  20.710  0.00  0.00    +0.000 A 
ENDBRANCH   6  17
ENDBRANCH   1   9
BRANCH   4  19
ATOM     19  C   UNL     1       1.444   2.224  19.181  0.00  0.00    +0.000 C 
BRANCH  19  20
ATOM     20  C   UNL     1       2.330   2.139  17.938  0.00  0.00    +0.000 C 
BRANCH  20  21
ATOM     21  C   UNL     1       3.817   2.136  18.317  0.00  0.00    +0.000 C 
BRANCH  21  22
ATOM     22  C   UNL     1       4.494   3.427  17.931  0.00  0.00    +0.000 A 
ATOM     23  C   UNL     1       3.935   4.271  16.982  0.00  0.00    +0.000 A 
ATOM     24  C   UNL     1       4.573   5.476  16.717  0.00  0.00    +0.000 A 
ATOM     25  C   UNL     1       5.745   5.801  17.415  0.00  0.00    +0.000 A 
ATOM     26  C   UNL     1       6.413   7.021  17.220  0.00  0.00    +0.000 A 
ATOM     27  C   UNL     1       7.558   7.295  17.953  0.00  0.00    +0.000 A 
ATOM     28  C   UNL     1       7.994   6.332  18.838  0.00  0.00    +0.000 A 
ATOM     29  N   UNL     1       7.370   5.150  19.036  0.00  0.00    +0.000 NA
ATOM     30  C   UNL     1       6.258   4.884  18.349  0.00  0.00    +0.000 A 
ATOM     31  N   UNL     1       5.636   3.727  18.592  0.00  0.00    +0.000 NA
ENDBRANCH  21  22
ENDBRANCH  20  21
ENDBRANCH  19  20
ENDBRANCH   4  19
TORSDOF 6
ENDMDL
MODEL 7
REMARK VINA RESULT:      -8.4      3.293      4.039
REMARK  Name = 
REMARK  6 active torsions:
REMARK  status: ('A' for Active; 'I' for Inactive)
REMARK    1  A    between atoms: C_6  and  C_7
REMARK    2  A    between atoms: C_10  and  C_11
REMARK    3  A    between atoms: C_14  and  C_15
REMARK    4  A    between atoms: C_15  and  C_16
REMARK    5  A    between atoms: C_16  and  C_17
REMARK    6  A    between atoms: C_17  and  C_18
REMARK                            x       y       z     vdW  Elec       q    Type
REMARK                         _______ _______ _______ _____ _____    ______ ____
ROOT
ATOM      1  C   UNL     1       1.081   8.353  20.801  0.00  0.00    +0.000 A 
ATOM      2  N   UNL     1       1.786   8.319  19.685  0.00  0.00    +0.000 NA
ATOM      3  N   UNL     1       2.314   7.053  19.591  0.00  0.00    +0.000 NA
ATOM      4  C   UNL     1       1.895   6.394  20.648  0.00  0.00    +0.000 A 
ATOM      5  O   UNL     1       1.107   7.157  21.478  0.00  0.00    +0.000 OA
ENDROOT
BRANCH   1   9
ATOM      6  C   UNL     1      -1.261  11.527  22.515  0.00  0.00    +0.000 A 
ATOM      7  C   UNL     1      -0.971  10.348  23.219  0.00  0.00    +0.000 A 
ATOM      8  C   UNL     1      -0.182   9.343  22.660  0.00  0.00    +0.000 A 
ATOM      9  C   UNL     1       0.335   9.469  21.362  0.00  0.00    +0.000 A 
ATOM     10  C   UNL     1       0.071  10.642  20.656  0.00  0.00    +0.000 A 
ATOM     11  C   UNL     1      -0.718  11.655  21.224  0.00  0.00    +0.000 A 
BRANCH   6  17
ATOM     12 CL   UNL     1      -1.965  16.554  23.729  0.00  0.00    +0.000 Cl
ATOM     13  C   UNL     1      -2.491  14.915  23.723  0.00  0.00    +0.000 A 
ATOM     14  C   UNL     1      -3.703  14.581  24.318  0.00  0.00    +0.000 A 
ATOM     15  C   UNL     1      -4.124  13.255  24.317  0.00  0.00    +0.000 A 
ATOM     16  C   UNL     1      -3.326  12.275  23.730  0.00  0.00    +0.000 A 
ATOM     17  C   UNL     1      -2.093  12.588  23.123  0.00  0.00    +0.000 A 
ATOM     18  C   UNL     1      -1.694  13.936  23.127  0.00  0.00    +0.000 A 
ENDBRANCH   6  17
ENDBRANCH   1   9
BRANCH   4  19
ATOM     19  C   UNL     1       2.097   4.962  20.979  0.00  0.00    +0.000 C 
BRANCH  19  20
ATOM     20  C   UNL     1       1.137   4.040  20.227  0.00  0.00    +0.000 C 
BRANCH  20  21
ATOM     21  C   UNL     1       1.871   2.811  19.672  0.00  0.00    +0.000 C 
BRANCH  21  22
ATOM     22  C   UNL     1       2.932   3.199  18.674  0.00  0.00    +0.000 A 
ATOM     23  C   UNL     1       2.653   3.246  17.315  0.00  0.00    +0.000 A 
ATOM     24  C   UNL     1       3.655   3.673  16.453  0.00  0.00    +0.000 A 
ATOM     25  C   UNL     1       4.901   4.046  16.978  0.00  0.00    +0.000 A 
ATOM     26  C   UNL     1       5.940   4.523  16.163  0.00  0.00    +0.000 A 
ATOM     27  C   UNL     1       7.144   4.894  16.741  0.00  0.00    +0.000 A 
ATOM     28  C   UNL     1       7.263   4.759  18.108  0.00  0.00    +0.000 A 
ATOM     29  N   UNL     1       6.279   4.296  18.910  0.00  0.00    +0.000 NA
ATOM     30  C   UNL     1       5.111   3.952  18.366  0.00  0.00    +0.000 A 
ATOM     31  N   UNL     1       4.140   3.537  19.183  0.00  0.00    +0.000 NA
ENDBRANCH  21  22
ENDBRANCH  20  21
ENDBRANCH  19  20
ENDBRANCH   4  19
TORSDOF 6
ENDMDL
MODEL 8
REMARK VINA RESULT:      -8.4      4.820      7.402
REMARK  Name = 
REMARK  6 active torsions:
REMARK  status: ('A' for Active; 'I' for Inactive)
REMARK    1  A    between atoms: C_6  and  C_7
REMARK    2  A    between atoms: C_10  and  C_11
REMARK    3  A    between atoms: C_14  and  C_15
REMARK    4  A    between atoms: C_15  and  C_16
REMARK    5  A    between atoms: C_16  and  C_17
REMARK    6  A    between atoms: C_17  and  C_18
REMARK                            x       y       z     vdW  Elec       q    Type
REMARK                         _______ _______ _______ _____ _____    ______ ____
ROOT
ATOM      1  C   UNL     1       8.164   8.409  18.196  0.00  0.00    +0.000 A 
ATOM      2  N   UNL     1       8.423   7.324  18.903  0.00  0.00    +0.000 NA
ATOM      3  N   UNL     1       7.714   6.298  18.324  0.00  0.00    +0.000 NA
ATOM      4  C   UNL     1       7.073   6.818  17.301  0.00  0.00    +0.000 A 
ATOM      5  O   UNL     1       7.301   8.166  17.154  0.00  0.00    +0.000 OA
ENDROOT
BRANCH   1   9
ATOM      6  C   UNL     1       9.554  12.400  18.994  0.00  0.00    +0.000 A 
ATOM      7  C   UNL     1       9.791  11.336  19.876  0.00  0.00    +0.000 A 
ATOM      8  C   UNL     1       9.363  10.040  19.586  0.00  0.00    +0.000 A 
ATOM      9  C   UNL     1       8.658   9.761  18.405  0.00  0.00    +0.000 A 
ATOM     10  C   UNL     1       8.429  10.805  17.508  0.00  0.00    +0.000 A 
ATOM     11  C   UNL     1       8.868  12.106  17.801  0.00  0.00    +0.000 A 
BRANCH   6  17
ATOM     12 CL   UNL     1      10.698  17.244  17.423  0.00  0.00    +0.000 Cl
ATOM     13  C   UNL     1      10.575  16.045  18.653  0.00  0.00    +0.000 A 
ATOM     14  C   UNL     1      10.943  16.360  19.957  0.00  0.00    +0.000 A 
ATOM     15  C   UNL     1      10.848  15.389  20.949  0.00  0.00    +0.000 A 
ATOM     16  C   UNL     1      10.397  14.111  20.626  0.00  0.00    +0.000 A 
ATOM     17  C   UNL     1      10.021  13.767  19.311  0.00  0.00    +0.000 A 
ATOM     18  C   UNL     1      10.114  14.768  18.329  0.00  0.00    +0.000 A 
ENDBRANCH   6  17
ENDBRANCH   1   9
BRANCH   4  19
ATOM     19  C   UNL     1       6.245   6.122  16.285  0.00  0.00    +0.000 C 
BRANCH  19  20
ATOM     20  C   UNL     1       4.796   6.610  16.268  0.00  0.00    +0.000 C 
BRANCH  20  21
ATOM     21  C   UNL     1       4.304   6.934  17.685  0.00  0.00    +0.000 C 
BRANCH  21  22
ATOM     22  C   UNL     1       3.359   5.879  18.202  0.00  0.00    +0.000 A 
ATOM     23  C   UNL     1       2.481   5.226  17.349  0.00  0.00    +0.000 A 
ATOM     24  C   UNL     1       1.682   4.219  17.874  0.00  0.00    +0.000 A 
ATOM     25  C   UNL     1       1.793   3.891  19.233  0.00  0.00    +0.000 A 
ATOM     26  C   UNL     1       1.042   2.856  19.813  0.00  0.00    +0.000 A 
ATOM     27  C   UNL     1       1.208   2.565  21.158  0.00  0.00    +0.000 A 
ATOM     28  C   UNL     1       2.107   3.331  21.870  0.00  0.00    +0.000 A 
ATOM     29  N   UNL     1       2.835   4.335  21.333  0.00  0.00    +0.000 NA
ATOM     30  C   UNL     1       2.695   4.612  20.036  0.00  0.00    +0.000 A 
ATOM     31  N   UNL     1       3.455   5.581  19.518  0.00  0.00    +0.000 NA
ENDBRANCH  21  22
ENDBRANCH  20  21
ENDBRANCH  19  20
ENDBRANCH   4  19
TORSDOF 6
ENDMDL
MODEL 9
REMARK VINA RESULT:      -8.4      4.482      9.472
REMARK  Name = 
REMARK  6 active torsions:
REMARK  status: ('A' for Active; 'I' for Inactive)
REMARK    1  A    between atoms: C_6  and  C_7
REMARK    2  A    between atoms: C_10  and  C_11
REMARK    3  A    between atoms: C_14  and  C_15
REMARK    4  A    between atoms: C_15  and  C_16
REMARK    5  A    between atoms: C_16  and  C_17
REMARK    6  A    between atoms: C_17  and  C_18
REMARK                            x       y       z     vdW  Elec       q    Type
REMARK                         _______ _______ _______ _____ _____    ______ ____
ROOT
ATOM      1  C   UNL     1       2.746   6.294  19.195  0.00  0.00    +0.000 A 
ATOM      2  N   UNL     1       2.402   5.616  20.276  0.00  0.00    +0.000 NA
ATOM      3  N   UNL     1       1.660   6.471  21.057  0.00  0.00    +0.000 NA
ATOM      4  C   UNL     1       1.593   7.610  20.403  0.00  0.00    +0.000 A 
ATOM      5  O   UNL     1       2.269   7.583  19.206  0.00  0.00    +0.000 OA
ENDROOT
BRANCH   1   9
ATOM      6  C   UNL     1       5.023   5.097  15.748  0.00  0.00    +0.000 A 
ATOM      7  C   UNL     1       4.910   6.439  16.139  0.00  0.00    +0.000 A 
ATOM      8  C   UNL     1       4.195   6.807  17.280  0.00  0.00    +0.000 A 
ATOM      9  C   UNL     1       3.545   5.844  18.065  0.00  0.00    +0.000 A 
ATOM     10  C   UNL     1       3.663   4.502  17.701  0.00  0.00    +0.000 A 
ATOM     11  C   UNL     1       4.389   4.136  16.556  0.00  0.00    +0.000 A 
BRANCH   6  17
ATOM     12 CL   UNL     1       5.494   2.194  11.436  0.00  0.00    +0.000 Cl
ATOM     13  C   UNL     1       6.080   3.402  12.514  0.00  0.00    +0.000 A 
ATOM     14  C   UNL     1       7.302   4.015  12.259  0.00  0.00    +0.000 A 
ATOM     15  C   UNL     1       7.776   4.988  13.133  0.00  0.00    +0.000 A 
ATOM     16  C   UNL     1       7.030   5.330  14.259  0.00  0.00    +0.000 A 
ATOM     17  C   UNL     1       5.790   4.721  14.541  0.00  0.00    +0.000 A 
ATOM     18  C   UNL     1       5.327   3.750  13.637  0.00  0.00    +0.000 A 
ENDBRANCH   6  17
ENDBRANCH   1   9
BRANCH   4  19
ATOM     19  C   UNL     1       0.829   8.831  20.761  0.00  0.00    +0.000 C 
BRANCH  19  20
ATOM     20  C   UNL     1       1.067   9.984  19.786  0.00  0.00    +0.000 C 
BRANCH  20  21
ATOM     21  C   UNL     1       0.136  11.167  20.089  0.00  0.00    +0.000 C 
BRANCH  21  22
ATOM     22  C   UNL     1      -1.076  11.166  19.193  0.00  0.00    +0.000 A 
ATOM     23  C   UNL     1      -1.076  10.474  17.991  0.00  0.00    +0.000 A 
ATOM     24  C   UNL     1      -2.245  10.460  17.241  0.00  0.00    +0.000 A 
ATOM     25  C   UNL     1      -3.379  11.131  17.721  0.00  0.00    +0.000 A 
ATOM     26  C   UNL     1      -4.600  11.119  17.029  0.00  0.00    +0.000 A 
ATOM     27  C   UNL     1      -5.692  11.786  17.563  0.00  0.00    +0.000 A 
ATOM     28  C   UNL     1      -5.513  12.448  18.759  0.00  0.00    +0.000 A 
ATOM     29  N   UNL     1      -4.345  12.477  19.438  0.00  0.00    +0.000 NA
ATOM     30  C   UNL     1      -3.293  11.825  18.942  0.00  0.00    +0.000 A 
ATOM     31  N   UNL     1      -2.161  11.834  19.651  0.00  0.00    +0.000 NA
ENDBRANCH  21  22
ENDBRANCH  20  21
ENDBRANCH  19  20
ENDBRANCH   4  19
TORSDOF 6
ENDMDL
