MODEL 1
REMARK VINA RESULT:      -7.9      0.000      0.000
REMARK  Name = 
REMARK  10 active torsions:
REMARK  status: ('A' for Active; 'I' for Inactive)
REMARK    1  A    between atoms: C_1  and  O_2
REMARK    2  A    between atoms: O_2  and  C_3
REMARK    3  A    between atoms: C_8  and  C_9
REMARK    4  A    between atoms: C_10  and  C_11
REMARK    5  A    between atoms: C_17  and  C_18
REMARK    6  A    between atoms: C_21  and  O_22
REMARK    7  A    between atoms: O_22  and  C_23
REMARK    8  A    between atoms: C_23  and  C_24
REMARK    9  A    between atoms: N_26  and  N_27
REMARK   10  A    between atoms: C_29  and  O_30
REMARK                            x       y       z     vdW  Elec       q    Type
REMARK                         _______ _______ _______ _____ _____    ______ ____
ROOT
ATOM      1  C   UNL     1       4.186   5.263  17.841  0.00  0.00    +0.000 A 
ATOM      2  C   UNL     1       3.818   3.932  17.433  0.00  0.00    +0.000 A 
ATOM      3  N   UNL     1       4.903   3.242  17.021  0.00  0.00    +0.000 NA
ATOM      4  N   UNL     1       5.920   4.087  17.199  0.00  0.00    +0.000 N 
ATOM      5  C   UNL     1       5.573   5.327  17.668  0.00  0.00    +0.000 A 
ATOM      6  H   UNL     1       6.865   3.762  17.015  0.00  0.00    +0.000 HD
ENDROOT
BRANCH   1  12
ATOM      7  C   UNL     1       2.786   6.293  19.673  0.00  0.00    +0.000 A 
ATOM      8  C   UNL     1       1.977   7.352  20.114  0.00  0.00    +0.000 A 
ATOM      9  C   UNL     1       1.674   8.422  19.270  0.00  0.00    +0.000 A 
ATOM     10  C   UNL     1       2.214   8.473  17.993  0.00  0.00    +0.000 A 
ATOM     11  C   UNL     1       3.084   7.467  17.572  0.00  0.00    +0.000 A 
ATOM     12  C   UNL     1       3.359   6.350  18.384  0.00  0.00    +0.000 A 
BRANCH   7  14
ATOM     13  C   UNL     1       1.986   4.582  21.139  0.00  0.00    +0.000 C 
ATOM     14  O   UNL     1       3.064   5.185  20.432  0.00  0.00    +0.000 OA
ENDBRANCH   7  14
ENDBRANCH   1  12
BRANCH   5  15
ATOM     15  C   UNL     1       6.609   6.356  17.903  0.00  0.00    +0.000 A 
ATOM     16  C   UNL     1       6.619   7.537  17.154  0.00  0.00    +0.000 A 
ATOM     17  C   UNL     1       7.523   8.566  17.439  0.00  0.00    +0.000 A 
ATOM     18  C   UNL     1       8.469   8.421  18.452  0.00  0.00    +0.000 A 
ATOM     19  C   UNL     1       8.529   7.227  19.165  0.00  0.00    +0.000 A 
ATOM     20  C   UNL     1       7.603   6.210  18.891  0.00  0.00    +0.000 A 
BRANCH  20  21
ATOM     21  O   UNL     1       7.680   5.037  19.603  0.00  0.00    +0.000 OA
ATOM     22  H   UNL     1       7.196   5.135  20.440  0.00  0.00    +0.000 HD
ENDBRANCH  20  21
BRANCH  18  23
ATOM     23  O   UNL     1       9.308   9.488  18.601  0.00  0.00    +0.000 OA
BRANCH  23  24
ATOM     24  C   UNL     1       8.812  10.764  18.209  0.00  0.00    +0.000 C 
BRANCH  24  25
ATOM     25  C   UNL     1       9.948  11.789  18.180  0.00  0.00    +0.000 C 
ATOM     26  O   UNL     1       9.910  12.841  18.812  0.00  0.00    +0.000 OA
ATOM     27  N   UNL     1      11.030  11.413  17.386  0.00  0.00    +0.000 N 
ATOM     28  H   UNL     1      11.039  10.466  17.000  0.00  0.00    +0.000 HD
BRANCH  27  29
ATOM     29  N   UNL     1      12.198  12.198  17.364  0.00  0.00    +0.000 NA
ATOM     30  H   UNL     1      12.126  12.825  16.551  0.00  0.00    +0.000 HD
ATOM     31  H   UNL     1      12.983  11.581  17.135  0.00  0.00    +0.000 HD
ENDBRANCH  27  29
ENDBRANCH  24  25
ENDBRANCH  23  24
ENDBRANCH  18  23
ENDBRANCH   5  15
BRANCH   2  32
ATOM     32  C   UNL     1       2.462   3.264  17.445  0.00  0.00    +0.000 C 
ATOM     33  F   UNL     1       2.323   2.263  16.533  0.00  0.00    +0.000 F 
ATOM     34  F   UNL     1       2.158   2.732  18.663  0.00  0.00    +0.000 F 
ATOM     35  F   UNL     1       1.460   4.145  17.159  0.00  0.00    +0.000 F 
ENDBRANCH   2  32
TORSDOF 9
ENDMDL
MODEL 2
REMARK VINA RESULT:      -7.8      4.294      6.942
REMARK  Name = 
REMARK  10 active torsions:
REMARK  status: ('A' for Active; 'I' for Inactive)
REMARK    1  A    between atoms: C_1  and  O_2
REMARK    2  A    between atoms: O_2  and  C_3
REMARK    3  A    between atoms: C_8  and  C_9
REMARK    4  A    between atoms: C_10  and  C_11
REMARK    5  A    between atoms: C_17  and  C_18
REMARK    6  A    between atoms: C_21  and  O_22
REMARK    7  A    between atoms: O_22  and  C_23
REMARK    8  A    between atoms: C_23  and  C_24
REMARK    9  A    between atoms: N_26  and  N_27
REMARK   10  A    between atoms: C_29  and  O_30
REMARK                            x       y       z     vdW  Elec       q    Type
REMARK                         _______ _______ _______ _____ _____    ______ ____
ROOT
ATOM      1  C   UNL     1       4.345   5.296  17.007  0.00  0.00    +0.000 A 
ATOM      2  C   UNL     1       5.211   5.512  15.876  0.00  0.00    +0.000 A 
ATOM      3  N   UNL     1       5.221   6.817  15.526  0.00  0.00    +0.000 NA
ATOM      4  N   UNL     1       4.429   7.406  16.422  0.00  0.00    +0.000 N 
ATOM      5  C   UNL     1       3.847   6.562  17.332  0.00  0.00    +0.000 A 
ATOM      6  H   UNL     1       4.331   8.418  16.399  0.00  0.00    +0.000 HD
ENDROOT
BRANCH   1  12
ATOM      7  C   UNL     1       4.763   3.679  18.901  0.00  0.00    +0.000 A 
ATOM      8  C   UNL     1       4.446   2.469  19.539  0.00  0.00    +0.000 A 
ATOM      9  C   UNL     1       3.484   1.609  19.006  0.00  0.00    +0.000 A 
ATOM     10  C   UNL     1       2.791   1.969  17.858  0.00  0.00    +0.000 A 
ATOM     11  C   UNL     1       3.039   3.205  17.262  0.00  0.00    +0.000 A 
ATOM     12  C   UNL     1       4.046   4.063  17.747  0.00  0.00    +0.000 A 
BRANCH   7  14
ATOM     13  C   UNL     1       6.999   4.492  18.670  0.00  0.00    +0.000 C 
ATOM     14  O   UNL     1       5.744   4.532  19.339  0.00  0.00    +0.000 OA
ENDBRANCH   7  14
ENDBRANCH   1  12
BRANCH   5  15
ATOM     15  C   UNL     1       2.943   7.093  18.375  0.00  0.00    +0.000 A 
ATOM     16  C   UNL     1       2.725   6.378  19.557  0.00  0.00    +0.000 A 
ATOM     17  C   UNL     1       1.961   6.916  20.598  0.00  0.00    +0.000 A 
ATOM     18  C   UNL     1       1.361   8.166  20.465  0.00  0.00    +0.000 A 
ATOM     19  C   UNL     1       1.501   8.868  19.272  0.00  0.00    +0.000 A 
ATOM     20  C   UNL     1       2.289   8.334  18.242  0.00  0.00    +0.000 A 
BRANCH  20  21
ATOM     21  O   UNL     1       2.412   9.040  17.069  0.00  0.00    +0.000 OA
ATOM     22  H   UNL     1       3.026   9.781  17.202  0.00  0.00    +0.000 HD
ENDBRANCH  20  21
BRANCH  18  23
ATOM     23  O   UNL     1       0.619   8.557  21.543  0.00  0.00    +0.000 OA
BRANCH  23  24
ATOM     24  C   UNL     1      -0.348   9.580  21.330  0.00  0.00    +0.000 C 
BRANCH  24  25
ATOM     25  C   UNL     1      -0.461  10.471  22.569  0.00  0.00    +0.000 C 
ATOM     26  O   UNL     1      -0.020  10.141  23.667  0.00  0.00    +0.000 OA
ATOM     27  N   UNL     1      -1.093  11.690  22.335  0.00  0.00    +0.000 N 
ATOM     28  H   UNL     1      -1.312  11.943  21.368  0.00  0.00    +0.000 HD
BRANCH  27  29
ATOM     29  N   UNL     1      -1.155  12.662  23.351  0.00  0.00    +0.000 NA
ATOM     30  H   UNL     1      -0.246  13.144  23.365  0.00  0.00    +0.000 HD
ATOM     31  H   UNL     1      -1.192  12.172  24.250  0.00  0.00    +0.000 HD
ENDBRANCH  27  29
ENDBRANCH  24  25
ENDBRANCH  23  24
ENDBRANCH  18  23
ENDBRANCH   5  15
BRANCH   2  32
ATOM     32  C   UNL     1       6.067   4.524  15.119  0.00  0.00    +0.000 C 
ATOM     33  F   UNL     1       5.719   4.368  13.811  0.00  0.00    +0.000 F 
ATOM     34  F   UNL     1       7.387   4.861  15.137  0.00  0.00    +0.000 F 
ATOM     35  F   UNL     1       5.991   3.271  15.656  0.00  0.00    +0.000 F 
ENDBRANCH   2  32
TORSDOF 9
ENDMDL
MODEL 3
REMARK VINA RESULT:      -7.8      4.593      6.630
REMARK  Name = 
REMARK  10 active torsions:
REMARK  status: ('A' for Active; 'I' for Inactive)
REMARK    1  A    between atoms: C_1  and  O_2
REMARK    2  A    between atoms: O_2  and  C_3
REMARK    3  A    between atoms: C_8  and  C_9
REMARK    4  A    between atoms: C_10  and  C_11
REMARK    5  A    between atoms: C_17  and  C_18
REMARK    6  A    between atoms: C_21  and  O_22
REMARK    7  A    between atoms: O_22  and  C_23
REMARK    8  A    between atoms: C_23  and  C_24
REMARK    9  A    between atoms: N_26  and  N_27
REMARK   10  A    between atoms: C_29  and  O_30
REMARK                            x       y       z     vdW  Elec       q    Type
REMARK                         _______ _______ _______ _____ _____    ______ ____
ROOT
ATOM      1  C   UNL     1       3.603   4.648  18.677  0.00  0.00    +0.000 A 
ATOM      2  C   UNL     1       3.088   3.306  18.770  0.00  0.00    +0.000 A 
ATOM      3  N   UNL     1       1.760   3.321  19.016  0.00  0.00    +0.000 NA
ATOM      4  N   UNL     1       1.442   4.617  19.035  0.00  0.00    +0.000 N 
ATOM      5  C   UNL     1       2.493   5.479  18.861  0.00  0.00    +0.000 A 
ATOM      6  H   UNL     1       0.466   4.880  19.142  0.00  0.00    +0.000 HD
ENDROOT
BRANCH   1  12
ATOM      7  C   UNL     1       5.466   5.248  17.081  0.00  0.00    +0.000 A 
ATOM      8  C   UNL     1       6.790   5.672  16.885  0.00  0.00    +0.000 A 
ATOM      9  C   UNL     1       7.637   5.898  17.972  0.00  0.00    +0.000 A 
ATOM     10  C   UNL     1       7.160   5.752  19.267  0.00  0.00    +0.000 A 
ATOM     11  C   UNL     1       5.823   5.409  19.474  0.00  0.00    +0.000 A 
ATOM     12  C   UNL     1       4.966   5.120  18.395  0.00  0.00    +0.000 A 
BRANCH   7  14
ATOM     13  C   UNL     1       5.178   4.528  14.819  0.00  0.00    +0.000 C 
ATOM     14  O   UNL     1       4.608   4.947  16.054  0.00  0.00    +0.000 OA
ENDBRANCH   7  14
ENDBRANCH   1  12
BRANCH   5  15
ATOM     15  C   UNL     1       2.272   6.940  18.867  0.00  0.00    +0.000 A 
ATOM     16  C   UNL     1       2.496   7.698  17.712  0.00  0.00    +0.000 A 
ATOM     17  C   UNL     1       2.186   9.061  17.670  0.00  0.00    +0.000 A 
ATOM     18  C   UNL     1       1.686   9.712  18.797  0.00  0.00    +0.000 A 
ATOM     19  C   UNL     1       1.523   8.999  19.981  0.00  0.00    +0.000 A 
ATOM     20  C   UNL     1       1.811   7.626  20.009  0.00  0.00    +0.000 A 
BRANCH  20  21
ATOM     21  O   UNL     1       1.648   6.940  21.188  0.00  0.00    +0.000 OA
ATOM     22  H   UNL     1       1.819   5.995  21.037  0.00  0.00    +0.000 HD
ENDBRANCH  20  21
BRANCH  18  23
ATOM     23  O   UNL     1       1.458  11.047  18.626  0.00  0.00    +0.000 OA
BRANCH  23  24
ATOM     24  C   UNL     1       0.301  11.593  19.253  0.00  0.00    +0.000 C 
BRANCH  24  25
ATOM     25  C   UNL     1      -0.958  11.204  18.475  0.00  0.00    +0.000 C 
ATOM     26  O   UNL     1      -1.690  10.279  18.815  0.00  0.00    +0.000 OA
ATOM     27  N   UNL     1      -1.202  12.001  17.359  0.00  0.00    +0.000 N 
ATOM     28  H   UNL     1      -0.619  12.831  17.220  0.00  0.00    +0.000 HD
BRANCH  27  29
ATOM     29  N   UNL     1      -2.390  11.841  16.621  0.00  0.00    +0.000 NA
ATOM     30  H   UNL     1      -2.597  10.833  16.595  0.00  0.00    +0.000 HD
ATOM     31  H   UNL     1      -2.186  12.079  15.646  0.00  0.00    +0.000 HD
ENDBRANCH  27  29
ENDBRANCH  24  25
ENDBRANCH  23  24
ENDBRANCH  18  23
ENDBRANCH   5  15
BRANCH   2  32
ATOM     32  C   UNL     1       3.806   1.987  18.605  0.00  0.00    +0.000 C 
ATOM     33  F   UNL     1       4.758   1.746  19.548  0.00  0.00    +0.000 F 
ATOM     34  F   UNL     1       2.952   0.925  18.628  0.00  0.00    +0.000 F 
ATOM     35  F   UNL     1       4.464   1.914  17.411  0.00  0.00    +0.000 F 
ENDBRANCH   2  32
TORSDOF 9
ENDMDL
MODEL 4
REMARK VINA RESULT:      -7.8      4.436      6.839
REMARK  Name = 
REMARK  10 active torsions:
REMARK  status: ('A' for Active; 'I' for Inactive)
REMARK    1  A    between atoms: C_1  and  O_2
REMARK    2  A    between atoms: O_2  and  C_3
REMARK    3  A    between atoms: C_8  and  C_9
REMARK    4  A    between atoms: C_10  and  C_11
REMARK    5  A    between atoms: C_17  and  C_18
REMARK    6  A    between atoms: C_21  and  O_22
REMARK    7  A    between atoms: O_22  and  C_23
REMARK    8  A    between atoms: C_23  and  C_24
REMARK    9  A    between atoms: N_26  and  N_27
REMARK   10  A    between atoms: C_29  and  O_30
REMARK                            x       y       z     vdW  Elec       q    Type
REMARK                         _______ _______ _______ _____ _____    ______ ____
ROOT
ATOM      1  C   UNL     1       3.659   5.032  19.226  0.00  0.00    +0.000 A 
ATOM      2  C   UNL     1       3.470   3.802  19.950  0.00  0.00    +0.000 A 
ATOM      3  N   UNL     1       2.441   3.912  20.818  0.00  0.00    +0.000 NA
ATOM      4  N   UNL     1       1.973   5.145  20.620  0.00  0.00    +0.000 N 
ATOM      5  C   UNL     1       2.660   5.890  19.698  0.00  0.00    +0.000 A 
ATOM      6  H   UNL     1       1.141   5.440  21.125  0.00  0.00    +0.000 HD
ENDROOT
BRANCH   1  12
ATOM      7  C   UNL     1       5.977   5.663  18.448  0.00  0.00    +0.000 A 
ATOM      8  C   UNL     1       6.836   6.013  17.395  0.00  0.00    +0.000 A 
ATOM      9  C   UNL     1       6.354   6.144  16.091  0.00  0.00    +0.000 A 
ATOM     10  C   UNL     1       5.020   5.881  15.814  0.00  0.00    +0.000 A 
ATOM     11  C   UNL     1       4.175   5.454  16.839  0.00  0.00    +0.000 A 
ATOM     12  C   UNL     1       4.624   5.370  18.171  0.00  0.00    +0.000 A 
BRANCH   7  14
ATOM     13  C   UNL     1       7.776   5.547  20.018  0.00  0.00    +0.000 C 
ATOM     14  O   UNL     1       6.378   5.583  19.757  0.00  0.00    +0.000 OA
ENDBRANCH   7  14
ENDBRANCH   1  12
BRANCH   5  15
ATOM     15  C   UNL     1       2.243   7.275  19.393  0.00  0.00    +0.000 A 
ATOM     16  C   UNL     1       2.330   7.772  18.087  0.00  0.00    +0.000 A 
ATOM     17  C   UNL     1       1.838   9.040  17.762  0.00  0.00    +0.000 A 
ATOM     18  C   UNL     1       1.284   9.861  18.743  0.00  0.00    +0.000 A 
ATOM     19  C   UNL     1       1.252   9.421  20.063  0.00  0.00    +0.000 A 
ATOM     20  C   UNL     1       1.724   8.138  20.378  0.00  0.00    +0.000 A 
BRANCH  20  21
ATOM     21  O   UNL     1       1.687   7.723  21.687  0.00  0.00    +0.000 OA
ATOM     22  H   UNL     1       1.804   6.759  21.723  0.00  0.00    +0.000 HD
ENDBRANCH  20  21
BRANCH  18  23
ATOM     23  O   UNL     1       0.872  11.083  18.294  0.00  0.00    +0.000 OA
BRANCH  23  24
ATOM     24  C   UNL     1      -0.380  11.562  18.773  0.00  0.00    +0.000 C 
BRANCH  24  25
ATOM     25  C   UNL     1      -1.521  11.022  17.909  0.00  0.00    +0.000 C 
ATOM     26  O   UNL     1      -2.143  10.001  18.192  0.00  0.00    +0.000 OA
ATOM     27  N   UNL     1      -1.797  11.797  16.785  0.00  0.00    +0.000 N 
ATOM     28  H   UNL     1      -1.323  12.700  16.693  0.00  0.00    +0.000 HD
BRANCH  27  29
ATOM     29  N   UNL     1      -2.901  11.492  15.967  0.00  0.00    +0.000 NA
ATOM     30  H   UNL     1      -3.721  11.959  16.380  0.00  0.00    +0.000 HD
ATOM     31  H   UNL     1      -3.102  10.494  16.074  0.00  0.00    +0.000 HD
ENDBRANCH  27  29
ENDBRANCH  24  25
ENDBRANCH  23  24
ENDBRANCH  18  23
ENDBRANCH   5  15
BRANCH   2  32
ATOM     32  C   UNL     1       4.217   2.493  19.834  0.00  0.00    +0.000 C 
ATOM     33  F   UNL     1       4.480   1.890  21.025  0.00  0.00    +0.000 F 
ATOM     34  F   UNL     1       3.550   1.582  19.070  0.00  0.00    +0.000 F 
ATOM     35  F   UNL     1       5.438   2.657  19.244  0.00  0.00    +0.000 F 
ENDBRANCH   2  32
TORSDOF 9
ENDMDL
MODEL 5
REMARK VINA RESULT:      -7.7      5.244      7.784
REMARK  Name = 
REMARK  10 active torsions:
REMARK  status: ('A' for Active; 'I' for Inactive)
REMARK    1  A    between atoms: C_1  and  O_2
REMARK    2  A    between atoms: O_2  and  C_3
REMARK    3  A    between atoms: C_8  and  C_9
REMARK    4  A    between atoms: C_10  and  C_11
REMARK    5  A    between atoms: C_17  and  C_18
REMARK    6  A    between atoms: C_21  and  O_22
REMARK    7  A    between atoms: O_22  and  C_23
REMARK    8  A    between atoms: C_23  and  C_24
REMARK    9  A    between atoms: N_26  and  N_27
REMARK   10  A    between atoms: C_29  and  O_30
REMARK                            x       y       z     vdW  Elec       q    Type
REMARK                         _______ _______ _______ _____ _____    ______ ____
ROOT
ATOM      1  C   UNL     1      -0.148  10.137  20.750  0.00  0.00    +0.000 A 
ATOM      2  C   UNL     1      -0.403  10.574  22.099  0.00  0.00    +0.000 A 
ATOM      3  N   UNL     1       0.401   9.926  22.970  0.00  0.00    +0.000 NA
ATOM      4  N   UNL     1       1.159   9.144  22.201  0.00  0.00    +0.000 N 
ATOM      5  C   UNL     1       0.880   9.195  20.860  0.00  0.00    +0.000 A 
ATOM      6  H   UNL     1       1.898   8.597  22.636  0.00  0.00    +0.000 HD
ENDROOT
BRANCH   1  12
ATOM      7  C   UNL     1      -0.509  11.855  18.935  0.00  0.00    +0.000 A 
ATOM      8  C   UNL     1      -1.145  12.222  17.738  0.00  0.00    +0.000 A 
ATOM      9  C   UNL     1      -2.066  11.369  17.126  0.00  0.00    +0.000 A 
ATOM     10  C   UNL     1      -2.325  10.120  17.672  0.00  0.00    +0.000 A 
ATOM     11  C   UNL     1      -1.639   9.712  18.816  0.00  0.00    +0.000 A 
ATOM     12  C   UNL     1      -0.750  10.577  19.484  0.00  0.00    +0.000 A 
BRANCH   7  14
ATOM     13  C   UNL     1      -0.071  14.009  19.875  0.00  0.00    +0.000 C 
ATOM     14  O   UNL     1       0.353  12.675  19.617  0.00  0.00    +0.000 OA
ENDBRANCH   7  14
ENDBRANCH   1  12
BRANCH   5  15
ATOM     15  C   UNL     1       1.648   8.371  19.903  0.00  0.00    +0.000 A 
ATOM     16  C   UNL     1       2.055   8.902  18.674  0.00  0.00    +0.000 A 
ATOM     17  C   UNL     1       2.875   8.174  17.807  0.00  0.00    +0.000 A 
ATOM     18  C   UNL     1       3.274   6.877  18.127  0.00  0.00    +0.000 A 
ATOM     19  C   UNL     1       2.824   6.297  19.309  0.00  0.00    +0.000 A 
ATOM     20  C   UNL     1       2.023   7.042  20.186  0.00  0.00    +0.000 A 
BRANCH  20  21
ATOM     21  O   UNL     1       1.585   6.450  21.347  0.00  0.00    +0.000 OA
ATOM     22  H   UNL     1       0.740   6.850  21.613  0.00  0.00    +0.000 HD
ENDBRANCH  20  21
BRANCH  18  23
ATOM     23  O   UNL     1       4.045   6.271  17.178  0.00  0.00    +0.000 OA
BRANCH  23  24
ATOM     24  C   UNL     1       4.318   4.884  17.352  0.00  0.00    +0.000 C 
BRANCH  24  25
ATOM     25  C   UNL     1       5.692   4.690  17.997  0.00  0.00    +0.000 C 
ATOM     26  O   UNL     1       5.870   4.743  19.211  0.00  0.00    +0.000 OA
ATOM     27  N   UNL     1       6.716   4.437  17.085  0.00  0.00    +0.000 N 
ATOM     28  H   UNL     1       6.462   4.279  16.106  0.00  0.00    +0.000 HD
BRANCH  27  29
ATOM     29  N   UNL     1       8.007   4.114  17.542  0.00  0.00    +0.000 NA
ATOM     30  H   UNL     1       8.594   4.948  17.401  0.00  0.00    +0.000 HD
ATOM     31  H   UNL     1       8.400   3.420  16.900  0.00  0.00    +0.000 HD
ENDBRANCH  27  29
ENDBRANCH  24  25
ENDBRANCH  23  24
ENDBRANCH  18  23
ENDBRANCH   5  15
BRANCH   2  32
ATOM     32  C   UNL     1      -1.372  11.618  22.604  0.00  0.00    +0.000 C 
ATOM     33  F   UNL     1      -0.778  12.727  23.125  0.00  0.00    +0.000 F 
ATOM     34  F   UNL     1      -2.224  12.048  21.631  0.00  0.00    +0.000 F 
ATOM     35  F   UNL     1      -2.161  11.134  23.608  0.00  0.00    +0.000 F 
ENDBRANCH   2  32
TORSDOF 9
ENDMDL
MODEL 6
REMARK VINA RESULT:      -7.6      5.171      7.578
REMARK  Name = 
REMARK  10 active torsions:
REMARK  status: ('A' for Active; 'I' for Inactive)
REMARK    1  A    between atoms: C_1  and  O_2
REMARK    2  A    between atoms: O_2  and  C_3
REMARK    3  A    between atoms: C_8  and  C_9
REMARK    4  A    between atoms: C_10  and  C_11
REMARK    5  A    between atoms: C_17  and  C_18
REMARK    6  A    between atoms: C_21  and  O_22
REMARK    7  A    between atoms: O_22  and  C_23
REMARK    8  A    between atoms: C_23  and  C_24
REMARK    9  A    between atoms: N_26  and  N_27
REMARK   10  A    between atoms: C_29  and  O_30
REMARK                            x       y       z     vdW  Elec       q    Type
REMARK                         _______ _______ _______ _____ _____    ______ ____
ROOT
ATOM      1  C   UNL     1      -0.134  10.126  20.736  0.00  0.00    +0.000 A 
ATOM      2  C   UNL     1      -0.383  10.539  22.093  0.00  0.00    +0.000 A 
ATOM      3  N   UNL     1       0.438   9.890  22.947  0.00  0.00    +0.000 NA
ATOM      4  N   UNL     1       1.201   9.130  22.159  0.00  0.00    +0.000 N 
ATOM      5  C   UNL     1       0.909   9.198  20.822  0.00  0.00    +0.000 A 
ATOM      6  H   UNL     1       1.952   8.588  22.579  0.00  0.00    +0.000 HD
ENDROOT
BRANCH   1  12
ATOM      7  C   UNL     1      -0.561  11.877  18.967  0.00  0.00    +0.000 A 
ATOM      8  C   UNL     1      -1.213  12.251  17.781  0.00  0.00    +0.000 A 
ATOM      9  C   UNL     1      -2.101  11.381  17.146  0.00  0.00    +0.000 A 
ATOM     10  C   UNL     1      -2.313  10.109  17.660  0.00  0.00    +0.000 A 
ATOM     11  C   UNL     1      -1.611   9.697  18.792  0.00  0.00    +0.000 A 
ATOM     12  C   UNL     1      -0.754  10.576  19.482  0.00  0.00    +0.000 A 
BRANCH   7  14
ATOM     13  C   UNL     1       0.120  14.112  19.471  0.00  0.00    +0.000 C 
ATOM     14  O   UNL     1       0.270  12.711  19.670  0.00  0.00    +0.000 OA
ENDBRANCH   7  14
ENDBRANCH   1  12
BRANCH   5  15
ATOM     15  C   UNL     1       1.680   8.400  19.846  0.00  0.00    +0.000 A 
ATOM     16  C   UNL     1       2.068   8.956  18.621  0.00  0.00    +0.000 A 
ATOM     17  C   UNL     1       2.890   8.252  17.736  0.00  0.00    +0.000 A 
ATOM     18  C   UNL     1       3.310   6.957  18.032  0.00  0.00    +0.000 A 
ATOM     19  C   UNL     1       2.880   6.352  19.209  0.00  0.00    +0.000 A 
ATOM     20  C   UNL     1       2.076   7.072  20.105  0.00  0.00    +0.000 A 
BRANCH  20  21
ATOM     21  O   UNL     1       1.658   6.457  21.260  0.00  0.00    +0.000 OA
ATOM     22  H   UNL     1       0.978   7.004  21.689  0.00  0.00    +0.000 HD
ENDBRANCH  20  21
BRANCH  18  23
ATOM     23  O   UNL     1       4.082   6.376  17.067  0.00  0.00    +0.000 OA
BRANCH  23  24
ATOM     24  C   UNL     1       4.911   5.289  17.466  0.00  0.00    +0.000 C 
BRANCH  24  25
ATOM     25  C   UNL     1       6.189   5.810  18.126  0.00  0.00    +0.000 C 
ATOM     26  O   UNL     1       6.816   6.773  17.692  0.00  0.00    +0.000 OA
ATOM     27  N   UNL     1       6.567   5.104  19.266  0.00  0.00    +0.000 N 
ATOM     28  H   UNL     1       5.921   4.401  19.635  0.00  0.00    +0.000 HD
BRANCH  27  29
ATOM     29  N   UNL     1       7.650   5.548  20.048  0.00  0.00    +0.000 NA
ATOM     30  H   UNL     1       7.296   6.298  20.657  0.00  0.00    +0.000 HD
ATOM     31  H   UNL     1       8.310   6.023  19.425  0.00  0.00    +0.000 HD
ENDBRANCH  27  29
ENDBRANCH  24  25
ENDBRANCH  23  24
ENDBRANCH  18  23
ENDBRANCH   5  15
BRANCH   2  32
ATOM     32  C   UNL     1      -1.362  11.561  22.623  0.00  0.00    +0.000 C 
ATOM     33  F   UNL     1      -2.238  12.032  21.693  0.00  0.00    +0.000 F 
ATOM     34  F   UNL     1      -2.108  11.077  23.656  0.00  0.00    +0.000 F 
ATOM     35  F   UNL     1      -0.727  12.669  23.105  0.00  0.00    +0.000 F 
ENDBRANCH   2  32
TORSDOF 9
ENDMDL
MODEL 7
REMARK VINA RESULT:      -7.6      4.846      6.910
REMARK  Name = 
REMARK  10 active torsions:
REMARK  status: ('A' for Active; 'I' for Inactive)
REMARK    1  A    between atoms: C_1  and  O_2
REMARK    2  A    between atoms: O_2  and  C_3
REMARK    3  A    between atoms: C_8  and  C_9
REMARK    4  A    between atoms: C_10  and  C_11
REMARK    5  A    between atoms: C_17  and  C_18
REMARK    6  A    between atoms: C_21  and  O_22
REMARK    7  A    between atoms: O_22  and  C_23
REMARK    8  A    between atoms: C_23  and  C_24
REMARK    9  A    between atoms: N_26  and  N_27
REMARK   10  A    between atoms: C_29  and  O_30
REMARK                            x       y       z     vdW  Elec       q    Type
REMARK                         _______ _______ _______ _____ _____    ______ ____
ROOT
ATOM      1  C   UNL     1       3.315   5.093  19.598  0.00  0.00    +0.000 A 
ATOM      2  C   UNL     1       3.046   3.912  20.377  0.00  0.00    +0.000 A 
ATOM      3  N   UNL     1       2.005   4.119  21.213  0.00  0.00    +0.000 NA
ATOM      4  N   UNL     1       1.607   5.363  20.944  0.00  0.00    +0.000 N 
ATOM      5  C   UNL     1       2.353   6.024  20.003  0.00  0.00    +0.000 A 
ATOM      6  H   UNL     1       0.782   5.726  21.414  0.00  0.00    +0.000 HD
ENDROOT
BRANCH   1  12
ATOM      7  C   UNL     1       4.128   4.917  17.214  0.00  0.00    +0.000 A 
ATOM      8  C   UNL     1       5.145   5.141  16.272  0.00  0.00    +0.000 A 
ATOM      9  C   UNL     1       6.366   5.698  16.657  0.00  0.00    +0.000 A 
ATOM     10  C   UNL     1       6.570   6.083  17.974  0.00  0.00    +0.000 A 
ATOM     11  C   UNL     1       5.538   5.939  18.902  0.00  0.00    +0.000 A 
ATOM     12  C   UNL     1       4.319   5.327  18.551  0.00  0.00    +0.000 A 
BRANCH   7  14
ATOM     13  C   UNL     1       2.922   2.896  16.794  0.00  0.00    +0.000 C 
ATOM     14  O   UNL     1       2.934   4.314  16.910  0.00  0.00    +0.000 OA
ENDBRANCH   7  14
ENDBRANCH   1  12
BRANCH   5  15
ATOM     15  C   UNL     1       2.016   7.412  19.620  0.00  0.00    +0.000 A 
ATOM     16  C   UNL     1       2.121   7.827  18.288  0.00  0.00    +0.000 A 
ATOM     17  C   UNL     1       1.702   9.101  17.893  0.00  0.00    +0.000 A 
ATOM     18  C   UNL     1       1.208  10.009  18.827  0.00  0.00    +0.000 A 
ATOM     19  C   UNL     1       1.161   9.649  20.171  0.00  0.00    +0.000 A 
ATOM     20  C   UNL     1       1.559   8.360  20.557  0.00  0.00    +0.000 A 
BRANCH  20  21
ATOM     21  O   UNL     1       1.509   8.024  21.889  0.00  0.00    +0.000 OA
ATOM     22  H   UNL     1       1.021   7.190  21.992  0.00  0.00    +0.000 HD
ENDBRANCH  20  21
BRANCH  18  23
ATOM     23  O   UNL     1       0.866  11.226  18.311  0.00  0.00    +0.000 OA
BRANCH  23  24
ATOM     24  C   UNL     1      -0.376  11.784  18.731  0.00  0.00    +0.000 C 
BRANCH  24  25
ATOM     25  C   UNL     1      -1.527  11.188  17.918  0.00  0.00    +0.000 C 
ATOM     26  O   UNL     1      -2.076  10.131  18.220  0.00  0.00    +0.000 OA
ATOM     27  N   UNL     1      -1.902  11.957  16.819  0.00  0.00    +0.000 N 
ATOM     28  H   UNL     1      -1.485  12.886  16.714  0.00  0.00    +0.000 HD
BRANCH  27  29
ATOM     29  N   UNL     1      -3.028  11.598  16.054  0.00  0.00    +0.000 NA
ATOM     30  H   UNL     1      -3.784  11.375  16.716  0.00  0.00    +0.000 HD
ATOM     31  H   UNL     1      -2.823  10.704  15.598  0.00  0.00    +0.000 HD
ENDBRANCH  27  29
ENDBRANCH  24  25
ENDBRANCH  23  24
ENDBRANCH  18  23
ENDBRANCH   5  15
BRANCH   2  32
ATOM     32  C   UNL     1       3.725   2.562  20.343  0.00  0.00    +0.000 C 
ATOM     33  F   UNL     1       4.968   2.575  19.787  0.00  0.00    +0.000 F 
ATOM     34  F   UNL     1       3.855   2.016  21.585  0.00  0.00    +0.000 F 
ATOM     35  F   UNL     1       3.017   1.657  19.606  0.00  0.00    +0.000 F 
ENDBRANCH   2  32
TORSDOF 9
ENDMDL
MODEL 8
REMARK VINA RESULT:      -7.5      5.205      7.648
REMARK  Name = 
REMARK  10 active torsions:
REMARK  status: ('A' for Active; 'I' for Inactive)
REMARK    1  A    between atoms: C_1  and  O_2
REMARK    2  A    between atoms: O_2  and  C_3
REMARK    3  A    between atoms: C_8  and  C_9
REMARK    4  A    between atoms: C_10  and  C_11
REMARK    5  A    between atoms: C_17  and  C_18
REMARK    6  A    between atoms: C_21  and  O_22
REMARK    7  A    between atoms: O_22  and  C_23
REMARK    8  A    between atoms: C_23  and  C_24
REMARK    9  A    between atoms: N_26  and  N_27
REMARK   10  A    between atoms: C_29  and  O_30
REMARK                            x       y       z     vdW  Elec       q    Type
REMARK                         _______ _______ _______ _____ _____    ______ ____
ROOT
ATOM      1  C   UNL     1      -0.088  10.113  20.695  0.00  0.00    +0.000 A 
ATOM      2  C   UNL     1      -0.332  10.512  22.057  0.00  0.00    +0.000 A 
ATOM      3  N   UNL     1       0.494   9.855  22.901  0.00  0.00    +0.000 NA
ATOM      4  N   UNL     1       1.254   9.104  22.103  0.00  0.00    +0.000 N 
ATOM      5  C   UNL     1       0.956   9.184  20.767  0.00  0.00    +0.000 A 
ATOM      6  H   UNL     1       2.007   8.559  22.514  0.00  0.00    +0.000 HD
ENDROOT
BRANCH   1  12
ATOM      7  C   UNL     1      -0.512  11.874  18.936  0.00  0.00    +0.000 A 
ATOM      8  C   UNL     1      -1.169  12.260  17.757  0.00  0.00    +0.000 A 
ATOM      9  C   UNL     1      -2.072  11.402  17.126  0.00  0.00    +0.000 A 
ATOM     10  C   UNL     1      -2.293  10.130  17.637  0.00  0.00    +0.000 A 
ATOM     11  C   UNL     1      -1.585   9.706  18.761  0.00  0.00    +0.000 A 
ATOM     12  C   UNL     1      -0.714  10.574  19.447  0.00  0.00    +0.000 A 
BRANCH   7  14
ATOM     13  C   UNL     1      -0.070  14.048  19.828  0.00  0.00    +0.000 C 
ATOM     14  O   UNL     1       0.334  12.697  19.635  0.00  0.00    +0.000 OA
ENDBRANCH   7  14
ENDBRANCH   1  12
BRANCH   5  15
ATOM     15  C   UNL     1       1.723   8.396  19.780  0.00  0.00    +0.000 A 
ATOM     16  C   UNL     1       2.077   8.953  18.546  0.00  0.00    +0.000 A 
ATOM     17  C   UNL     1       2.896   8.261  17.648  0.00  0.00    +0.000 A 
ATOM     18  C   UNL     1       3.346   6.976  17.942  0.00  0.00    +0.000 A 
ATOM     19  C   UNL     1       2.949   6.368  19.130  0.00  0.00    +0.000 A 
ATOM     20  C   UNL     1       2.149   7.078  20.038  0.00  0.00    +0.000 A 
BRANCH  20  21
ATOM     21  O   UNL     1       1.764   6.460  21.203  0.00  0.00    +0.000 OA
ATOM     22  H   UNL     1       1.009   6.936  21.586  0.00  0.00    +0.000 HD
ENDBRANCH  20  21
BRANCH  18  23
ATOM     23  O   UNL     1       4.110   6.405  16.965  0.00  0.00    +0.000 OA
BRANCH  23  24
ATOM     24  C   UNL     1       4.661   5.120  17.239  0.00  0.00    +0.000 C 
BRANCH  24  25
ATOM     25  C   UNL     1       6.074   5.014  16.663  0.00  0.00    +0.000 C 
ATOM     26  O   UNL     1       6.978   4.403  17.227  0.00  0.00    +0.000 OA
ATOM     27  N   UNL     1       6.237   5.660  15.439  0.00  0.00    +0.000 N 
ATOM     28  H   UNL     1       5.404   6.032  14.975  0.00  0.00    +0.000 HD
BRANCH  27  29
ATOM     29  N   UNL     1       7.447   5.541  14.731  0.00  0.00    +0.000 NA
ATOM     30  H   UNL     1       7.658   4.536  14.659  0.00  0.00    +0.000 HD
ATOM     31  H   UNL     1       8.194   5.911  15.325  0.00  0.00    +0.000 HD
ENDBRANCH  27  29
ENDBRANCH  24  25
ENDBRANCH  23  24
ENDBRANCH  18  23
ENDBRANCH   5  15
BRANCH   2  32
ATOM     32  C   UNL     1      -1.309  11.528  22.600  0.00  0.00    +0.000 C 
ATOM     33  F   UNL     1      -2.211  11.983  21.687  0.00  0.00    +0.000 F 
ATOM     34  F   UNL     1      -2.026  11.045  23.654  0.00  0.00    +0.000 F 
ATOM     35  F   UNL     1      -0.675  12.647  23.059  0.00  0.00    +0.000 F 
ENDBRANCH   2  32
TORSDOF 9
ENDMDL
MODEL 9
REMARK VINA RESULT:      -7.5      5.524      8.082
REMARK  Name = 
REMARK  10 active torsions:
REMARK  status: ('A' for Active; 'I' for Inactive)
REMARK    1  A    between atoms: C_1  and  O_2
REMARK    2  A    between atoms: O_2  and  C_3
REMARK    3  A    between atoms: C_8  and  C_9
REMARK    4  A    between atoms: C_10  and  C_11
REMARK    5  A    between atoms: C_17  and  C_18
REMARK    6  A    between atoms: C_21  and  O_22
REMARK    7  A    between atoms: O_22  and  C_23
REMARK    8  A    between atoms: C_23  and  C_24
REMARK    9  A    between atoms: N_26  and  N_27
REMARK   10  A    between atoms: C_29  and  O_30
REMARK                            x       y       z     vdW  Elec       q    Type
REMARK                         _______ _______ _______ _____ _____    ______ ____
ROOT
ATOM      1  C   UNL     1      -0.177  10.140  20.698  0.00  0.00    +0.000 A 
ATOM      2  C   UNL     1      -0.424  10.585  22.045  0.00  0.00    +0.000 A 
ATOM      3  N   UNL     1       0.389   9.946  22.915  0.00  0.00    +0.000 NA
ATOM      4  N   UNL     1       1.146   9.162  22.145  0.00  0.00    +0.000 N 
ATOM      5  C   UNL     1       0.857   9.204  20.806  0.00  0.00    +0.000 A 
ATOM      6  H   UNL     1       1.891   8.622  22.579  0.00  0.00    +0.000 HD
ENDROOT
BRANCH   1  12
ATOM      7  C   UNL     1      -0.559  11.845  18.874  0.00  0.00    +0.000 A 
ATOM      8  C   UNL     1      -1.205  12.201  17.680  0.00  0.00    +0.000 A 
ATOM      9  C   UNL     1      -2.126  11.340  17.079  0.00  0.00    +0.000 A 
ATOM     10  C   UNL     1      -2.375  10.093  17.636  0.00  0.00    +0.000 A 
ATOM     11  C   UNL     1      -1.679   9.696  18.777  0.00  0.00    +0.000 A 
ATOM     12  C   UNL     1      -0.790  10.569  19.433  0.00  0.00    +0.000 A 
BRANCH   7  14
ATOM     13  C   UNL     1      -0.129  14.004  19.805  0.00  0.00    +0.000 C 
ATOM     14  O   UNL     1       0.304  12.674  19.545  0.00  0.00    +0.000 OA
ENDBRANCH   7  14
ENDBRANCH   1  12
BRANCH   5  15
ATOM     15  C   UNL     1       1.622   8.377  19.849  0.00  0.00    +0.000 A 
ATOM     16  C   UNL     1       1.938   8.870  18.578  0.00  0.00    +0.000 A 
ATOM     17  C   UNL     1       2.753   8.145  17.704  0.00  0.00    +0.000 A 
ATOM     18  C   UNL     1       3.239   6.889  18.061  0.00  0.00    +0.000 A 
ATOM     19  C   UNL     1       2.881   6.342  19.289  0.00  0.00    +0.000 A 
ATOM     20  C   UNL     1       2.083   7.085  20.172  0.00  0.00    +0.000 A 
BRANCH  20  21
ATOM     21  O   UNL     1       1.736   6.527  21.379  0.00  0.00    +0.000 OA
ATOM     22  H   UNL     1       1.777   5.558  21.309  0.00  0.00    +0.000 HD
ENDBRANCH  20  21
BRANCH  18  23
ATOM     23  O   UNL     1       3.996   6.279  17.102  0.00  0.00    +0.000 OA
BRANCH  23  24
ATOM     24  C   UNL     1       5.163   5.589  17.537  0.00  0.00    +0.000 C 
BRANCH  24  25
ATOM     25  C   UNL     1       4.828   4.131  17.860  0.00  0.00    +0.000 C 
ATOM     26  O   UNL     1       4.268   3.385  17.062  0.00  0.00    +0.000 OA
ATOM     27  N   UNL     1       5.228   3.727  19.132  0.00  0.00    +0.000 N 
ATOM     28  H   UNL     1       5.805   4.367  19.684  0.00  0.00    +0.000 HD
BRANCH  27  29
ATOM     29  N   UNL     1       5.100   2.380  19.520  0.00  0.00    +0.000 NA
ATOM     30  H   UNL     1       6.050   1.990  19.577  0.00  0.00    +0.000 HD
ATOM     31  H   UNL     1       4.668   1.872  18.743  0.00  0.00    +0.000 HD
ENDBRANCH  27  29
ENDBRANCH  24  25
ENDBRANCH  23  24
ENDBRANCH  18  23
ENDBRANCH   5  15
BRANCH   2  32
ATOM     32  C   UNL     1      -1.394  11.628  22.550  0.00  0.00    +0.000 C 
ATOM     33  F   UNL     1      -0.804  12.770  22.999  0.00  0.00    +0.000 F 
ATOM     34  F   UNL     1      -2.298  11.999  21.600  0.00  0.00    +0.000 F 
ATOM     35  F   UNL     1      -2.127  11.169  23.607  0.00  0.00    +0.000 F 
ENDBRANCH   2  32
TORSDOF 9
ENDMDL
