MODEL 1
REMARK VINA RESULT:      -7.5      0.000      0.000
REMARK  Name = 
REMARK  7 active torsions:
REMARK  status: ('A' for Active; 'I' for Inactive)
REMARK    1  A    between atoms: C_2  and  C_3
REMARK    2  A    between atoms: C_3  and  S_4
REMARK    3  A    between atoms: S_4  and  N_7
REMARK    4  A    between atoms: C_9  and  O_10
REMARK    5  A    between atoms: O_10  and  C_11
REMARK    6  A    between atoms: C_14  and  C_15
REMARK    7  A    between atoms: N_24  and  O_25
REMARK                            x       y       z     vdW  Elec       q    Type
REMARK                         _______ _______ _______ _____ _____    ______ ____
ROOT
ATOM      1  N   UNL     1       1.740   7.885  20.886  0.00  0.00    +0.000 NA
ATOM      2  C   UNL     1       1.580   6.404  20.729  0.00  0.00    +0.000 C 
ATOM      3  C   UNL     1       2.306   6.442  19.369  0.00  0.00    +0.000 C 
ATOM      4  C   UNL     1       2.068   7.971  19.424  0.00  0.00    +0.000 C 
ENDROOT
BRANCH   1   5
ATOM      5  S   UNL     1       0.605   8.856  21.687  0.00  0.00    +0.000 S 
ATOM      6  O   UNL     1       1.252   9.358  22.885  0.00  0.00    +0.000 OA
ATOM      7  O   UNL     1      -0.636   8.122  21.754  0.00  0.00    +0.000 OA
BRANCH   5   8
ATOM      8  C   UNL     1       0.440  10.209  20.559  0.00  0.00    +0.000 C 
BRANCH   8  10
ATOM      9  O   UNL     1       1.063  12.413  21.284  0.00  0.00    +0.000 OA
ATOM     10  C   UNL     1       0.262  11.477  21.343  0.00  0.00    +0.000 C 
ATOM     11  N   UNL     1      -0.790  11.484  22.232  0.00  0.00    +0.000 N 
ATOM     12  H   UNL     1      -1.641  10.943  22.054  0.00  0.00    +0.000 HD
BRANCH  11  13
ATOM     13  O   UNL     1      -0.983  12.703  22.930  0.00  0.00    +0.000 OA
ATOM     14  H   UNL     1      -0.111  13.147  22.838  0.00  0.00    +0.000 HD
ENDBRANCH  11  13
ENDBRANCH   8  10
ENDBRANCH   5   8
ENDBRANCH   1   5
BRANCH   3  15
ATOM     15  O   UNL     1       3.680   5.981  19.370  0.00  0.00    +0.000 OA
BRANCH  15  16
ATOM     16  C   UNL     1       4.215   5.576  18.173  0.00  0.00    +0.000 A 
ATOM     17  C   UNL     1       4.686   6.580  17.332  0.00  0.00    +0.000 A 
ATOM     18  C   UNL     1       5.244   6.254  16.088  0.00  0.00    +0.000 A 
ATOM     19  C   UNL     1       5.367   4.918  15.664  0.00  0.00    +0.000 A 
ATOM     20  C   UNL     1       4.916   3.926  16.551  0.00  0.00    +0.000 A 
ATOM     21  C   UNL     1       4.344   4.247  17.789  0.00  0.00    +0.000 A 
BRANCH  19  22
ATOM     22  C   UNL     1       5.943   4.566  14.343  0.00  0.00    +0.000 A 
ATOM     23  C   UNL     1       5.294   3.677  13.466  0.00  0.00    +0.000 A 
ATOM     24  C   UNL     1       5.849   3.332  12.229  0.00  0.00    +0.000 A 
ATOM     25  C   UNL     1       7.063   3.881  11.829  0.00  0.00    +0.000 A 
ATOM     26  C   UNL     1       7.722   4.773  12.668  0.00  0.00    +0.000 A 
ATOM     27  C   UNL     1       7.171   5.104  13.910  0.00  0.00    +0.000 A 
ENDBRANCH  19  22
ENDBRANCH  15  16
ENDBRANCH   3  15
TORSDOF 7
ENDMDL
MODEL 2
REMARK VINA RESULT:      -7.3      4.986      7.898
REMARK  Name = 
REMARK  7 active torsions:
REMARK  status: ('A' for Active; 'I' for Inactive)
REMARK    1  A    between atoms: C_2  and  C_3
REMARK    2  A    between atoms: C_3  and  S_4
REMARK    3  A    between atoms: S_4  and  N_7
REMARK    4  A    between atoms: C_9  and  O_10
REMARK    5  A    between atoms: O_10  and  C_11
REMARK    6  A    between atoms: C_14  and  C_15
REMARK    7  A    between atoms: N_24  and  O_25
REMARK                            x       y       z     vdW  Elec       q    Type
REMARK                         _______ _______ _______ _____ _____    ______ ____
ROOT
ATOM      1  N   UNL     1       3.501   4.450  18.035  0.00  0.00    +0.000 NA
ATOM      2  C   UNL     1       4.104   4.499  16.664  0.00  0.00    +0.000 C 
ATOM      3  C   UNL     1       4.922   5.751  17.038  0.00  0.00    +0.000 C 
ATOM      4  C   UNL     1       3.969   5.859  18.254  0.00  0.00    +0.000 C 
ENDROOT
BRANCH   1   5
ATOM      5  S   UNL     1       1.930   3.890  18.333  0.00  0.00    +0.000 S 
ATOM      6  O   UNL     1       1.099   4.371  17.245  0.00  0.00    +0.000 OA
ATOM      7  O   UNL     1       1.609   4.184  19.710  0.00  0.00    +0.000 OA
BRANCH   5   8
ATOM      8  C   UNL     1       2.130   2.145  18.123  0.00  0.00    +0.000 C 
BRANCH   8  10
ATOM      9  O   UNL     1       4.182   0.896  18.114  0.00  0.00    +0.000 OA
ATOM     10  C   UNL     1       3.472   1.742  18.662  0.00  0.00    +0.000 C 
ATOM     11  N   UNL     1       3.811   2.286  19.882  0.00  0.00    +0.000 N 
ATOM     12  H   UNL     1       3.473   3.210  20.165  0.00  0.00    +0.000 HD
BRANCH  11  13
ATOM     13  O   UNL     1       5.102   1.942  20.358  0.00  0.00    +0.000 OA
ATOM     14  H   UNL     1       5.554   1.618  19.548  0.00  0.00    +0.000 HD
ENDBRANCH  11  13
ENDBRANCH   8  10
ENDBRANCH   5   8
ENDBRANCH   1   5
BRANCH   3  15
ATOM     15  O   UNL     1       6.329   5.532  17.311  0.00  0.00    +0.000 OA
BRANCH  15  16
ATOM     16  C   UNL     1       7.069   6.607  17.736  0.00  0.00    +0.000 A 
ATOM     17  C   UNL     1       6.839   7.814  17.083  0.00  0.00    +0.000 A 
ATOM     18  C   UNL     1       7.555   8.962  17.451  0.00  0.00    +0.000 A 
ATOM     19  C   UNL     1       8.499   8.938  18.494  0.00  0.00    +0.000 A 
ATOM     20  C   UNL     1       8.681   7.713  19.157  0.00  0.00    +0.000 A 
ATOM     21  C   UNL     1       7.979   6.559  18.784  0.00  0.00    +0.000 A 
BRANCH  19  22
ATOM     22  C   UNL     1       9.271  10.145  18.879  0.00  0.00    +0.000 A 
ATOM     23  C   UNL     1       9.415  10.533  20.224  0.00  0.00    +0.000 A 
ATOM     24  C   UNL     1      10.127  11.682  20.583  0.00  0.00    +0.000 A 
ATOM     25  C   UNL     1      10.730  12.466  19.605  0.00  0.00    +0.000 A 
ATOM     26  C   UNL     1      10.617  12.102  18.268  0.00  0.00    +0.000 A 
ATOM     27  C   UNL     1       9.891  10.960  17.912  0.00  0.00    +0.000 A 
ENDBRANCH  19  22
ENDBRANCH  15  16
ENDBRANCH   3  15
TORSDOF 7
ENDMDL
MODEL 3
REMARK VINA RESULT:      -7.3      0.229      1.362
REMARK  Name = 
REMARK  7 active torsions:
REMARK  status: ('A' for Active; 'I' for Inactive)
REMARK    1  A    between atoms: C_2  and  C_3
REMARK    2  A    between atoms: C_3  and  S_4
REMARK    3  A    between atoms: S_4  and  N_7
REMARK    4  A    between atoms: C_9  and  O_10
REMARK    5  A    between atoms: O_10  and  C_11
REMARK    6  A    between atoms: C_14  and  C_15
REMARK    7  A    between atoms: N_24  and  O_25
REMARK                            x       y       z     vdW  Elec       q    Type
REMARK                         _______ _______ _______ _____ _____    ______ ____
ROOT
ATOM      1  N   UNL     1       1.849   7.855  20.847  0.00  0.00    +0.000 NA
ATOM      2  C   UNL     1       1.648   6.371  20.807  0.00  0.00    +0.000 C 
ATOM      3  C   UNL     1       2.324   6.288  19.424  0.00  0.00    +0.000 C 
ATOM      4  C   UNL     1       2.125   7.823  19.372  0.00  0.00    +0.000 C 
ENDROOT
BRANCH   1   5
ATOM      5  S   UNL     1       0.767   8.913  21.610  0.00  0.00    +0.000 S 
ATOM      6  O   UNL     1       1.414   9.370  22.826  0.00  0.00    +0.000 OA
ATOM      7  O   UNL     1      -0.528   8.275  21.642  0.00  0.00    +0.000 OA
BRANCH   5   8
ATOM      8  C   UNL     1       0.739  10.269  20.475  0.00  0.00    +0.000 C 
BRANCH   8  10
ATOM      9  O   UNL     1       0.710  12.621  20.963  0.00  0.00    +0.000 OA
ATOM     10  C   UNL     1       0.260  11.496  21.195  0.00  0.00    +0.000 C 
ATOM     11  N   UNL     1      -0.628  11.274  22.224  0.00  0.00    +0.000 N 
ATOM     12  H   UNL     1      -1.278  10.483  22.205  0.00  0.00    +0.000 HD
BRANCH  11  13
ATOM     13  O   UNL     1      -1.116  12.442  22.864  0.00  0.00    +0.000 OA
ATOM     14  H   UNL     1      -1.469  12.969  22.115  0.00  0.00    +0.000 HD
ENDBRANCH  11  13
ENDBRANCH   8  10
ENDBRANCH   5   8
ENDBRANCH   1   5
BRANCH   3  15
ATOM     15  O   UNL     1       3.686   5.793  19.412  0.00  0.00    +0.000 OA
BRANCH  15  16
ATOM     16  C   UNL     1       4.266   5.556  18.191  0.00  0.00    +0.000 A 
ATOM     17  C   UNL     1       4.050   4.299  17.635  0.00  0.00    +0.000 A 
ATOM     18  C   UNL     1       4.609   3.971  16.392  0.00  0.00    +0.000 A 
ATOM     19  C   UNL     1       5.376   4.899  15.663  0.00  0.00    +0.000 A 
ATOM     20  C   UNL     1       5.544   6.172  16.234  0.00  0.00    +0.000 A 
ATOM     21  C   UNL     1       5.001   6.499  17.483  0.00  0.00    +0.000 A 
BRANCH  19  22
ATOM     22  C   UNL     1       5.983   4.556  14.353  0.00  0.00    +0.000 A 
ATOM     23  C   UNL     1       7.176   5.158  13.910  0.00  0.00    +0.000 A 
ATOM     24  C   UNL     1       7.735   4.846  12.667  0.00  0.00    +0.000 A 
ATOM     25  C   UNL     1       7.124   3.911  11.839  0.00  0.00    +0.000 A 
ATOM     26  C   UNL     1       5.952   3.288  12.254  0.00  0.00    +0.000 A 
ATOM     27  C   UNL     1       5.388   3.613  13.492  0.00  0.00    +0.000 A 
ENDBRANCH  19  22
ENDBRANCH  15  16
ENDBRANCH   3  15
TORSDOF 7
ENDMDL
MODEL 4
REMARK VINA RESULT:      -7.2      0.694      1.302
REMARK  Name = 
REMARK  7 active torsions:
REMARK  status: ('A' for Active; 'I' for Inactive)
REMARK    1  A    between atoms: C_2  and  C_3
REMARK    2  A    between atoms: C_3  and  S_4
REMARK    3  A    between atoms: S_4  and  N_7
REMARK    4  A    between atoms: C_9  and  O_10
REMARK    5  A    between atoms: O_10  and  C_11
REMARK    6  A    between atoms: C_14  and  C_15
REMARK    7  A    between atoms: N_24  and  O_25
REMARK                            x       y       z     vdW  Elec       q    Type
REMARK                         _______ _______ _______ _____ _____    ______ ____
ROOT
ATOM      1  N   UNL     1       1.712   7.934  20.761  0.00  0.00    +0.000 NA
ATOM      2  C   UNL     1       1.666   6.436  20.767  0.00  0.00    +0.000 C 
ATOM      3  C   UNL     1       2.306   6.383  19.365  0.00  0.00    +0.000 C 
ATOM      4  C   UNL     1       1.946   7.887  19.279  0.00  0.00    +0.000 C 
ENDROOT
BRANCH   1   5
ATOM      5  S   UNL     1       0.549   8.895  21.531  0.00  0.00    +0.000 S 
ATOM      6  O   UNL     1       1.228   9.600  22.602  0.00  0.00    +0.000 OA
ATOM      7  O   UNL     1      -0.607   8.070  21.790  0.00  0.00    +0.000 OA
BRANCH   5   8
ATOM      8  C   UNL     1       0.172  10.075  20.268  0.00  0.00    +0.000 C 
BRANCH   8  10
ATOM      9  O   UNL     1      -0.906  11.986  21.243  0.00  0.00    +0.000 OA
ATOM     10  C   UNL     1       0.140  11.446  20.876  0.00  0.00    +0.000 C 
ATOM     11  N   UNL     1       1.341  12.121  20.886  0.00  0.00    +0.000 N 
ATOM     12  H   UNL     1       2.232  11.621  20.954  0.00  0.00    +0.000 HD
BRANCH  11  13
ATOM     13  O   UNL     1       1.313  13.394  21.510  0.00  0.00    +0.000 OA
ATOM     14  H   UNL     1       1.450  14.009  20.757  0.00  0.00    +0.000 HD
ENDBRANCH  11  13
ENDBRANCH   8  10
ENDBRANCH   5   8
ENDBRANCH   1   5
BRANCH   3  15
ATOM     15  O   UNL     1       3.712   6.031  19.322  0.00  0.00    +0.000 OA
BRANCH  15  16
ATOM     16  C   UNL     1       4.257   5.743  18.096  0.00  0.00    +0.000 A 
ATOM     17  C   UNL     1       4.251   4.405  17.714  0.00  0.00    +0.000 A 
ATOM     18  C   UNL     1       4.793   4.022  16.478  0.00  0.00    +0.000 A 
ATOM     19  C   UNL     1       5.330   4.967  15.586  0.00  0.00    +0.000 A 
ATOM     20  C   UNL     1       5.288   6.313  15.985  0.00  0.00    +0.000 A 
ATOM     21  C   UNL     1       4.762   6.700  17.224  0.00  0.00    +0.000 A 
BRANCH  19  22
ATOM     22  C   UNL     1       5.918   4.568  14.283  0.00  0.00    +0.000 A 
ATOM     23  C   UNL     1       5.260   3.675  13.417  0.00  0.00    +0.000 A 
ATOM     24  C   UNL     1       5.826   3.287  12.198  0.00  0.00    +0.000 A 
ATOM     25  C   UNL     1       7.060   3.794  11.806  0.00  0.00    +0.000 A 
ATOM     26  C   UNL     1       7.729   4.689  12.633  0.00  0.00    +0.000 A 
ATOM     27  C   UNL     1       7.167   5.064  13.858  0.00  0.00    +0.000 A 
ENDBRANCH  19  22
ENDBRANCH  15  16
ENDBRANCH   3  15
TORSDOF 7
ENDMDL
MODEL 5
REMARK VINA RESULT:      -7.2      7.599     10.779
REMARK  Name = 
REMARK  7 active torsions:
REMARK  status: ('A' for Active; 'I' for Inactive)
REMARK    1  A    between atoms: C_2  and  C_3
REMARK    2  A    between atoms: C_3  and  S_4
REMARK    3  A    between atoms: S_4  and  N_7
REMARK    4  A    between atoms: C_9  and  O_10
REMARK    5  A    between atoms: O_10  and  C_11
REMARK    6  A    between atoms: C_14  and  C_15
REMARK    7  A    between atoms: N_24  and  O_25
REMARK                            x       y       z     vdW  Elec       q    Type
REMARK                         _______ _______ _______ _____ _____    ______ ____
ROOT
ATOM      1  N   UNL     1       7.712   6.450  17.447  0.00  0.00    +0.000 NA
ATOM      2  C   UNL     1       6.851   7.651  17.196  0.00  0.00    +0.000 C 
ATOM      3  C   UNL     1       7.678   8.487  18.193  0.00  0.00    +0.000 C 
ATOM      4  C   UNL     1       8.238   7.127  18.679  0.00  0.00    +0.000 C 
ENDROOT
BRANCH   1   5
ATOM      5  S   UNL     1       7.122   4.863  17.387  0.00  0.00    +0.000 S 
ATOM      6  O   UNL     1       6.420   4.629  18.635  0.00  0.00    +0.000 OA
ATOM      7  O   UNL     1       8.202   4.005  16.960  0.00  0.00    +0.000 OA
BRANCH   5   8
ATOM      8  C   UNL     1       5.910   4.984  16.104  0.00  0.00    +0.000 C 
BRANCH   8  10
ATOM      9  O   UNL     1       6.254   3.928  13.974  0.00  0.00    +0.000 OA
ATOM     10  C   UNL     1       6.587   4.803  14.777  0.00  0.00    +0.000 C 
ATOM     11  N   UNL     1       7.692   5.597  14.559  0.00  0.00    +0.000 N 
ATOM     12  H   UNL     1       7.770   6.528  14.980  0.00  0.00    +0.000 HD
BRANCH  11  13
ATOM     13  O   UNL     1       8.294   5.457  13.283  0.00  0.00    +0.000 OA
ATOM     14  H   UNL     1       8.798   4.619  13.370  0.00  0.00    +0.000 HD
ENDBRANCH  11  13
ENDBRANCH   8  10
ENDBRANCH   5   8
ENDBRANCH   1   5
BRANCH   3  15
ATOM     15  O   UNL     1       8.618   9.424  17.609  0.00  0.00    +0.000 OA
BRANCH  15  16
ATOM     16  C   UNL     1       9.005  10.496  18.374  0.00  0.00    +0.000 A 
ATOM     17  C   UNL     1       8.830  11.755  17.810  0.00  0.00    +0.000 A 
ATOM     18  C   UNL     1       9.203  12.905  18.521  0.00  0.00    +0.000 A 
ATOM     19  C   UNL     1       9.736  12.825  19.821  0.00  0.00    +0.000 A 
ATOM     20  C   UNL     1       9.866  11.540  20.376  0.00  0.00    +0.000 A 
ATOM     21  C   UNL     1       9.509  10.388  19.664  0.00  0.00    +0.000 A 
BRANCH  19  22
ATOM     22  C   UNL     1      10.147  14.035  20.575  0.00  0.00    +0.000 A 
ATOM     23  C   UNL     1      11.073  14.955  20.050  0.00  0.00    +0.000 A 
ATOM     24  C   UNL     1      11.473  16.084  20.771  0.00  0.00    +0.000 A 
ATOM     25  C   UNL     1      10.942  16.333  22.033  0.00  0.00    +0.000 A 
ATOM     26  C   UNL     1      10.014  15.450  22.573  0.00  0.00    +0.000 A 
ATOM     27  C   UNL     1       9.628  14.313  21.855  0.00  0.00    +0.000 A 
ENDBRANCH  19  22
ENDBRANCH  15  16
ENDBRANCH   3  15
TORSDOF 7
ENDMDL
MODEL 6
REMARK VINA RESULT:      -7.2      4.059      9.990
REMARK  Name = 
REMARK  7 active torsions:
REMARK  status: ('A' for Active; 'I' for Inactive)
REMARK    1  A    between atoms: C_2  and  C_3
REMARK    2  A    between atoms: C_3  and  S_4
REMARK    3  A    between atoms: S_4  and  N_7
REMARK    4  A    between atoms: C_9  and  O_10
REMARK    5  A    between atoms: O_10  and  C_11
REMARK    6  A    between atoms: C_14  and  C_15
REMARK    7  A    between atoms: N_24  and  O_25
REMARK                            x       y       z     vdW  Elec       q    Type
REMARK                         _______ _______ _______ _____ _____    ______ ____
ROOT
ATOM      1  N   UNL     1       4.017   5.423  18.354  0.00  0.00    +0.000 NA
ATOM      2  C   UNL     1       2.646   5.734  17.837  0.00  0.00    +0.000 C 
ATOM      3  C   UNL     1       2.380   6.679  19.026  0.00  0.00    +0.000 C 
ATOM      4  C   UNL     1       3.612   6.003  19.678  0.00  0.00    +0.000 C 
ENDROOT
BRANCH   1   5
ATOM      5  S   UNL     1       4.765   3.918  18.140  0.00  0.00    +0.000 S 
ATOM      6  O   UNL     1       3.875   3.120  17.318  0.00  0.00    +0.000 OA
ATOM      7  O   UNL     1       5.209   3.456  19.434  0.00  0.00    +0.000 OA
BRANCH   5   8
ATOM      8  C   UNL     1       6.163   4.356  17.148  0.00  0.00    +0.000 C 
BRANCH   8  10
ATOM      9  O   UNL     1       8.449   4.085  17.835  0.00  0.00    +0.000 OA
ATOM     10  C   UNL     1       7.343   4.588  18.046  0.00  0.00    +0.000 C 
ATOM     11  N   UNL     1       7.083   5.300  19.197  0.00  0.00    +0.000 N 
ATOM     12  H   UNL     1       6.348   6.012  19.228  0.00  0.00    +0.000 HD
BRANCH  11  13
ATOM     13  O   UNL     1       8.213   5.561  20.013  0.00  0.00    +0.000 OA
ATOM     14  H   UNL     1       8.626   4.674  20.104  0.00  0.00    +0.000 HD
ENDBRANCH  11  13
ENDBRANCH   8  10
ENDBRANCH   5   8
ENDBRANCH   1   5
BRANCH   3  15
ATOM     15  O   UNL     1       2.472   8.097  18.742  0.00  0.00    +0.000 OA
BRANCH  15  16
ATOM     16  C   UNL     1       1.527   8.920  19.303  0.00  0.00    +0.000 A 
ATOM     17  C   UNL     1       1.408   8.873  20.688  0.00  0.00    +0.000 A 
ATOM     18  C   UNL     1       0.464   9.677  21.343  0.00  0.00    +0.000 A 
ATOM     19  C   UNL     1      -0.366  10.564  20.633  0.00  0.00    +0.000 A 
ATOM     20  C   UNL     1      -0.195  10.614  19.239  0.00  0.00    +0.000 A 
ATOM     21  C   UNL     1       0.735   9.802  18.578  0.00  0.00    +0.000 A 
BRANCH  19  22
ATOM     22  C   UNL     1      -1.377  11.408  21.316  0.00  0.00    +0.000 A 
ATOM     23  C   UNL     1      -1.560  11.360  22.710  0.00  0.00    +0.000 A 
ATOM     24  C   UNL     1      -2.527  12.143  23.349  0.00  0.00    +0.000 A 
ATOM     25  C   UNL     1      -3.328  13.008  22.610  0.00  0.00    +0.000 A 
ATOM     26  C   UNL     1      -3.162  13.088  21.232  0.00  0.00    +0.000 A 
ATOM     27  C   UNL     1      -2.204  12.292  20.595  0.00  0.00    +0.000 A 
ENDBRANCH  19  22
ENDBRANCH  15  16
ENDBRANCH   3  15
TORSDOF 7
ENDMDL
MODEL 7
REMARK VINA RESULT:      -7.1      3.915      9.905
REMARK  Name = 
REMARK  7 active torsions:
REMARK  status: ('A' for Active; 'I' for Inactive)
REMARK    1  A    between atoms: C_2  and  C_3
REMARK    2  A    between atoms: C_3  and  S_4
REMARK    3  A    between atoms: S_4  and  N_7
REMARK    4  A    between atoms: C_9  and  O_10
REMARK    5  A    between atoms: O_10  and  C_11
REMARK    6  A    between atoms: C_14  and  C_15
REMARK    7  A    between atoms: N_24  and  O_25
REMARK                            x       y       z     vdW  Elec       q    Type
REMARK                         _______ _______ _______ _____ _____    ______ ____
ROOT
ATOM      1  N   UNL     1       3.915   5.254  18.055  0.00  0.00    +0.000 NA
ATOM      2  C   UNL     1       2.425   5.419  18.058  0.00  0.00    +0.000 C 
ATOM      3  C   UNL     1       2.524   6.550  19.102  0.00  0.00    +0.000 C 
ATOM      4  C   UNL     1       3.970   6.044  19.330  0.00  0.00    +0.000 C 
ENDROOT
BRANCH   1   5
ATOM      5  S   UNL     1       4.677   3.762  17.803  0.00  0.00    +0.000 S 
ATOM      6  O   UNL     1       3.630   2.797  17.525  0.00  0.00    +0.000 OA
ATOM      7  O   UNL     1       5.620   3.559  18.878  0.00  0.00    +0.000 OA
BRANCH   5   8
ATOM      8  C   UNL     1       5.547   4.061  16.292  0.00  0.00    +0.000 C 
BRANCH   8  10
ATOM      9  O   UNL     1       7.809   4.548  16.934  0.00  0.00    +0.000 OA
ATOM     10  C   UNL     1       6.709   4.969  16.571  0.00  0.00    +0.000 C 
ATOM     11  N   UNL     1       6.435   6.318  16.518  0.00  0.00    +0.000 N 
ATOM     12  H   UNL     1       5.714   6.691  15.894  0.00  0.00    +0.000 HD
BRANCH  11  13
ATOM     13  O   UNL     1       7.550   7.169  16.730  0.00  0.00    +0.000 OA
ATOM     14  H   UNL     1       7.658   7.608  15.858  0.00  0.00    +0.000 HD
ENDBRANCH  11  13
ENDBRANCH   8  10
ENDBRANCH   5   8
ENDBRANCH   1   5
BRANCH   3  15
ATOM     15  O   UNL     1       2.363   7.898  18.594  0.00  0.00    +0.000 OA
BRANCH  15  16
ATOM     16  C   UNL     1       1.513   8.735  19.273  0.00  0.00    +0.000 A 
ATOM     17  C   UNL     1       0.897   9.733  18.525  0.00  0.00    +0.000 A 
ATOM     18  C   UNL     1       0.017  10.635  19.140  0.00  0.00    +0.000 A 
ATOM     19  C   UNL     1      -0.288  10.545  20.511  0.00  0.00    +0.000 A 
ATOM     20  C   UNL     1       0.321   9.503  21.230  0.00  0.00    +0.000 A 
ATOM     21  C   UNL     1       1.213   8.610  20.624  0.00  0.00    +0.000 A 
BRANCH  19  22
ATOM     22  C   UNL     1      -1.207  11.503  21.173  0.00  0.00    +0.000 A 
ATOM     23  C   UNL     1      -1.315  11.578  22.574  0.00  0.00    +0.000 A 
ATOM     24  C   UNL     1      -2.197  12.469  23.194  0.00  0.00    +0.000 A 
ATOM     25  C   UNL     1      -2.984  13.323  22.428  0.00  0.00    +0.000 A 
ATOM     26  C   UNL     1      -2.890  13.283  21.042  0.00  0.00    +0.000 A 
ATOM     27  C   UNL     1      -2.018  12.380  20.424  0.00  0.00    +0.000 A 
ENDBRANCH  19  22
ENDBRANCH  15  16
ENDBRANCH   3  15
TORSDOF 7
ENDMDL
MODEL 8
REMARK VINA RESULT:      -7.1      3.883      9.855
REMARK  Name = 
REMARK  7 active torsions:
REMARK  status: ('A' for Active; 'I' for Inactive)
REMARK    1  A    between atoms: C_2  and  C_3
REMARK    2  A    between atoms: C_3  and  S_4
REMARK    3  A    between atoms: S_4  and  N_7
REMARK    4  A    between atoms: C_9  and  O_10
REMARK    5  A    between atoms: O_10  and  C_11
REMARK    6  A    between atoms: C_14  and  C_15
REMARK    7  A    between atoms: N_24  and  O_25
REMARK                            x       y       z     vdW  Elec       q    Type
REMARK                         _______ _______ _______ _____ _____    ______ ____
ROOT
ATOM      1  N   UNL     1       4.020   5.339  17.920  0.00  0.00    +0.000 NA
ATOM      2  C   UNL     1       2.527   5.437  17.996  0.00  0.00    +0.000 C 
ATOM      3  C   UNL     1       2.627   6.604  18.999  0.00  0.00    +0.000 C 
ATOM      4  C   UNL     1       4.104   6.172  19.166  0.00  0.00    +0.000 C 
ENDROOT
BRANCH   1   5
ATOM      5  S   UNL     1       4.838   3.875  17.672  0.00  0.00    +0.000 S 
ATOM      6  O   UNL     1       3.829   2.835  17.618  0.00  0.00    +0.000 OA
ATOM      7  O   UNL     1       5.931   3.815  18.613  0.00  0.00    +0.000 OA
BRANCH   5   8
ATOM      8  C   UNL     1       5.469   4.096  16.034  0.00  0.00    +0.000 C 
BRANCH   8  10
ATOM      9  O   UNL     1       5.635   6.316  15.132  0.00  0.00    +0.000 OA
ATOM     10  C   UNL     1       6.061   5.471  15.923  0.00  0.00    +0.000 C 
ATOM     11  N   UNL     1       7.196   5.693  16.672  0.00  0.00    +0.000 N 
ATOM     12  H   UNL     1       7.350   5.208  17.561  0.00  0.00    +0.000 HD
BRANCH  11  13
ATOM     13  O   UNL     1       7.718   7.009  16.602  0.00  0.00    +0.000 OA
ATOM     14  H   UNL     1       8.689   6.859  16.604  0.00  0.00    +0.000 HD
ENDBRANCH  11  13
ENDBRANCH   8  10
ENDBRANCH   5   8
ENDBRANCH   1   5
BRANCH   3  15
ATOM     15  O   UNL     1       2.376   7.926  18.460  0.00  0.00    +0.000 OA
BRANCH  15  16
ATOM     16  C   UNL     1       1.529   8.748  19.162  0.00  0.00    +0.000 A 
ATOM     17  C   UNL     1       0.902   9.756  18.437  0.00  0.00    +0.000 A 
ATOM     18  C   UNL     1       0.024  10.643  19.076  0.00  0.00    +0.000 A 
ATOM     19  C   UNL     1      -0.267  10.529  20.448  0.00  0.00    +0.000 A 
ATOM     20  C   UNL     1       0.354   9.478  21.143  0.00  0.00    +0.000 A 
ATOM     21  C   UNL     1       1.244   8.598  20.513  0.00  0.00    +0.000 A 
BRANCH  19  22
ATOM     22  C   UNL     1      -1.183  11.472  21.135  0.00  0.00    +0.000 A 
ATOM     23  C   UNL     1      -1.981  12.383  20.419  0.00  0.00    +0.000 A 
ATOM     24  C   UNL     1      -2.830  13.284  21.070  0.00  0.00    +0.000 A 
ATOM     25  C   UNL     1      -2.915  13.286  22.459  0.00  0.00    +0.000 A 
ATOM     26  C   UNL     1      -2.150  12.388  23.195  0.00  0.00    +0.000 A 
ATOM     27  C   UNL     1      -1.291  11.499  22.540  0.00  0.00    +0.000 A 
ENDBRANCH  19  22
ENDBRANCH  15  16
ENDBRANCH   3  15
TORSDOF 7
ENDMDL
MODEL 9
REMARK VINA RESULT:      -7.1      4.249      9.588
REMARK  Name = 
REMARK  7 active torsions:
REMARK  status: ('A' for Active; 'I' for Inactive)
REMARK    1  A    between atoms: C_2  and  C_3
REMARK    2  A    between atoms: C_3  and  S_4
REMARK    3  A    between atoms: S_4  and  N_7
REMARK    4  A    between atoms: C_9  and  O_10
REMARK    5  A    between atoms: O_10  and  C_11
REMARK    6  A    between atoms: C_14  and  C_15
REMARK    7  A    between atoms: N_24  and  O_25
REMARK                            x       y       z     vdW  Elec       q    Type
REMARK                         _______ _______ _______ _____ _____    ______ ____
ROOT
ATOM      1  N   UNL     1       4.733   5.575  17.138  0.00  0.00    +0.000 NA
ATOM      2  C   UNL     1       4.159   6.955  17.230  0.00  0.00    +0.000 C 
ATOM      3  C   UNL     1       2.944   6.428  18.020  0.00  0.00    +0.000 C 
ATOM      4  C   UNL     1       3.393   5.028  17.534  0.00  0.00    +0.000 C 
ENDROOT
BRANCH   1   5
ATOM      5  S   UNL     1       5.647   5.042  15.814  0.00  0.00    +0.000 S 
ATOM      6  O   UNL     1       5.993   6.220  15.041  0.00  0.00    +0.000 OA
ATOM      7  O   UNL     1       4.951   3.927  15.215  0.00  0.00    +0.000 OA
BRANCH   5   8
ATOM      8  C   UNL     1       7.120   4.470  16.609  0.00  0.00    +0.000 C 
BRANCH   8  10
ATOM      9  O   UNL     1       7.935   6.431  17.732  0.00  0.00    +0.000 OA
ATOM     10  C   UNL     1       7.389   5.328  17.811  0.00  0.00    +0.000 C 
ATOM     11  N   UNL     1       7.100   4.753  19.029  0.00  0.00    +0.000 N 
ATOM     12  H   UNL     1       6.348   4.064  19.128  0.00  0.00    +0.000 HD
BRANCH  11  13
ATOM     13  O   UNL     1       7.306   5.589  20.156  0.00  0.00    +0.000 OA
ATOM     14  H   UNL     1       6.391   5.772  20.461  0.00  0.00    +0.000 HD
ENDBRANCH  11  13
ENDBRANCH   8  10
ENDBRANCH   5   8
ENDBRANCH   1   5
BRANCH   3  15
ATOM     15  O   UNL     1       2.962   6.674  19.449  0.00  0.00    +0.000 OA
BRANCH  15  16
ATOM     16  C   UNL     1       2.115   7.638  19.937  0.00  0.00    +0.000 A 
ATOM     17  C   UNL     1       1.697   8.612  19.036  0.00  0.00    +0.000 A 
ATOM     18  C   UNL     1       0.835   9.636  19.452  0.00  0.00    +0.000 A 
ATOM     19  C   UNL     1       0.350   9.698  20.771  0.00  0.00    +0.000 A 
ATOM     20  C   UNL     1       0.761   8.679  21.647  0.00  0.00    +0.000 A 
ATOM     21  C   UNL     1       1.634   7.662  21.241  0.00  0.00    +0.000 A 
BRANCH  19  22
ATOM     22  C   UNL     1      -0.551  10.786  21.224  0.00  0.00    +0.000 A 
ATOM     23  C   UNL     1      -0.971  10.890  22.563  0.00  0.00    +0.000 A 
ATOM     24  C   UNL     1      -1.836  11.906  22.983  0.00  0.00    +0.000 A 
ATOM     25  C   UNL     1      -2.292  12.856  22.075  0.00  0.00    +0.000 A 
ATOM     26  C   UNL     1      -1.884  12.789  20.748  0.00  0.00    +0.000 A 
ATOM     27  C   UNL     1      -1.030  11.763  20.329  0.00  0.00    +0.000 A 
ENDBRANCH  19  22
ENDBRANCH  15  16
ENDBRANCH   3  15
TORSDOF 7
ENDMDL
