MODEL 1
REMARK VINA RESULT:      -6.4      0.000      0.000
REMARK  Name = 
REMARK  10 active torsions:
REMARK  status: ('A' for Active; 'I' for Inactive)
REMARK    1  A    between atoms: C_1  and  O_2
REMARK    2  A    between atoms: O_2  and  C_3
REMARK    3  A    between atoms: C_6  and  C_7
REMARK    4  A    between atoms: C_17  and  C_18
REMARK    5  A    between atoms: C_18  and  N_19
REMARK    6  A    between atoms: N_19  and  C_20
REMARK    7  A    between atoms: N_19  and  C_21
REMARK    8  A    between atoms: C_25  and  O_26
REMARK    9  A    between atoms: O_26  and  C_27
REMARK   10  A    between atoms: C_27  and  C_28
REMARK                            x       y       z     vdW  Elec       q    Type
REMARK                         _______ _______ _______ _____ _____    ______ ____
ROOT
ATOM      1  C   UNL     1      -0.221  12.259  20.205  0.00  0.00    +0.000 C 
ATOM      2  S   UNL     1       1.472  12.838  19.779  0.00  0.00    +0.000 S 
ATOM      3  C   UNL     1       1.332  14.696  20.478  0.00  0.00    +0.000 A 
ATOM      4  C   UNL     1       1.906  15.499  19.480  0.00  0.00    +0.000 A 
ATOM      5 CL   UNL     1       3.609  15.746  19.442  0.00  0.00    +0.000 Cl
ATOM      6  C   UNL     1       1.087  16.124  18.541  0.00  0.00    +0.000 A 
ATOM      7  C   UNL     1      -0.295  16.097  18.719  0.00  0.00    +0.000 A 
ATOM      8  C   UNL     1      -0.823  15.645  19.934  0.00  0.00    +0.000 A 
ATOM      9  C   UNL     1       0.026  15.019  20.865  0.00  0.00    +0.000 A 
ATOM     10  N   UNL     1      -0.507  14.557  22.100  0.00  0.00    +0.000 N 
ATOM     11  C   UNL     1      -0.950  15.391  23.118  0.00  0.00    +0.000 A 
ATOM     12  C   UNL     1      -1.622  14.615  24.046  0.00  0.00    +0.000 A 
ATOM     13  C   UNL     1      -1.509  13.274  23.641  0.00  0.00    +0.000 A 
ATOM     14  C   UNL     1      -0.739  13.239  22.488  0.00  0.00    +0.000 A 
ATOM     15  C   UNL     1      -0.205  12.015  21.747  0.00  0.00    +0.000 C 
ENDROOT
BRANCH   1  19
ATOM     16  C   UNL     1      -2.228  10.243  16.950  0.00  0.00    +0.000 A 
ATOM     17  C   UNL     1      -1.024   9.730  17.433  0.00  0.00    +0.000 A 
ATOM     18  C   UNL     1      -0.407  10.274  18.570  0.00  0.00    +0.000 A 
ATOM     19  C   UNL     1      -0.982  11.362  19.237  0.00  0.00    +0.000 A 
ATOM     20  C   UNL     1      -2.204  11.864  18.732  0.00  0.00    +0.000 A 
ATOM     21  C   UNL     1      -2.819  11.315  17.604  0.00  0.00    +0.000 A 
BRANCH  16  23
ATOM     22  C   UNL     1      -3.352  10.552  14.897  0.00  0.00    +0.000 C 
ATOM     23  O   UNL     1      -2.701   9.667  15.803  0.00  0.00    +0.000 OA
ENDBRANCH  16  23
ENDBRANCH   1  19
BRANCH  11  24
ATOM     24  C   UNL     1      -0.596  16.840  23.219  0.00  0.00    +0.000 C 
BRANCH  24  25
ATOM     25  N   UNL     1       0.774  17.080  23.683  0.00  0.00    +0.000 NA
ATOM     26  C   UNL     1       1.542  17.884  22.730  0.00  0.00    +0.000 C 
ATOM     27  C   UNL     1       0.713  17.790  24.971  0.00  0.00    +0.000 C 
ENDBRANCH  24  25
ENDBRANCH  11  24
BRANCH  15  28
ATOM     28  O   UNL     1      -1.004  10.878  22.118  0.00  0.00    +0.000 OA
BRANCH  28  29
ATOM     29  C   UNL     1      -0.331   9.834  22.688  0.00  0.00    +0.000 C 
ATOM     30  C   UNL     1      -0.380   8.633  21.789  0.00  0.00    +0.000 C 
ATOM     31  O   UNL     1       0.189   9.832  23.783  0.00  0.00    +0.000 OA
ENDBRANCH  28  29
ENDBRANCH  15  28
TORSDOF 6
ENDMDL
MODEL 2
REMARK VINA RESULT:      -6.2      0.769      1.065
REMARK  Name = 
REMARK  10 active torsions:
REMARK  status: ('A' for Active; 'I' for Inactive)
REMARK    1  A    between atoms: C_1  and  O_2
REMARK    2  A    between atoms: O_2  and  C_3
REMARK    3  A    between atoms: C_6  and  C_7
REMARK    4  A    between atoms: C_17  and  C_18
REMARK    5  A    between atoms: C_18  and  N_19
REMARK    6  A    between atoms: N_19  and  C_20
REMARK    7  A    between atoms: N_19  and  C_21
REMARK    8  A    between atoms: C_25  and  O_26
REMARK    9  A    between atoms: O_26  and  C_27
REMARK   10  A    between atoms: C_27  and  C_28
REMARK                            x       y       z     vdW  Elec       q    Type
REMARK                         _______ _______ _______ _____ _____    ______ ____
ROOT
ATOM      1  C   UNL     1      -0.210  12.259  20.197  0.00  0.00    +0.000 C 
ATOM      2  S   UNL     1       1.486  12.822  19.761  0.00  0.00    +0.000 S 
ATOM      3  C   UNL     1       1.360  14.689  20.439  0.00  0.00    +0.000 A 
ATOM      4  C   UNL     1       1.936  15.477  19.430  0.00  0.00    +0.000 A 
ATOM      5 CL   UNL     1       3.640  15.713  19.386  0.00  0.00    +0.000 Cl
ATOM      6  C   UNL     1       1.118  16.097  18.486  0.00  0.00    +0.000 A 
ATOM      7  C   UNL     1      -0.263  16.081  18.669  0.00  0.00    +0.000 A 
ATOM      8  C   UNL     1      -0.791  15.646  19.890  0.00  0.00    +0.000 A 
ATOM      9  C   UNL     1       0.057  15.025  20.826  0.00  0.00    +0.000 A 
ATOM     10  N   UNL     1      -0.476  14.580  22.067  0.00  0.00    +0.000 N 
ATOM     11  C   UNL     1      -0.911  15.428  23.077  0.00  0.00    +0.000 A 
ATOM     12  C   UNL     1      -1.586  14.667  24.015  0.00  0.00    +0.000 A 
ATOM     13  C   UNL     1      -1.483  13.321  23.625  0.00  0.00    +0.000 A 
ATOM     14  C   UNL     1      -0.716  13.268  22.471  0.00  0.00    +0.000 A 
ATOM     15  C   UNL     1      -0.192  12.033  21.741  0.00  0.00    +0.000 C 
ENDROOT
BRANCH   1  19
ATOM     16  C   UNL     1      -2.265  10.234  16.977  0.00  0.00    +0.000 A 
ATOM     17  C   UNL     1      -1.039   9.740  17.424  0.00  0.00    +0.000 A 
ATOM     18  C   UNL     1      -0.403  10.286  18.549  0.00  0.00    +0.000 A 
ATOM     19  C   UNL     1      -0.980  11.357  19.241  0.00  0.00    +0.000 A 
ATOM     20  C   UNL     1      -2.224  11.839  18.773  0.00  0.00    +0.000 A 
ATOM     21  C   UNL     1      -2.858  11.290  17.657  0.00  0.00    +0.000 A 
BRANCH  16  23
ATOM     22  C   UNL     1      -3.242  10.568  14.854  0.00  0.00    +0.000 C 
ATOM     23  O   UNL     1      -2.757   9.660  15.838  0.00  0.00    +0.000 OA
ENDBRANCH  16  23
ENDBRANCH   1  19
BRANCH  11  24
ATOM     24  C   UNL     1      -0.547  16.876  23.161  0.00  0.00    +0.000 C 
BRANCH  24  25
ATOM     25  N   UNL     1      -1.700  17.778  23.087  0.00  0.00    +0.000 NA
ATOM     26  C   UNL     1      -2.842  17.153  22.415  0.00  0.00    +0.000 C 
ATOM     27  C   UNL     1      -2.092  18.148  24.456  0.00  0.00    +0.000 C 
ENDBRANCH  24  25
ENDBRANCH  11  24
BRANCH  15  28
ATOM     28  O   UNL     1      -0.997  10.904  22.128  0.00  0.00    +0.000 OA
BRANCH  28  29
ATOM     29  C   UNL     1      -0.328   9.859  22.697  0.00  0.00    +0.000 C 
ATOM     30  C   UNL     1      -0.412   8.647  21.815  0.00  0.00    +0.000 C 
ATOM     31  O   UNL     1       0.213   9.863  23.782  0.00  0.00    +0.000 OA
ENDBRANCH  28  29
ENDBRANCH  15  28
TORSDOF 6
ENDMDL
MODEL 3
REMARK VINA RESULT:      -6.1      3.862      6.715
REMARK  Name = 
REMARK  10 active torsions:
REMARK  status: ('A' for Active; 'I' for Inactive)
REMARK    1  A    between atoms: C_1  and  O_2
REMARK    2  A    between atoms: O_2  and  C_3
REMARK    3  A    between atoms: C_6  and  C_7
REMARK    4  A    between atoms: C_17  and  C_18
REMARK    5  A    between atoms: C_18  and  N_19
REMARK    6  A    between atoms: N_19  and  C_20
REMARK    7  A    between atoms: N_19  and  C_21
REMARK    8  A    between atoms: C_25  and  O_26
REMARK    9  A    between atoms: O_26  and  C_27
REMARK   10  A    between atoms: C_27  and  C_28
REMARK                            x       y       z     vdW  Elec       q    Type
REMARK                         _______ _______ _______ _____ _____    ______ ____
ROOT
ATOM      1  C   UNL     1      -1.321  13.181  20.596  0.00  0.00    +0.000 C 
ATOM      2  S   UNL     1      -1.697  12.691  22.328  0.00  0.00    +0.000 S 
ATOM      3  C   UNL     1      -3.682  12.635  22.194  0.00  0.00    +0.000 A 
ATOM      4  C   UNL     1      -4.139  13.283  23.352  0.00  0.00    +0.000 A 
ATOM      5 CL   UNL     1      -4.312  12.405  24.822  0.00  0.00    +0.000 Cl
ATOM      6  C   UNL     1      -4.486  14.633  23.297  0.00  0.00    +0.000 A 
ATOM      7  C   UNL     1      -4.554  15.267  22.058  0.00  0.00    +0.000 A 
ATOM      8  C   UNL     1      -4.495  14.500  20.889  0.00  0.00    +0.000 A 
ATOM      9  C   UNL     1      -4.145  13.140  20.972  0.00  0.00    +0.000 A 
ATOM     10  N   UNL     1      -4.082  12.359  19.786  0.00  0.00    +0.000 N 
ATOM     11  C   UNL     1      -5.191  11.990  19.036  0.00  0.00    +0.000 A 
ATOM     12  C   UNL     1      -4.743  11.460  17.839  0.00  0.00    +0.000 A 
ATOM     13  C   UNL     1      -3.340  11.414  17.893  0.00  0.00    +0.000 A 
ATOM     14  C   UNL     1      -2.944  11.885  19.136  0.00  0.00    +0.000 A 
ATOM     15  C   UNL     1      -1.541  11.894  19.739  0.00  0.00    +0.000 C 
ENDROOT
BRANCH   1  19
ATOM     16  C   UNL     1       2.203  15.426  19.486  0.00  0.00    +0.000 A 
ATOM     17  C   UNL     1       1.009  15.642  18.797  0.00  0.00    +0.000 A 
ATOM     18  C   UNL     1      -0.187  15.034  19.208  0.00  0.00    +0.000 A 
ATOM     19  C   UNL     1      -0.203  14.177  20.315  0.00  0.00    +0.000 A 
ATOM     20  C   UNL     1       1.017  13.975  21.000  0.00  0.00    +0.000 A 
ATOM     21  C   UNL     1       2.204  14.587  20.593  0.00  0.00    +0.000 A 
BRANCH  16  23
ATOM     22  C   UNL     1       3.108  16.705  17.720  0.00  0.00    +0.000 C 
ATOM     23  O   UNL     1       3.311  16.026  18.956  0.00  0.00    +0.000 OA
ENDBRANCH  16  23
ENDBRANCH   1  19
BRANCH  11  24
ATOM     24  C   UNL     1      -6.595  12.036  19.550  0.00  0.00    +0.000 C 
BRANCH  24  25
ATOM     25  N   UNL     1      -6.802  11.249  20.768  0.00  0.00    +0.000 NA
ATOM     26  C   UNL     1      -7.632  11.958  21.745  0.00  0.00    +0.000 C 
ATOM     27  C   UNL     1      -7.463   9.986  20.402  0.00  0.00    +0.000 C 
ENDBRANCH  24  25
ENDBRANCH  11  24
BRANCH  15  28
ATOM     28  O   UNL     1      -0.587  11.795  18.666  0.00  0.00    +0.000 OA
BRANCH  28  29
ATOM     29  C   UNL     1       0.514  11.025  18.913  0.00  0.00    +0.000 C 
ATOM     30  C   UNL     1       0.158   9.887  19.825  0.00  0.00    +0.000 C 
ATOM     31  O   UNL     1       1.639  11.240  18.514  0.00  0.00    +0.000 OA
ENDBRANCH  28  29
ENDBRANCH  15  28
TORSDOF 6
ENDMDL
MODEL 4
REMARK VINA RESULT:      -6.1      3.371      6.008
REMARK  Name = 
REMARK  10 active torsions:
REMARK  status: ('A' for Active; 'I' for Inactive)
REMARK    1  A    between atoms: C_1  and  O_2
REMARK    2  A    between atoms: O_2  and  C_3
REMARK    3  A    between atoms: C_6  and  C_7
REMARK    4  A    between atoms: C_17  and  C_18
REMARK    5  A    between atoms: C_18  and  N_19
REMARK    6  A    between atoms: N_19  and  C_20
REMARK    7  A    between atoms: N_19  and  C_21
REMARK    8  A    between atoms: C_25  and  O_26
REMARK    9  A    between atoms: O_26  and  C_27
REMARK   10  A    between atoms: C_27  and  C_28
REMARK                            x       y       z     vdW  Elec       q    Type
REMARK                         _______ _______ _______ _____ _____    ______ ____
ROOT
ATOM      1  C   UNL     1      -2.087  12.692  22.431  0.00  0.00    +0.000 C 
ATOM      2  S   UNL     1      -0.982  11.229  22.572  0.00  0.00    +0.000 S 
ATOM      3  C   UNL     1       0.083  11.503  20.913  0.00  0.00    +0.000 A 
ATOM      4  C   UNL     1       0.161  10.232  20.322  0.00  0.00    +0.000 A 
ATOM      5 CL   UNL     1       1.385   9.125  20.808  0.00  0.00    +0.000 Cl
ATOM      6  C   UNL     1      -0.738   9.884  19.314  0.00  0.00    +0.000 A 
ATOM      7  C   UNL     1      -1.572  10.865  18.779  0.00  0.00    +0.000 A 
ATOM      8  C   UNL     1      -1.345  12.209  19.097  0.00  0.00    +0.000 A 
ATOM      9  C   UNL     1      -0.432  12.532  20.117  0.00  0.00    +0.000 A 
ATOM     10  N   UNL     1      -0.201  13.897  20.444  0.00  0.00    +0.000 N 
ATOM     11  C   UNL     1       0.460  14.794  19.616  0.00  0.00    +0.000 A 
ATOM     12  C   UNL     1       0.283  16.066  20.134  0.00  0.00    +0.000 A 
ATOM     13  C   UNL     1      -0.415  15.938  21.347  0.00  0.00    +0.000 A 
ATOM     14  C   UNL     1      -0.628  14.587  21.577  0.00  0.00    +0.000 A 
ATOM     15  C   UNL     1      -1.207  13.921  22.824  0.00  0.00    +0.000 C 
ENDROOT
BRANCH   1  19
ATOM     16  C   UNL     1      -6.121  12.949  23.962  0.00  0.00    +0.000 A 
ATOM     17  C   UNL     1      -5.867  13.312  22.640  0.00  0.00    +0.000 A 
ATOM     18  C   UNL     1      -4.602  13.121  22.064  0.00  0.00    +0.000 A 
ATOM     19  C   UNL     1      -3.556  12.575  22.816  0.00  0.00    +0.000 A 
ATOM     20  C   UNL     1      -3.836  12.211  24.153  0.00  0.00    +0.000 A 
ATOM     21  C   UNL     1      -5.098  12.396  24.721  0.00  0.00    +0.000 A 
BRANCH  16  23
ATOM     22  C   UNL     1      -7.916  14.482  23.994  0.00  0.00    +0.000 C 
ATOM     23  O   UNL     1      -7.374  13.238  24.427  0.00  0.00    +0.000 OA
ENDBRANCH  16  23
ENDBRANCH   1  19
BRANCH  11  24
ATOM     24  C   UNL     1       1.327  14.385  18.469  0.00  0.00    +0.000 C 
BRANCH  24  25
ATOM     25  N   UNL     1       2.515  13.625  18.870  0.00  0.00    +0.000 NA
ATOM     26  C   UNL     1       2.607  12.341  18.171  0.00  0.00    +0.000 C 
ATOM     27  C   UNL     1       3.709  14.427  18.561  0.00  0.00    +0.000 C 
ENDBRANCH  24  25
ENDBRANCH  11  24
BRANCH  15  28
ATOM     28  O   UNL     1      -1.957  14.907  23.555  0.00  0.00    +0.000 OA
BRANCH  28  29
ATOM     29  C   UNL     1      -1.518  15.177  24.819  0.00  0.00    +0.000 C 
ATOM     30  C   UNL     1      -2.679  15.253  25.768  0.00  0.00    +0.000 C 
ATOM     31  O   UNL     1      -0.370  15.388  25.146  0.00  0.00    +0.000 OA
ENDBRANCH  28  29
ENDBRANCH  15  28
TORSDOF 6
ENDMDL
MODEL 5
REMARK VINA RESULT:      -5.9      0.724      1.135
REMARK  Name = 
REMARK  10 active torsions:
REMARK  status: ('A' for Active; 'I' for Inactive)
REMARK    1  A    between atoms: C_1  and  O_2
REMARK    2  A    between atoms: O_2  and  C_3
REMARK    3  A    between atoms: C_6  and  C_7
REMARK    4  A    between atoms: C_17  and  C_18
REMARK    5  A    between atoms: C_18  and  N_19
REMARK    6  A    between atoms: N_19  and  C_20
REMARK    7  A    between atoms: N_19  and  C_21
REMARK    8  A    between atoms: C_25  and  O_26
REMARK    9  A    between atoms: O_26  and  C_27
REMARK   10  A    between atoms: C_27  and  C_28
REMARK                            x       y       z     vdW  Elec       q    Type
REMARK                         _______ _______ _______ _____ _____    ______ ____
ROOT
ATOM      1  C   UNL     1       0.374  12.560  19.912  0.00  0.00    +0.000 C 
ATOM      2  S   UNL     1       2.151  13.010  19.761  0.00  0.00    +0.000 S 
ATOM      3  C   UNL     1       2.085  14.778  20.675  0.00  0.00    +0.000 A 
ATOM      4  C   UNL     1       2.847  15.631  19.861  0.00  0.00    +0.000 A 
ATOM      5 CL   UNL     1       4.556  15.707  20.050  0.00  0.00    +0.000 Cl
ATOM      6  C   UNL     1       2.210  16.442  18.924  0.00  0.00    +0.000 A 
ATOM      7  C   UNL     1       0.819  16.535  18.938  0.00  0.00    +0.000 A 
ATOM      8  C   UNL     1       0.106  15.998  20.017  0.00  0.00    +0.000 A 
ATOM      9  C   UNL     1       0.773  15.183  20.949  0.00  0.00    +0.000 A 
ATOM     10  N   UNL     1       0.051  14.635  22.044  0.00  0.00    +0.000 N 
ATOM     11  C   UNL     1      -0.442  15.383  23.105  0.00  0.00    +0.000 A 
ATOM     12  C   UNL     1      -1.291  14.575  23.841  0.00  0.00    +0.000 A 
ATOM     13  C   UNL     1      -1.244  13.287  23.282  0.00  0.00    +0.000 A 
ATOM     14  C   UNL     1      -0.341  13.310  22.230  0.00  0.00    +0.000 A 
ATOM     15  C   UNL     1       0.174  12.135  21.401  0.00  0.00    +0.000 C 
ENDROOT
BRANCH   1  19
ATOM     16  C   UNL     1      -1.920  10.143  17.158  0.00  0.00    +0.000 A 
ATOM     17  C   UNL     1      -2.326  11.452  17.420  0.00  0.00    +0.000 A 
ATOM     18  C   UNL     1      -1.541  12.312  18.203  0.00  0.00    +0.000 A 
ATOM     19  C   UNL     1      -0.334  11.866  18.755  0.00  0.00    +0.000 A 
ATOM     20  C   UNL     1       0.059  10.538  18.473  0.00  0.00    +0.000 A 
ATOM     21  C   UNL     1      -0.721   9.686  17.688  0.00  0.00    +0.000 A 
BRANCH  16  23
ATOM     22  C   UNL     1      -3.199   9.940  15.184  0.00  0.00    +0.000 C 
ATOM     23  O   UNL     1      -2.797   9.385  16.432  0.00  0.00    +0.000 OA
ENDBRANCH  16  23
ENDBRANCH   1  19
BRANCH  11  24
ATOM     24  C   UNL     1       0.020  16.766  23.433  0.00  0.00    +0.000 C 
BRANCH  24  25
ATOM     25  N   UNL     1       1.260  16.803  24.213  0.00  0.00    +0.000 NA
ATOM     26  C   UNL     1       2.361  17.415  23.465  0.00  0.00    +0.000 C 
ATOM     27  C   UNL     1       1.020  17.582  25.438  0.00  0.00    +0.000 C 
ENDBRANCH  24  25
ENDBRANCH  11  24
BRANCH  15  28
ATOM     28  O   UNL     1      -0.760  11.049  21.529  0.00  0.00    +0.000 OA
BRANCH  28  29
ATOM     29  C   UNL     1      -0.362  10.006  22.316  0.00  0.00    +0.000 C 
ATOM     30  C   UNL     1      -0.416   8.721  21.542  0.00  0.00    +0.000 C 
ATOM     31  O   UNL     1      -0.061  10.071  23.488  0.00  0.00    +0.000 OA
ENDBRANCH  28  29
ENDBRANCH  15  28
TORSDOF 6
ENDMDL
MODEL 6
REMARK VINA RESULT:      -5.9      3.770      6.663
REMARK  Name = 
REMARK  10 active torsions:
REMARK  status: ('A' for Active; 'I' for Inactive)
REMARK    1  A    between atoms: C_1  and  O_2
REMARK    2  A    between atoms: O_2  and  C_3
REMARK    3  A    between atoms: C_6  and  C_7
REMARK    4  A    between atoms: C_17  and  C_18
REMARK    5  A    between atoms: C_18  and  N_19
REMARK    6  A    between atoms: N_19  and  C_20
REMARK    7  A    between atoms: N_19  and  C_21
REMARK    8  A    between atoms: C_25  and  O_26
REMARK    9  A    between atoms: O_26  and  C_27
REMARK   10  A    between atoms: C_27  and  C_28
REMARK                            x       y       z     vdW  Elec       q    Type
REMARK                         _______ _______ _______ _____ _____    ______ ____
ROOT
ATOM      1  C   UNL     1      -1.104  12.837  20.461  0.00  0.00    +0.000 C 
ATOM      2  S   UNL     1      -1.492  12.464  22.220  0.00  0.00    +0.000 S 
ATOM      3  C   UNL     1      -3.475  12.602  22.118  0.00  0.00    +0.000 A 
ATOM      4  C   UNL     1      -3.843  13.343  23.253  0.00  0.00    +0.000 A 
ATOM      5 CL   UNL     1      -4.073  12.552  24.764  0.00  0.00    +0.000 Cl
ATOM      6  C   UNL     1      -4.054  14.716  23.141  0.00  0.00    +0.000 A 
ATOM      7  C   UNL     1      -4.084  15.299  21.875  0.00  0.00    +0.000 A 
ATOM      8  C   UNL     1      -4.125  14.478  20.742  0.00  0.00    +0.000 A 
ATOM      9  C   UNL     1      -3.910  13.096  20.882  0.00  0.00    +0.000 A 
ATOM     10  N   UNL     1      -3.948  12.260  19.732  0.00  0.00    +0.000 N 
ATOM     11  C   UNL     1      -5.103  11.971  19.018  0.00  0.00    +0.000 A 
ATOM     12  C   UNL     1      -4.734  11.346  17.839  0.00  0.00    +0.000 A 
ATOM     13  C   UNL     1      -3.341  11.163  17.874  0.00  0.00    +0.000 A 
ATOM     14  C   UNL     1      -2.876  11.646  19.088  0.00  0.00    +0.000 A 
ATOM     15  C   UNL     1      -1.467  11.542  19.668  0.00  0.00    +0.000 C 
ENDROOT
BRANCH   1  19
ATOM     16  C   UNL     1       1.922  15.852  19.793  0.00  0.00    +0.000 A 
ATOM     17  C   UNL     1       2.136  14.871  20.762  0.00  0.00    +0.000 A 
ATOM     18  C   UNL     1       1.243  13.801  20.921  0.00  0.00    +0.000 A 
ATOM     19  C   UNL     1       0.101  13.703  20.117  0.00  0.00    +0.000 A 
ATOM     20  C   UNL     1      -0.094  14.706  19.139  0.00  0.00    +0.000 A 
ATOM     21  C   UNL     1       0.800  15.766  18.978  0.00  0.00    +0.000 A 
BRANCH  16  23
ATOM     22  C   UNL     1       3.824  16.791  18.757  0.00  0.00    +0.000 C 
ATOM     23  O   UNL     1       2.829  16.875  19.773  0.00  0.00    +0.000 OA
ENDBRANCH  16  23
ENDBRANCH   1  19
BRANCH  11  24
ATOM     24  C   UNL     1      -6.485  12.180  19.550  0.00  0.00    +0.000 C 
BRANCH  24  25
ATOM     25  N   UNL     1      -6.758  11.440  20.785  0.00  0.00    +0.000 NA
ATOM     26  C   UNL     1      -7.522  12.239  21.746  0.00  0.00    +0.000 C 
ATOM     27  C   UNL     1      -7.527  10.232  20.446  0.00  0.00    +0.000 C 
ENDBRANCH  24  25
ENDBRANCH  11  24
BRANCH  15  28
ATOM     28  O   UNL     1      -0.550  11.300  18.586  0.00  0.00    +0.000 OA
BRANCH  28  29
ATOM     29  C   UNL     1       0.221  10.178  18.694  0.00  0.00    +0.000 C 
ATOM     30  C   UNL     1       0.229   9.688  20.113  0.00  0.00    +0.000 C 
ATOM     31  O   UNL     1       0.863   9.664  17.803  0.00  0.00    +0.000 OA
ENDBRANCH  28  29
ENDBRANCH  15  28
TORSDOF 6
ENDMDL
MODEL 7
REMARK VINA RESULT:      -5.9      3.796      6.492
REMARK  Name = 
REMARK  10 active torsions:
REMARK  status: ('A' for Active; 'I' for Inactive)
REMARK    1  A    between atoms: C_1  and  O_2
REMARK    2  A    between atoms: O_2  and  C_3
REMARK    3  A    between atoms: C_6  and  C_7
REMARK    4  A    between atoms: C_17  and  C_18
REMARK    5  A    between atoms: C_18  and  N_19
REMARK    6  A    between atoms: N_19  and  C_20
REMARK    7  A    between atoms: N_19  and  C_21
REMARK    8  A    between atoms: C_25  and  O_26
REMARK    9  A    between atoms: O_26  and  C_27
REMARK   10  A    between atoms: C_27  and  C_28
REMARK                            x       y       z     vdW  Elec       q    Type
REMARK                         _______ _______ _______ _____ _____    ______ ____
ROOT
ATOM      1  C   UNL     1      -1.092  12.856  20.638  0.00  0.00    +0.000 C 
ATOM      2  S   UNL     1      -1.562  12.409  22.359  0.00  0.00    +0.000 S 
ATOM      3  C   UNL     1      -3.534  12.624  22.191  0.00  0.00    +0.000 A 
ATOM      4  C   UNL     1      -3.919  13.319  23.348  0.00  0.00    +0.000 A 
ATOM      5 CL   UNL     1      -4.236  12.462  24.806  0.00  0.00    +0.000 Cl
ATOM      6  C   UNL     1      -4.079  14.704  23.300  0.00  0.00    +0.000 A 
ATOM      7  C   UNL     1      -4.039  15.351  22.066  0.00  0.00    +0.000 A 
ATOM      8  C   UNL     1      -4.063  14.591  20.890  0.00  0.00    +0.000 A 
ATOM      9  C   UNL     1      -3.902  13.196  20.967  0.00  0.00    +0.000 A 
ATOM     10  N   UNL     1      -3.924  12.421  19.774  0.00  0.00    +0.000 N 
ATOM     11  C   UNL     1      -5.060  12.212  19.003  0.00  0.00    +0.000 A 
ATOM     12  C   UNL     1      -4.666  11.634  17.808  0.00  0.00    +0.000 A 
ATOM     13  C   UNL     1      -3.283  11.398  17.885  0.00  0.00    +0.000 A 
ATOM     14  C   UNL     1      -2.849  11.802  19.139  0.00  0.00    +0.000 A 
ATOM     15  C   UNL     1      -1.469  11.617  19.765  0.00  0.00    +0.000 C 
ENDROOT
BRANCH   1  19
ATOM     16  C   UNL     1       2.665  14.660  19.490  0.00  0.00    +0.000 A 
ATOM     17  C   UNL     1       1.474  15.173  18.974  0.00  0.00    +0.000 A 
ATOM     18  C   UNL     1       0.229  14.705  19.420  0.00  0.00    +0.000 A 
ATOM     19  C   UNL     1       0.155  13.694  20.385  0.00  0.00    +0.000 A 
ATOM     20  C   UNL     1       1.374  13.191  20.896  0.00  0.00    +0.000 A 
ATOM     21  C   UNL     1       2.612  13.664  20.455  0.00  0.00    +0.000 A 
BRANCH  16  23
ATOM     22  C   UNL     1       3.721  15.523  17.562  0.00  0.00    +0.000 C 
ATOM     23  O   UNL     1       3.813  15.155  18.935  0.00  0.00    +0.000 OA
ENDBRANCH  16  23
ENDBRANCH   1  19
BRANCH  11  24
ATOM     24  C   UNL     1      -6.453  12.444  19.493  0.00  0.00    +0.000 C 
BRANCH  24  25
ATOM     25  N   UNL     1      -7.015  13.733  19.080  0.00  0.00    +0.000 NA
ATOM     26  C   UNL     1      -7.915  13.596  17.933  0.00  0.00    +0.000 C 
ATOM     27  C   UNL     1      -7.763  14.301  20.213  0.00  0.00    +0.000 C 
ENDBRANCH  24  25
ENDBRANCH  11  24
BRANCH  15  28
ATOM     28  O   UNL     1      -0.519  11.397  18.707  0.00  0.00    +0.000 OA
BRANCH  28  29
ATOM     29  C   UNL     1       0.177  10.223  18.762  0.00  0.00    +0.000 C 
ATOM     30  C   UNL     1       0.184   9.688  20.165  0.00  0.00    +0.000 C 
ATOM     31  O   UNL     1       0.762   9.697  17.840  0.00  0.00    +0.000 OA
ENDBRANCH  28  29
ENDBRANCH  15  28
TORSDOF 6
ENDMDL
MODEL 8
REMARK VINA RESULT:      -5.8      3.572      6.534
REMARK  Name = 
REMARK  10 active torsions:
REMARK  status: ('A' for Active; 'I' for Inactive)
REMARK    1  A    between atoms: C_1  and  O_2
REMARK    2  A    between atoms: O_2  and  C_3
REMARK    3  A    between atoms: C_6  and  C_7
REMARK    4  A    between atoms: C_17  and  C_18
REMARK    5  A    between atoms: C_18  and  N_19
REMARK    6  A    between atoms: N_19  and  C_20
REMARK    7  A    between atoms: N_19  and  C_21
REMARK    8  A    between atoms: C_25  and  O_26
REMARK    9  A    between atoms: O_26  and  C_27
REMARK   10  A    between atoms: C_27  and  C_28
REMARK                            x       y       z     vdW  Elec       q    Type
REMARK                         _______ _______ _______ _____ _____    ______ ____
ROOT
ATOM      1  C   UNL     1      -0.593  12.648  20.594  0.00  0.00    +0.000 C 
ATOM      2  S   UNL     1      -1.090  12.365  22.342  0.00  0.00    +0.000 S 
ATOM      3  C   UNL     1      -3.051  12.639  22.138  0.00  0.00    +0.000 A 
ATOM      4  C   UNL     1      -3.417  13.443  23.229  0.00  0.00    +0.000 A 
ATOM      5 CL   UNL     1      -3.774  12.725  24.752  0.00  0.00    +0.000 Cl
ATOM      6  C   UNL     1      -3.523  14.823  23.064  0.00  0.00    +0.000 A 
ATOM      7  C   UNL     1      -3.452  15.362  21.780  0.00  0.00    +0.000 A 
ATOM      8  C   UNL     1      -3.498  14.507  20.672  0.00  0.00    +0.000 A 
ATOM      9  C   UNL     1      -3.390  13.118  20.867  0.00  0.00    +0.000 A 
ATOM     10  N   UNL     1      -3.434  12.247  19.744  0.00  0.00    +0.000 N 
ATOM     11  C   UNL     1      -4.572  12.016  18.983  0.00  0.00    +0.000 A 
ATOM     12  C   UNL     1      -4.194  11.325  17.845  0.00  0.00    +0.000 A 
ATOM     13  C   UNL     1      -2.821  11.045  17.953  0.00  0.00    +0.000 A 
ATOM     14  C   UNL     1      -2.380  11.537  19.173  0.00  0.00    +0.000 A 
ATOM     15  C   UNL     1      -1.011  11.354  19.825  0.00  0.00    +0.000 C 
ENDROOT
BRANCH   1  19
ATOM     16  C   UNL     1       2.799  15.304  20.231  0.00  0.00    +0.000 A 
ATOM     17  C   UNL     1       2.969  14.054  20.827  0.00  0.00    +0.000 A 
ATOM     18  C   UNL     1       1.930  13.111  20.847  0.00  0.00    +0.000 A 
ATOM     19  C   UNL     1       0.686  13.414  20.282  0.00  0.00    +0.000 A 
ATOM     20  C   UNL     1       0.536  14.685  19.681  0.00  0.00    +0.000 A 
ATOM     21  C   UNL     1       1.574  15.618  19.656  0.00  0.00    +0.000 A 
BRANCH  16  23
ATOM     22  C   UNL     1       5.141  15.569  20.099  0.00  0.00    +0.000 C 
ATOM     23  O   UNL     1       3.863  16.157  20.326  0.00  0.00    +0.000 OA
ENDBRANCH  16  23
ENDBRANCH   1  19
BRANCH  11  24
ATOM     24  C   UNL     1      -5.959  12.340  19.439  0.00  0.00    +0.000 C 
BRANCH  24  25
ATOM     25  N   UNL     1      -6.379  11.589  20.625  0.00  0.00    +0.000 NA
ATOM     26  C   UNL     1      -6.988  12.456  21.637  0.00  0.00    +0.000 C 
ATOM     27  C   UNL     1      -7.359  10.572  20.212  0.00  0.00    +0.000 C 
ENDBRANCH  24  25
ENDBRANCH  11  24
BRANCH  15  28
ATOM     28  O   UNL     1      -0.064  11.011  18.798  0.00  0.00    +0.000 OA
BRANCH  28  29
ATOM     29  C   UNL     1       0.782   9.978  19.085  0.00  0.00    +0.000 C 
ATOM     30  C   UNL     1       1.446   9.486  17.832  0.00  0.00    +0.000 C 
ATOM     31  O   UNL     1       0.948   9.473  20.175  0.00  0.00    +0.000 OA
ENDBRANCH  28  29
ENDBRANCH  15  28
TORSDOF 6
ENDMDL
MODEL 9
REMARK VINA RESULT:      -5.8      0.788      1.064
REMARK  Name = 
REMARK  10 active torsions:
REMARK  status: ('A' for Active; 'I' for Inactive)
REMARK    1  A    between atoms: C_1  and  O_2
REMARK    2  A    between atoms: O_2  and  C_3
REMARK    3  A    between atoms: C_6  and  C_7
REMARK    4  A    between atoms: C_17  and  C_18
REMARK    5  A    between atoms: C_18  and  N_19
REMARK    6  A    between atoms: N_19  and  C_20
REMARK    7  A    between atoms: N_19  and  C_21
REMARK    8  A    between atoms: C_25  and  O_26
REMARK    9  A    between atoms: O_26  and  C_27
REMARK   10  A    between atoms: C_27  and  C_28
REMARK                            x       y       z     vdW  Elec       q    Type
REMARK                         _______ _______ _______ _____ _____    ______ ____
ROOT
ATOM      1  C   UNL     1      -0.224  12.056  20.142  0.00  0.00    +0.000 C 
ATOM      2  S   UNL     1       1.506  12.560  19.772  0.00  0.00    +0.000 S 
ATOM      3  C   UNL     1       1.438  14.408  20.506  0.00  0.00    +0.000 A 
ATOM      4  C   UNL     1       2.077  15.202  19.540  0.00  0.00    +0.000 A 
ATOM      5 CL   UNL     1       3.790  15.366  19.550  0.00  0.00    +0.000 Cl
ATOM      6  C   UNL     1       1.313  15.885  18.594  0.00  0.00    +0.000 A 
ATOM      7  C   UNL     1      -0.073  15.923  18.737  0.00  0.00    +0.000 A 
ATOM      8  C   UNL     1      -0.653  15.472  19.929  0.00  0.00    +0.000 A 
ATOM      9  C   UNL     1       0.140  14.788  20.867  0.00  0.00    +0.000 A 
ATOM     10  N   UNL     1      -0.447  14.327  22.078  0.00  0.00    +0.000 N 
ATOM     11  C   UNL     1      -0.875  15.162  23.102  0.00  0.00    +0.000 A 
ATOM     12  C   UNL     1      -1.609  14.401  23.996  0.00  0.00    +0.000 A 
ATOM     13  C   UNL     1      -1.551  13.065  23.567  0.00  0.00    +0.000 A 
ATOM     14  C   UNL     1      -0.753  13.015  22.433  0.00  0.00    +0.000 A 
ATOM     15  C   UNL     1      -0.260  11.782  21.679  0.00  0.00    +0.000 C 
ENDROOT
BRANCH   1  19
ATOM     16  C   UNL     1      -2.242  10.207  16.796  0.00  0.00    +0.000 A 
ATOM     17  C   UNL     1      -1.077   9.626  17.298  0.00  0.00    +0.000 A 
ATOM     18  C   UNL     1      -0.464  10.116  18.461  0.00  0.00    +0.000 A 
ATOM     19  C   UNL     1      -1.002  11.218  19.137  0.00  0.00    +0.000 A 
ATOM     20  C   UNL     1      -2.185  11.789  18.612  0.00  0.00    +0.000 A 
ATOM     21  C   UNL     1      -2.796  11.294  17.458  0.00  0.00    +0.000 A 
BRANCH  16  23
ATOM     22  C   UNL     1      -3.482  10.564  14.820  0.00  0.00    +0.000 C 
ATOM     23  O   UNL     1      -2.712   9.678  15.626  0.00  0.00    +0.000 OA
ENDBRANCH  16  23
ENDBRANCH   1  19
BRANCH  11  24
ATOM     24  C   UNL     1      -0.454  16.590  23.243  0.00  0.00    +0.000 C 
BRANCH  24  25
ATOM     25  N   UNL     1      -1.085  17.280  24.371  0.00  0.00    +0.000 NA
ATOM     26  C   UNL     1      -0.120  17.604  25.425  0.00  0.00    +0.000 C 
ATOM     27  C   UNL     1      -1.691  18.527  23.876  0.00  0.00    +0.000 C 
ENDBRANCH  24  25
ENDBRANCH  11  24
BRANCH  15  28
ATOM     28  O   UNL     1      -1.123  10.677  22.006  0.00  0.00    +0.000 OA
BRANCH  28  29
ATOM     29  C   UNL     1      -0.502   9.487  22.256  0.00  0.00    +0.000 C 
ATOM     30  C   UNL     1       0.218   9.543  23.572  0.00  0.00    +0.000 C 
ATOM     31  O   UNL     1      -0.472   8.528  21.515  0.00  0.00    +0.000 OA
ENDBRANCH  28  29
ENDBRANCH  15  28
TORSDOF 6
ENDMDL
