MODEL 1
REMARK VINA RESULT:      -8.0      0.000      0.000
REMARK  Name = 
REMARK  5 active torsions:
REMARK  status: ('A' for Active; 'I' for Inactive)
REMARK    1  A    between atoms: C_2  and  C_3
REMARK    2  A    between atoms: C_12  and  C_14
REMARK    3  A    between atoms: C_17  and  C_18
REMARK    4  A    between atoms: C_18  and  S_19
REMARK    5  A    between atoms: S_19  and  C_21
REMARK                            x       y       z     vdW  Elec       q    Type
REMARK                         _______ _______ _______ _____ _____    ______ ____
ROOT
ATOM      1  O   UNL     1      -0.100   9.820  23.626  0.00  0.00    +0.000 OA
ATOM      2  C   UNL     1      -0.317  10.356  22.536  0.00  0.00    +0.000 C 
ATOM      3  N   UNL     1      -0.091   9.655  21.347  0.00  0.00    +0.000 N 
ATOM      4  C   UNL     1      -0.137  10.205  19.980  0.00  0.00    +0.000 C 
ATOM      5  C   UNL     1       1.192  10.007  19.231  0.00  0.00    +0.000 C 
ATOM      6  N   UNL     1       1.663   8.626  19.343  0.00  0.00    +0.000 N 
ATOM      7  C   UNL     1       2.124   7.954  18.208  0.00  0.00    +0.000 C 
ATOM      8  O   UNL     1       2.241   8.554  17.137  0.00  0.00    +0.000 OA
ATOM      9  C   UNL     1       1.765   8.147  20.734  0.00  0.00    +0.000 C 
ATOM     10  C   UNL     1       0.403   8.269  21.426  0.00  0.00    +0.000 C 
ENDROOT
BRANCH   2  11
ATOM     11  C   UNL     1      -0.758  11.738  22.481  0.00  0.00    +0.000 A 
ATOM     12  C   UNL     1      -2.036  12.262  22.587  0.00  0.00    +0.000 A 
ATOM     13  C   UNL     1      -1.917  13.665  22.457  0.00  0.00    +0.000 A 
ATOM     14  C   UNL     1      -0.584  13.916  22.244  0.00  0.00    +0.000 A 
ATOM     15  O   UNL     1       0.121  12.756  22.228  0.00  0.00    +0.000 OA
ENDBRANCH   2  11
BRANCH   7  16
ATOM     16  C   UNL     1       2.478   6.552  18.313  0.00  0.00    +0.000 A 
ATOM     17  C   UNL     1       1.698   5.421  18.133  0.00  0.00    +0.000 A 
ATOM     18  C   UNL     1       2.543   4.301  18.336  0.00  0.00    +0.000 A 
ATOM     19  C   UNL     1       3.788   4.803  18.652  0.00  0.00    +0.000 A 
ATOM     20  O   UNL     1       3.734   6.166  18.703  0.00  0.00    +0.000 OA
BRANCH  19  21
ATOM     21  C   UNL     1       5.121   4.180  18.907  0.00  0.00    +0.000 C 
BRANCH  21  22
ATOM     22  S   UNL     1       6.178   4.374  17.437  0.00  0.00    +0.000 S 
ATOM     23  O   UNL     1       5.254   4.582  16.179  0.00  0.00    +0.000 OA
BRANCH  22  24
ATOM     24  C   UNL     1       6.979   5.978  17.724  0.00  0.00    +0.000 A 
ATOM     25  C   UNL     1       6.717   7.130  16.974  0.00  0.00    +0.000 A 
ATOM     26  C   UNL     1       7.356   8.340  17.290  0.00  0.00    +0.000 A 
ATOM     27  C   UNL     1       8.242   8.405  18.367  0.00  0.00    +0.000 A 
ATOM     28 BR   UNL     1       9.112  10.031  18.783  0.00  0.00    +0.000 Br
ATOM     29  C   UNL     1       8.488   7.278  19.140  0.00  0.00    +0.000 A 
ATOM     30  C   UNL     1       7.855   6.075  18.819  0.00  0.00    +0.000 A 
ENDBRANCH  22  24
ENDBRANCH  21  22
ENDBRANCH  19  21
ENDBRANCH   7  16
TORSDOF 5
ENDMDL
MODEL 2
REMARK VINA RESULT:      -7.7      0.592      1.144
REMARK  Name = 
REMARK  5 active torsions:
REMARK  status: ('A' for Active; 'I' for Inactive)
REMARK    1  A    between atoms: C_2  and  C_3
REMARK    2  A    between atoms: C_12  and  C_14
REMARK    3  A    between atoms: C_17  and  C_18
REMARK    4  A    between atoms: C_18  and  S_19
REMARK    5  A    between atoms: S_19  and  C_21
REMARK                            x       y       z     vdW  Elec       q    Type
REMARK                         _______ _______ _______ _____ _____    ______ ____
ROOT
ATOM      1  O   UNL     1      -0.196   9.543  23.732  0.00  0.00    +0.000 OA
ATOM      2  C   UNL     1      -0.436  10.118  22.667  0.00  0.00    +0.000 C 
ATOM      3  N   UNL     1      -0.192   9.477  21.448  0.00  0.00    +0.000 N 
ATOM      4  C   UNL     1      -0.263  10.085  20.107  0.00  0.00    +0.000 C 
ATOM      5  C   UNL     1       1.069   9.964  19.345  0.00  0.00    +0.000 C 
ATOM      6  N   UNL     1       1.586   8.596  19.396  0.00  0.00    +0.000 N 
ATOM      7  C   UNL     1       2.064   7.989  18.231  0.00  0.00    +0.000 C 
ATOM      8  O   UNL     1       2.156   8.639  17.186  0.00  0.00    +0.000 OA
ATOM      9  C   UNL     1       1.710   8.061  20.764  0.00  0.00    +0.000 C 
ATOM     10  C   UNL     1       0.348   8.107  21.465  0.00  0.00    +0.000 C 
ENDROOT
BRANCH   2  11
ATOM     11  C   UNL     1      -0.923  11.485  22.674  0.00  0.00    +0.000 A 
ATOM     12  C   UNL     1      -0.325  12.639  22.193  0.00  0.00    +0.000 A 
ATOM     13  C   UNL     1      -1.215  13.705  22.458  0.00  0.00    +0.000 A 
ATOM     14  C   UNL     1      -2.286  13.152  23.116  0.00  0.00    +0.000 A 
ATOM     15  O   UNL     1      -2.106  11.817  23.277  0.00  0.00    +0.000 OA
ENDBRANCH   2  11
BRANCH   7  16
ATOM     16  C   UNL     1       2.465   6.597  18.274  0.00  0.00    +0.000 A 
ATOM     17  C   UNL     1       1.751   5.455  17.951  0.00  0.00    +0.000 A 
ATOM     18  C   UNL     1       2.621   4.354  18.153  0.00  0.00    +0.000 A 
ATOM     19  C   UNL     1       3.812   4.876  18.610  0.00  0.00    +0.000 A 
ATOM     20  O   UNL     1       3.698   6.229  18.747  0.00  0.00    +0.000 OA
BRANCH  19  21
ATOM     21  C   UNL     1       5.143   4.284  18.941  0.00  0.00    +0.000 C 
BRANCH  21  22
ATOM     22  S   UNL     1       6.281   4.519  17.539  0.00  0.00    +0.000 S 
ATOM     23  O   UNL     1       5.430   4.783  16.241  0.00  0.00    +0.000 OA
BRANCH  22  24
ATOM     24  C   UNL     1       7.080   6.102  17.928  0.00  0.00    +0.000 A 
ATOM     25  C   UNL     1       8.007   6.281  18.961  0.00  0.00    +0.000 A 
ATOM     26  C   UNL     1       8.604   7.534  19.167  0.00  0.00    +0.000 A 
ATOM     27  C   UNL     1       8.293   8.606  18.329  0.00  0.00    +0.000 A 
ATOM     28 BR   UNL     1       9.088  10.298  18.615  0.00  0.00    +0.000 Br
ATOM     29  C   UNL     1       7.399   8.437  17.279  0.00  0.00    +0.000 A 
ATOM     30  C   UNL     1       6.802   7.190  17.081  0.00  0.00    +0.000 A 
ENDBRANCH  22  24
ENDBRANCH  21  22
ENDBRANCH  19  21
ENDBRANCH   7  16
TORSDOF 5
ENDMDL
MODEL 3
REMARK VINA RESULT:      -7.1      2.612      3.028
REMARK  Name = 
REMARK  5 active torsions:
REMARK  status: ('A' for Active; 'I' for Inactive)
REMARK    1  A    between atoms: C_2  and  C_3
REMARK    2  A    between atoms: C_12  and  C_14
REMARK    3  A    between atoms: C_17  and  C_18
REMARK    4  A    between atoms: C_18  and  S_19
REMARK    5  A    between atoms: S_19  and  C_21
REMARK                            x       y       z     vdW  Elec       q    Type
REMARK                         _______ _______ _______ _____ _____    ______ ____
ROOT
ATOM      1  O   UNL     1      -0.917  10.389  23.499  0.00  0.00    +0.000 OA
ATOM      2  C   UNL     1      -0.994  10.719  22.313  0.00  0.00    +0.000 C 
ATOM      3  N   UNL     1      -0.532   9.861  21.310  0.00  0.00    +0.000 N 
ATOM      4  C   UNL     1      -0.398  10.178  19.876  0.00  0.00    +0.000 C 
ATOM      5  C   UNL     1       1.044   9.991  19.374  0.00  0.00    +0.000 C 
ATOM      6  N   UNL     1       1.587   8.697  19.793  0.00  0.00    +0.000 N 
ATOM      7  C   UNL     1       2.270   7.899  18.871  0.00  0.00    +0.000 C 
ATOM      8  O   UNL     1       2.514   8.328  17.740  0.00  0.00    +0.000 OA
ATOM      9  C   UNL     1       1.499   8.461  21.245  0.00  0.00    +0.000 C 
ATOM     10  C   UNL     1       0.038   8.561  21.699  0.00  0.00    +0.000 C 
ENDROOT
BRANCH   2  11
ATOM     11  C   UNL     1      -1.517  12.026  21.956  0.00  0.00    +0.000 A 
ATOM     12  C   UNL     1      -2.721  12.363  21.359  0.00  0.00    +0.000 A 
ATOM     13  C   UNL     1      -2.733  13.770  21.222  0.00  0.00    +0.000 A 
ATOM     14  C   UNL     1      -1.526  14.210  21.708  0.00  0.00    +0.000 A 
ATOM     15  O   UNL     1      -0.773  13.161  22.127  0.00  0.00    +0.000 OA
ENDBRANCH   2  11
BRANCH   7  16
ATOM     16  C   UNL     1       2.700   6.573  19.268  0.00  0.00    +0.000 A 
ATOM     17  C   UNL     1       2.172   5.713  20.217  0.00  0.00    +0.000 A 
ATOM     18  C   UNL     1       2.961   4.535  20.191  0.00  0.00    +0.000 A 
ATOM     19  C   UNL     1       3.944   4.745  19.248  0.00  0.00    +0.000 A 
ATOM     20  O   UNL     1       3.827   6.005  18.734  0.00  0.00    +0.000 OA
BRANCH  19  21
ATOM     21  C   UNL     1       5.037   3.896  18.686  0.00  0.00    +0.000 C 
BRANCH  21  22
ATOM     22  S   UNL     1       6.370   4.961  18.048  0.00  0.00    +0.000 S 
ATOM     23  O   UNL     1       7.742   4.449  18.627  0.00  0.00    +0.000 OA
BRANCH  22  24
ATOM     24  C   UNL     1       6.405   4.550  16.280  0.00  0.00    +0.000 A 
ATOM     25  C   UNL     1       5.535   3.639  15.669  0.00  0.00    +0.000 A 
ATOM     26  C   UNL     1       5.609   3.409  14.286  0.00  0.00    +0.000 A 
ATOM     27  C   UNL     1       6.537   4.103  13.508  0.00  0.00    +0.000 A 
ATOM     28 BR   UNL     1       6.644   3.784  11.647  0.00  0.00    +0.000 Br
ATOM     29  C   UNL     1       7.385   5.034  14.094  0.00  0.00    +0.000 A 
ATOM     30  C   UNL     1       7.313   5.255  15.471  0.00  0.00    +0.000 A 
ENDBRANCH  22  24
ENDBRANCH  21  22
ENDBRANCH  19  21
ENDBRANCH   7  16
TORSDOF 5
ENDMDL
MODEL 4
REMARK VINA RESULT:      -7.1      2.712      3.687
REMARK  Name = 
REMARK  5 active torsions:
REMARK  status: ('A' for Active; 'I' for Inactive)
REMARK    1  A    between atoms: C_2  and  C_3
REMARK    2  A    between atoms: C_12  and  C_14
REMARK    3  A    between atoms: C_17  and  C_18
REMARK    4  A    between atoms: C_18  and  S_19
REMARK    5  A    between atoms: S_19  and  C_21
REMARK                            x       y       z     vdW  Elec       q    Type
REMARK                         _______ _______ _______ _____ _____    ______ ____
ROOT
ATOM      1  O   UNL     1      -3.412  12.026  18.690  0.00  0.00    +0.000 OA
ATOM      2  C   UNL     1      -2.797  12.291  19.726  0.00  0.00    +0.000 C 
ATOM      3  N   UNL     1      -1.538  11.729  19.963  0.00  0.00    +0.000 N 
ATOM      4  C   UNL     1      -0.762  11.810  21.214  0.00  0.00    +0.000 C 
ATOM      5  C   UNL     1      -0.433  10.418  21.781  0.00  0.00    +0.000 C 
ATOM      6  N   UNL     1       0.118   9.541  20.747  0.00  0.00    +0.000 N 
ATOM      7  C   UNL     1       1.254   8.773  21.019  0.00  0.00    +0.000 C 
ATOM      8  O   UNL     1       1.726   8.746  22.158  0.00  0.00    +0.000 OA
ATOM      9  C   UNL     1      -0.732   9.434  19.548  0.00  0.00    +0.000 C 
ATOM     10  C   UNL     1      -0.965  10.826  18.951  0.00  0.00    +0.000 C 
ENDROOT
BRANCH   2  11
ATOM     11  C   UNL     1      -3.403  13.146  20.731  0.00  0.00    +0.000 A 
ATOM     12  C   UNL     1      -4.461  12.890  21.587  0.00  0.00    +0.000 A 
ATOM     13  C   UNL     1      -4.660  14.058  22.357  0.00  0.00    +0.000 A 
ATOM     14  C   UNL     1      -3.739  14.973  21.906  0.00  0.00    +0.000 A 
ATOM     15  O   UNL     1      -2.994  14.441  20.904  0.00  0.00    +0.000 OA
ENDBRANCH   2  11
BRANCH   7  16
ATOM     16  C   UNL     1       1.854   7.999  19.951  0.00  0.00    +0.000 A 
ATOM     17  C   UNL     1       2.302   8.401  18.703  0.00  0.00    +0.000 A 
ATOM     18  C   UNL     1       2.820   7.249  18.060  0.00  0.00    +0.000 A 
ATOM     19  C   UNL     1       2.641   6.199  18.936  0.00  0.00    +0.000 A 
ATOM     20  O   UNL     1       1.997   6.639  20.055  0.00  0.00    +0.000 OA
BRANCH  19  21
ATOM     21  C   UNL     1       3.022   4.755  18.912  0.00  0.00    +0.000 C 
BRANCH  21  22
ATOM     22  S   UNL     1       4.819   4.593  19.153  0.00  0.00    +0.000 S 
ATOM     23  O   UNL     1       5.120   3.159  19.731  0.00  0.00    +0.000 OA
BRANCH  22  24
ATOM     24  C   UNL     1       5.456   4.576  17.453  0.00  0.00    +0.000 A 
ATOM     25  C   UNL     1       4.678   4.287  16.327  0.00  0.00    +0.000 A 
ATOM     26  C   UNL     1       5.246   4.333  15.044  0.00  0.00    +0.000 A 
ATOM     27  C   UNL     1       6.586   4.689  14.882  0.00  0.00    +0.000 A 
ATOM     28 BR   UNL     1       7.353   4.739  13.154  0.00  0.00    +0.000 Br
ATOM     29  C   UNL     1       7.363   5.010  15.987  0.00  0.00    +0.000 A 
ATOM     30  C   UNL     1       6.796   4.956  17.263  0.00  0.00    +0.000 A 
ENDBRANCH  22  24
ENDBRANCH  21  22
ENDBRANCH  19  21
ENDBRANCH   7  16
TORSDOF 5
ENDMDL
MODEL 5
REMARK VINA RESULT:      -7.0      1.495      1.653
REMARK  Name = 
REMARK  5 active torsions:
REMARK  status: ('A' for Active; 'I' for Inactive)
REMARK    1  A    between atoms: C_2  and  C_3
REMARK    2  A    between atoms: C_12  and  C_14
REMARK    3  A    between atoms: C_17  and  C_18
REMARK    4  A    between atoms: C_18  and  S_19
REMARK    5  A    between atoms: S_19  and  C_21
REMARK                            x       y       z     vdW  Elec       q    Type
REMARK                         _______ _______ _______ _____ _____    ______ ____
ROOT
ATOM      1  O   UNL     1      -0.597  11.299  23.367  0.00  0.00    +0.000 OA
ATOM      2  C   UNL     1      -0.602  11.474  22.146  0.00  0.00    +0.000 C 
ATOM      3  N   UNL     1      -0.321  10.414  21.279  0.00  0.00    +0.000 N 
ATOM      4  C   UNL     1      -0.121  10.501  19.821  0.00  0.00    +0.000 C 
ATOM      5  C   UNL     1       1.255   9.962  19.392  0.00  0.00    +0.000 C 
ATOM      6  N   UNL     1       1.523   8.655  19.993  0.00  0.00    +0.000 N 
ATOM      7  C   UNL     1       2.032   7.619  19.205  0.00  0.00    +0.000 C 
ATOM      8  O   UNL     1       2.362   7.833  18.036  0.00  0.00    +0.000 OA
ATOM      9  C   UNL     1       1.385   8.639  21.460  0.00  0.00    +0.000 C 
ATOM     10  C   UNL     1      -0.027   9.090  21.853  0.00  0.00    +0.000 C 
ENDROOT
BRANCH   2  11
ATOM     11  C   UNL     1      -0.848  12.799  21.604  0.00  0.00    +0.000 A 
ATOM     12  C   UNL     1      -2.038  13.380  21.197  0.00  0.00    +0.000 A 
ATOM     13  C   UNL     1      -1.726  14.681  20.740  0.00  0.00    +0.000 A 
ATOM     14  C   UNL     1      -0.363  14.809  20.858  0.00  0.00    +0.000 A 
ATOM     15  O   UNL     1       0.179  13.668  21.352  0.00  0.00    +0.000 OA
ENDBRANCH   2  11
BRANCH   7  16
ATOM     16  C   UNL     1       2.184   6.300  19.787  0.00  0.00    +0.000 A 
ATOM     17  C   UNL     1       1.388   5.635  20.705  0.00  0.00    +0.000 A 
ATOM     18  C   UNL     1       1.978   4.364  20.919  0.00  0.00    +0.000 A 
ATOM     19  C   UNL     1       3.115   4.325  20.141  0.00  0.00    +0.000 A 
ATOM     20  O   UNL     1       3.277   5.522  19.505  0.00  0.00    +0.000 OA
BRANCH  19  21
ATOM     21  C   UNL     1       4.136   3.274  19.851  0.00  0.00    +0.000 C 
BRANCH  21  22
ATOM     22  S   UNL     1       4.522   3.272  18.071  0.00  0.00    +0.000 S 
ATOM     23  O   UNL     1       3.188   3.508  17.269  0.00  0.00    +0.000 OA
BRANCH  22  24
ATOM     24  C   UNL     1       5.489   4.795  17.865  0.00  0.00    +0.000 A 
ATOM     25  C   UNL     1       5.098   5.870  17.060  0.00  0.00    +0.000 A 
ATOM     26  C   UNL     1       5.891   7.026  16.988  0.00  0.00    +0.000 A 
ATOM     27  C   UNL     1       7.066   7.118  17.736  0.00  0.00    +0.000 A 
ATOM     28 BR   UNL     1       8.141   8.670  17.629  0.00  0.00    +0.000 Br
ATOM     29  C   UNL     1       7.451   6.073  18.565  0.00  0.00    +0.000 A 
ATOM     30  C   UNL     1       6.663   4.922  18.629  0.00  0.00    +0.000 A 
ENDBRANCH  22  24
ENDBRANCH  21  22
ENDBRANCH  19  21
ENDBRANCH   7  16
TORSDOF 5
ENDMDL
MODEL 6
REMARK VINA RESULT:      -6.9      3.739      4.759
REMARK  Name = 
REMARK  5 active torsions:
REMARK  status: ('A' for Active; 'I' for Inactive)
REMARK    1  A    between atoms: C_2  and  C_3
REMARK    2  A    between atoms: C_12  and  C_14
REMARK    3  A    between atoms: C_17  and  C_18
REMARK    4  A    between atoms: C_18  and  S_19
REMARK    5  A    between atoms: S_19  and  C_21
REMARK                            x       y       z     vdW  Elec       q    Type
REMARK                         _______ _______ _______ _____ _____    ______ ____
ROOT
ATOM      1  O   UNL     1      -5.168  10.825  17.905  0.00  0.00    +0.000 OA
ATOM      2  C   UNL     1      -4.593  11.689  18.570  0.00  0.00    +0.000 C 
ATOM      3  N   UNL     1      -3.198  11.695  18.666  0.00  0.00    +0.000 N 
ATOM      4  C   UNL     1      -2.382  12.547  19.550  0.00  0.00    +0.000 C 
ATOM      5  C   UNL     1      -1.489  11.718  20.490  0.00  0.00    +0.000 C 
ATOM      6  N   UNL     1      -0.760  10.685  19.753  0.00  0.00    +0.000 N 
ATOM      7  C   UNL     1       0.605  10.495  19.988  0.00  0.00    +0.000 C 
ATOM      8  O   UNL     1       1.171  11.115  20.892  0.00  0.00    +0.000 OA
ATOM      9  C   UNL     1      -1.628   9.811  18.944  0.00  0.00    +0.000 C 
ATOM     10  C   UNL     1      -2.436  10.656  17.953  0.00  0.00    +0.000 C 
ENDROOT
BRANCH   2  11
ATOM     11  C   UNL     1      -5.367  12.675  19.303  0.00  0.00    +0.000 A 
ATOM     12  C   UNL     1      -5.680  12.728  20.652  0.00  0.00    +0.000 A 
ATOM     13  C   UNL     1      -6.465  13.887  20.847  0.00  0.00    +0.000 A 
ATOM     14  C   UNL     1      -6.619  14.456  19.607  0.00  0.00    +0.000 A 
ATOM     15  O   UNL     1      -5.983  13.716  18.663  0.00  0.00    +0.000 OA
ENDBRANCH   2  11
BRANCH   7  16
ATOM     16  C   UNL     1       1.336   9.548  19.170  0.00  0.00    +0.000 A 
ATOM     17  C   UNL     1       1.916   9.711  17.923  0.00  0.00    +0.000 A 
ATOM     18  C   UNL     1       2.525   8.476  17.585  0.00  0.00    +0.000 A 
ATOM     19  C   UNL     1       2.266   7.615  18.631  0.00  0.00    +0.000 A 
ATOM     20  O   UNL     1       1.490   8.244  19.562  0.00  0.00    +0.000 OA
BRANCH  19  21
ATOM     21  C   UNL     1       2.672   6.212  18.941  0.00  0.00    +0.000 C 
BRANCH  21  22
ATOM     22  S   UNL     1       4.489   6.099  18.990  0.00  0.00    +0.000 S 
ATOM     23  O   UNL     1       4.893   4.919  19.951  0.00  0.00    +0.000 OA
BRANCH  22  24
ATOM     24  C   UNL     1       4.903   5.526  17.317  0.00  0.00    +0.000 A 
ATOM     25  C   UNL     1       5.084   6.376  16.220  0.00  0.00    +0.000 A 
ATOM     26  C   UNL     1       5.440   5.849  14.968  0.00  0.00    +0.000 A 
ATOM     27  C   UNL     1       5.637   4.476  14.816  0.00  0.00    +0.000 A 
ATOM     28 BR   UNL     1       6.104   3.765  13.126  0.00  0.00    +0.000 Br
ATOM     29  C   UNL     1       5.493   3.623  15.902  0.00  0.00    +0.000 A 
ATOM     30  C   UNL     1       5.132   4.150  17.144  0.00  0.00    +0.000 A 
ENDBRANCH  22  24
ENDBRANCH  21  22
ENDBRANCH  19  21
ENDBRANCH   7  16
TORSDOF 5
ENDMDL
MODEL 7
REMARK VINA RESULT:      -6.7      2.617      3.233
REMARK  Name = 
REMARK  5 active torsions:
REMARK  status: ('A' for Active; 'I' for Inactive)
REMARK    1  A    between atoms: C_2  and  C_3
REMARK    2  A    between atoms: C_12  and  C_14
REMARK    3  A    between atoms: C_17  and  C_18
REMARK    4  A    between atoms: C_18  and  S_19
REMARK    5  A    between atoms: S_19  and  C_21
REMARK                            x       y       z     vdW  Elec       q    Type
REMARK                         _______ _______ _______ _____ _____    ______ ____
ROOT
ATOM      1  O   UNL     1      -0.765  12.529  23.247  0.00  0.00    +0.000 OA
ATOM      2  C   UNL     1      -0.899  12.674  22.029  0.00  0.00    +0.000 C 
ATOM      3  N   UNL     1      -0.637  11.612  21.158  0.00  0.00    +0.000 N 
ATOM      4  C   UNL     1      -0.586  11.674  19.686  0.00  0.00    +0.000 C 
ATOM      5  C   UNL     1       0.773  11.210  19.134  0.00  0.00    +0.000 C 
ATOM      6  N   UNL     1       1.180   9.937  19.730  0.00  0.00    +0.000 N 
ATOM      7  C   UNL     1       1.674   8.914  18.916  0.00  0.00    +0.000 C 
ATOM      8  O   UNL     1       1.875   9.119  17.716  0.00  0.00    +0.000 OA
ATOM      9  C   UNL     1       1.186   9.948  21.204  0.00  0.00    +0.000 C 
ATOM     10  C   UNL     1      -0.206  10.323  21.726  0.00  0.00    +0.000 C 
ENDROOT
BRANCH   2  11
ATOM     11  C   UNL     1      -1.280  13.967  21.490  0.00  0.00    +0.000 A 
ATOM     12  C   UNL     1      -2.540  14.479  21.226  0.00  0.00    +0.000 A 
ATOM     13  C   UNL     1      -2.355  15.777  20.699  0.00  0.00    +0.000 A 
ATOM     14  C   UNL     1      -0.997  15.973  20.636  0.00  0.00    +0.000 A 
ATOM     15  O   UNL     1      -0.339  14.874  21.084  0.00  0.00    +0.000 OA
ENDBRANCH   2  11
BRANCH   7  16
ATOM     16  C   UNL     1       1.964   7.622  19.504  0.00  0.00    +0.000 A 
ATOM     17  C   UNL     1       1.365   6.975  20.572  0.00  0.00    +0.000 A 
ATOM     18  C   UNL     1       2.019   5.726  20.718  0.00  0.00    +0.000 A 
ATOM     19  C   UNL     1       2.998   5.682  19.749  0.00  0.00    +0.000 A 
ATOM     20  O   UNL     1       3.010   6.857  19.055  0.00  0.00    +0.000 OA
BRANCH  19  21
ATOM     21  C   UNL     1       3.979   4.643  19.314  0.00  0.00    +0.000 C 
BRANCH  21  22
ATOM     22  S   UNL     1       5.541   5.442  18.829  0.00  0.00    +0.000 S 
ATOM     23  O   UNL     1       6.714   4.797  19.658  0.00  0.00    +0.000 OA
BRANCH  22  24
ATOM     24  C   UNL     1       5.777   4.867  17.123  0.00  0.00    +0.000 A 
ATOM     25  C   UNL     1       4.964   3.916  16.496  0.00  0.00    +0.000 A 
ATOM     26  C   UNL     1       5.197   3.556  15.159  0.00  0.00    +0.000 A 
ATOM     27  C   UNL     1       6.229   4.161  14.440  0.00  0.00    +0.000 A 
ATOM     28 BR   UNL     1       6.551   3.667  12.643  0.00  0.00    +0.000 Br
ATOM     29  C   UNL     1       7.025   5.130  15.038  0.00  0.00    +0.000 A 
ATOM     30  C   UNL     1       6.794   5.480  16.370  0.00  0.00    +0.000 A 
ENDBRANCH  22  24
ENDBRANCH  21  22
ENDBRANCH  19  21
ENDBRANCH   7  16
TORSDOF 5
ENDMDL
MODEL 8
REMARK VINA RESULT:      -6.7      2.701      3.953
REMARK  Name = 
REMARK  5 active torsions:
REMARK  status: ('A' for Active; 'I' for Inactive)
REMARK    1  A    between atoms: C_2  and  C_3
REMARK    2  A    between atoms: C_12  and  C_14
REMARK    3  A    between atoms: C_17  and  C_18
REMARK    4  A    between atoms: C_18  and  S_19
REMARK    5  A    between atoms: S_19  and  C_21
REMARK                            x       y       z     vdW  Elec       q    Type
REMARK                         _______ _______ _______ _____ _____    ______ ____
ROOT
ATOM      1  O   UNL     1      -3.606  12.254  19.224  0.00  0.00    +0.000 OA
ATOM      2  C   UNL     1      -2.865  12.631  20.135  0.00  0.00    +0.000 C 
ATOM      3  N   UNL     1      -1.611  12.040  20.316  0.00  0.00    +0.000 N 
ATOM      4  C   UNL     1      -0.692  12.257  21.448  0.00  0.00    +0.000 C 
ATOM      5  C   UNL     1      -0.355  10.947  22.180  0.00  0.00    +0.000 C 
ATOM      6  N   UNL     1       0.037   9.899  21.237  0.00  0.00    +0.000 N 
ATOM      7  C   UNL     1       1.166   9.116  21.496  0.00  0.00    +0.000 C 
ATOM      8  O   UNL     1       1.765   9.229  22.568  0.00  0.00    +0.000 OA
ATOM      9  C   UNL     1      -0.950   9.667  20.167  0.00  0.00    +0.000 C 
ATOM     10  C   UNL     1      -1.195  10.968  19.395  0.00  0.00    +0.000 C 
ENDROOT
BRANCH   2  11
ATOM     11  C   UNL     1      -3.316  13.656  21.059  0.00  0.00    +0.000 A 
ATOM     12  C   UNL     1      -3.106  15.025  21.031  0.00  0.00    +0.000 A 
ATOM     13  C   UNL     1      -3.749  15.564  22.169  0.00  0.00    +0.000 A 
ATOM     14  C   UNL     1      -4.282  14.495  22.846  0.00  0.00    +0.000 A 
ATOM     15  O   UNL     1      -4.001  13.336  22.200  0.00  0.00    +0.000 OA
ENDBRANCH   2  11
BRANCH   7  16
ATOM     16  C   UNL     1       1.607   8.162  20.498  0.00  0.00    +0.000 A 
ATOM     17  C   UNL     1       2.173   8.375  19.252  0.00  0.00    +0.000 A 
ATOM     18  C   UNL     1       2.435   7.098  18.694  0.00  0.00    +0.000 A 
ATOM     19  C   UNL     1       1.994   6.171  19.616  0.00  0.00    +0.000 A 
ATOM     20  O   UNL     1       1.432   6.815  20.680  0.00  0.00    +0.000 OA
BRANCH  19  21
ATOM     21  C   UNL     1       2.036   4.680  19.685  0.00  0.00    +0.000 C 
BRANCH  21  22
ATOM     22  S   UNL     1       3.704   4.138  20.173  0.00  0.00    +0.000 S 
ATOM     23  O   UNL     1       3.672   2.584  20.429  0.00  0.00    +0.000 OA
BRANCH  22  24
ATOM     24  C   UNL     1       4.664   4.361  18.649  0.00  0.00    +0.000 A 
ATOM     25  C   UNL     1       5.976   4.847  18.612  0.00  0.00    +0.000 A 
ATOM     26  C   UNL     1       6.657   4.952  17.389  0.00  0.00    +0.000 A 
ATOM     27  C   UNL     1       6.038   4.553  16.204  0.00  0.00    +0.000 A 
ATOM     28 BR   UNL     1       6.952   4.706  14.555  0.00  0.00    +0.000 Br
ATOM     29  C   UNL     1       4.748   4.038  16.228  0.00  0.00    +0.000 A 
ATOM     30  C   UNL     1       4.071   3.941  17.445  0.00  0.00    +0.000 A 
ENDBRANCH  22  24
ENDBRANCH  21  22
ENDBRANCH  19  21
ENDBRANCH   7  16
TORSDOF 5
ENDMDL
MODEL 9
REMARK VINA RESULT:      -6.7      2.650      3.689
REMARK  Name = 
REMARK  5 active torsions:
REMARK  status: ('A' for Active; 'I' for Inactive)
REMARK    1  A    between atoms: C_2  and  C_3
REMARK    2  A    between atoms: C_12  and  C_14
REMARK    3  A    between atoms: C_17  and  C_18
REMARK    4  A    between atoms: C_18  and  S_19
REMARK    5  A    between atoms: S_19  and  C_21
REMARK                            x       y       z     vdW  Elec       q    Type
REMARK                         _______ _______ _______ _____ _____    ______ ____
ROOT
ATOM      1  O   UNL     1      -0.769  13.416  17.843  0.00  0.00    +0.000 OA
ATOM      2  C   UNL     1      -0.428  13.394  19.029  0.00  0.00    +0.000 C 
ATOM      3  N   UNL     1       0.390  12.367  19.510  0.00  0.00    +0.000 N 
ATOM      4  C   UNL     1       0.738  12.108  20.918  0.00  0.00    +0.000 C 
ATOM      5  C   UNL     1       0.327  10.694  21.366  0.00  0.00    +0.000 C 
ATOM      6  N   UNL     1       0.771   9.684  20.406  0.00  0.00    +0.000 N 
ATOM      7  C   UNL     1       1.392   8.517  20.861  0.00  0.00    +0.000 C 
ATOM      8  O   UNL     1       1.465   8.285  22.071  0.00  0.00    +0.000 OA
ATOM      9  C   UNL     1       0.333   9.948  19.024  0.00  0.00    +0.000 C 
ATOM     10  C   UNL     1       0.838  11.323  18.572  0.00  0.00    +0.000 C 
ENDROOT
BRANCH   2  11
ATOM     11  C   UNL     1      -0.921  14.407  19.944  0.00  0.00    +0.000 A 
ATOM     12  C   UNL     1      -2.039  14.391  20.762  0.00  0.00    +0.000 A 
ATOM     13  C   UNL     1      -2.069  15.629  21.443  0.00  0.00    +0.000 A 
ATOM     14  C   UNL     1      -0.993  16.345  20.979  0.00  0.00    +0.000 A 
ATOM     15  O   UNL     1      -0.310  15.627  20.052  0.00  0.00    +0.000 OA
ENDBRANCH   2  11
BRANCH   7  16
ATOM     16  C   UNL     1       1.930   7.581  19.895  0.00  0.00    +0.000 A 
ATOM     17  C   UNL     1       2.416   7.801  18.616  0.00  0.00    +0.000 A 
ATOM     18  C   UNL     1       2.837   6.545  18.112  0.00  0.00    +0.000 A 
ATOM     19  C   UNL     1       2.566   5.618  19.097  0.00  0.00    +0.000 A 
ATOM     20  O   UNL     1       1.956   6.234  20.151  0.00  0.00    +0.000 OA
BRANCH  19  21
ATOM     21  C   UNL     1       2.822   4.154  19.239  0.00  0.00    +0.000 C 
BRANCH  21  22
ATOM     22  S   UNL     1       4.583   3.876  19.612  0.00  0.00    +0.000 S 
ATOM     23  O   UNL     1       4.805   2.338  19.864  0.00  0.00    +0.000 OA
BRANCH  22  24
ATOM     24  C   UNL     1       5.394   4.231  18.027  0.00  0.00    +0.000 A 
ATOM     25  C   UNL     1       6.563   4.988  17.896  0.00  0.00    +0.000 A 
ATOM     26  C   UNL     1       7.143   5.182  16.633  0.00  0.00    +0.000 A 
ATOM     27  C   UNL     1       6.568   4.603  15.501  0.00  0.00    +0.000 A 
ATOM     28 BR   UNL     1       7.342   4.875  13.797  0.00  0.00    +0.000 Br
ATOM     29  C   UNL     1       5.425   3.823  15.617  0.00  0.00    +0.000 A 
ATOM     30  C   UNL     1       4.847   3.638  16.876  0.00  0.00    +0.000 A 
ENDBRANCH  22  24
ENDBRANCH  21  22
ENDBRANCH  19  21
ENDBRANCH   7  16
TORSDOF 5
ENDMDL
