MODEL 1
REMARK VINA RESULT:      -7.6      0.000      0.000
REMARK  Name = 
REMARK  3 active torsions:
REMARK  status: ('A' for Active; 'I' for Inactive)
REMARK    1  A    between atoms: C_2  and  C_3
REMARK    2  A    between atoms: C_2  and  C_10
REMARK    3  A    between atoms: C_20  and  C_21
REMARK                            x       y       z     vdW  Elec       q    Type
REMARK                         _______ _______ _______ _____ _____    ______ ____
ROOT
ATOM      1  C   UNL     1      -0.184  10.778  20.676  0.00  0.00    +0.000 C 
ATOM      2  O   UNL     1       0.215  11.317  21.963  0.00  0.00    +0.000 OA
ATOM      3  O   UNL     1      -0.970  11.250  22.837  0.00  0.00    +0.000 OA
ATOM      4  C   UNL     1      -1.891  12.242  22.371  0.00  0.00    +0.000 C 
ATOM      5  C   UNL     1      -1.288  13.659  22.438  0.00  0.00    +0.000 C 
ATOM      6  C   UNL     1      -2.280  14.708  21.943  0.00  0.00    +0.000 C 
ATOM      7  C   UNL     1      -3.587  14.660  22.725  0.00  0.00    +0.000 C 
ATOM      8  C   UNL     1      -4.178  13.253  22.803  0.00  0.00    +0.000 C 
ATOM      9  C   UNL     1      -3.146  12.213  23.259  0.00  0.00    +0.000 C 
ATOM     10  O   UNL     1      -2.351  11.901  21.065  0.00  0.00    +0.000 OA
ATOM     11  C   UNL     1      -1.295  11.708  20.115  0.00  0.00    +0.000 C 
ENDROOT
BRANCH  11  12
ATOM     12  C   UNL     1      -2.023  11.229  18.876  0.00  0.00    +0.000 A 
ATOM     13  C   UNL     1      -1.471  10.205  18.090  0.00  0.00    +0.000 A 
ATOM     14  C   UNL     1      -2.036   9.873  16.857  0.00  0.00    +0.000 A 
ATOM     15  C   UNL     1      -3.163  10.555  16.406  0.00  0.00    +0.000 A 
ATOM     16 BR   UNL     1      -3.881  10.156  14.703  0.00  0.00    +0.000 Br
ATOM     17  C   UNL     1      -3.745  11.553  17.184  0.00  0.00    +0.000 A 
ATOM     18  C   UNL     1      -3.174  11.890  18.412  0.00  0.00    +0.000 A 
ENDBRANCH  11  12
BRANCH   1  20
ATOM     19  C   UNL     1       1.696  11.885  19.440  0.00  0.00    +0.000 C 
ATOM     20  C   UNL     1       1.071  10.743  19.795  0.00  0.00    +0.000 C 
BRANCH  20  21
ATOM     21  C   UNL     1       1.594   9.425  19.333  0.00  0.00    +0.000 A 
ATOM     22  C   UNL     1       2.074   9.246  18.022  0.00  0.00    +0.000 A 
ATOM     23  C   UNL     1       2.601   8.020  17.594  0.00  0.00    +0.000 A 
ATOM     24  C   UNL     1       2.670   6.954  18.481  0.00  0.00    +0.000 A 
ATOM     25 BR   UNL     1       3.417   5.309  17.927  0.00  0.00    +0.000 Br
ATOM     26  C   UNL     1       2.199   7.096  19.781  0.00  0.00    +0.000 A 
ATOM     27  C   UNL     1       1.663   8.320  20.195  0.00  0.00    +0.000 A 
ENDBRANCH  20  21
ENDBRANCH   1  20
TORSDOF 3
ENDMDL
MODEL 2
REMARK VINA RESULT:      -7.4      1.025      1.339
REMARK  Name = 
REMARK  3 active torsions:
REMARK  status: ('A' for Active; 'I' for Inactive)
REMARK    1  A    between atoms: C_2  and  C_3
REMARK    2  A    between atoms: C_2  and  C_10
REMARK    3  A    between atoms: C_20  and  C_21
REMARK                            x       y       z     vdW  Elec       q    Type
REMARK                         _______ _______ _______ _____ _____    ______ ____
ROOT
ATOM      1  C   UNL     1      -0.708  11.163  21.438  0.00  0.00    +0.000 C 
ATOM      2  O   UNL     1      -0.468  11.457  22.839  0.00  0.00    +0.000 OA
ATOM      3  O   UNL     1      -1.772  11.370  23.520  0.00  0.00    +0.000 OA
ATOM      4  C   UNL     1      -2.539  12.506  23.104  0.00  0.00    +0.000 C 
ATOM      5  C   UNL     1      -1.852  13.832  23.487  0.00  0.00    +0.000 C 
ATOM      6  C   UNL     1      -2.679  15.034  23.043  0.00  0.00    +0.000 C 
ATOM      7  C   UNL     1      -4.088  14.992  23.621  0.00  0.00    +0.000 C 
ATOM      8  C   UNL     1      -4.786  13.653  23.383  0.00  0.00    +0.000 C 
ATOM      9  C   UNL     1      -3.912  12.461  23.796  0.00  0.00    +0.000 C 
ATOM     10  O   UNL     1      -2.822  12.416  21.710  0.00  0.00    +0.000 OA
ATOM     11  C   UNL     1      -1.653  12.271  20.893  0.00  0.00    +0.000 C 
ENDROOT
BRANCH  11  12
ATOM     12  C   UNL     1      -2.220  12.060  19.504  0.00  0.00    +0.000 A 
ATOM     13  C   UNL     1      -3.597  11.858  19.333  0.00  0.00    +0.000 A 
ATOM     14  C   UNL     1      -4.112  11.490  18.087  0.00  0.00    +0.000 A 
ATOM     15  C   UNL     1      -3.253  11.333  17.002  0.00  0.00    +0.000 A 
ATOM     16 BR   UNL     1      -3.941  10.762  15.337  0.00  0.00    +0.000 Br
ATOM     17  C   UNL     1      -1.886  11.559  17.144  0.00  0.00    +0.000 A 
ATOM     18  C   UNL     1      -1.372  11.918  18.391  0.00  0.00    +0.000 A 
ENDBRANCH  11  12
BRANCH   1  20
ATOM     19  C   UNL     1       1.417  12.258  20.682  0.00  0.00    +0.000 C 
ATOM     20  C   UNL     1       0.658  11.144  20.742  0.00  0.00    +0.000 C 
BRANCH  20  21
ATOM     21  C   UNL     1       1.140   9.873  20.129  0.00  0.00    +0.000 A 
ATOM     22  C   UNL     1       1.463   9.795  18.761  0.00  0.00    +0.000 A 
ATOM     23  C   UNL     1       1.952   8.614  18.189  0.00  0.00    +0.000 A 
ATOM     24  C   UNL     1       2.141   7.491  18.983  0.00  0.00    +0.000 A 
ATOM     25 BR   UNL     1       2.840   5.905  18.231  0.00  0.00    +0.000 Br
ATOM     26  C   UNL     1       1.827   7.533  20.336  0.00  0.00    +0.000 A 
ATOM     27  C   UNL     1       1.327   8.713  20.897  0.00  0.00    +0.000 A 
ENDBRANCH  20  21
ENDBRANCH   1  20
TORSDOF 3
ENDMDL
MODEL 3
REMARK VINA RESULT:      -7.4      0.722      1.187
REMARK  Name = 
REMARK  3 active torsions:
REMARK  status: ('A' for Active; 'I' for Inactive)
REMARK    1  A    between atoms: C_2  and  C_3
REMARK    2  A    between atoms: C_2  and  C_10
REMARK    3  A    between atoms: C_20  and  C_21
REMARK                            x       y       z     vdW  Elec       q    Type
REMARK                         _______ _______ _______ _____ _____    ______ ____
ROOT
ATOM      1  C   UNL     1       0.189  10.290  20.284  0.00  0.00    +0.000 C 
ATOM      2  O   UNL     1       0.731  10.766  21.543  0.00  0.00    +0.000 OA
ATOM      3  O   UNL     1      -0.392  10.821  22.495  0.00  0.00    +0.000 OA
ATOM      4  C   UNL     1      -1.226  11.915  22.097  0.00  0.00    +0.000 C 
ATOM      5  C   UNL     1      -0.465  13.255  22.130  0.00  0.00    +0.000 C 
ATOM      6  C   UNL     1      -1.364  14.414  21.707  0.00  0.00    +0.000 C 
ATOM      7  C   UNL     1      -2.613  14.502  22.576  0.00  0.00    +0.000 C 
ATOM      8  C   UNL     1      -3.352  13.169  22.689  0.00  0.00    +0.000 C 
ATOM      9  C   UNL     1      -2.414  12.015  23.068  0.00  0.00    +0.000 C 
ATOM     10  O   UNL     1      -1.808  11.643  20.824  0.00  0.00    +0.000 OA
ATOM     11  C   UNL     1      -0.846  11.344  19.804  0.00  0.00    +0.000 C 
ENDROOT
BRANCH  11  12
ATOM     12  C   UNL     1      -1.705  10.964  18.615  0.00  0.00    +0.000 A 
ATOM     13  C   UNL     1      -1.280   9.955  17.737  0.00  0.00    +0.000 A 
ATOM     14  C   UNL     1      -1.968   9.713  16.546  0.00  0.00    +0.000 A 
ATOM     15  C   UNL     1      -3.092  10.472  16.230  0.00  0.00    +0.000 A 
ATOM     16 BR   UNL     1      -3.977  10.194  14.583  0.00  0.00    +0.000 Br
ATOM     17  C   UNL     1      -3.549  11.456  17.101  0.00  0.00    +0.000 A 
ATOM     18  C   UNL     1      -2.855  11.704  18.288  0.00  0.00    +0.000 A 
ENDBRANCH  11  12
BRANCH   1  20
ATOM     19  C   UNL     1       1.888  11.193  18.677  0.00  0.00    +0.000 C 
ATOM     20  C   UNL     1       1.370  10.126  19.320  0.00  0.00    +0.000 C 
BRANCH  20  21
ATOM     21  C   UNL     1       1.941   8.765  19.099  0.00  0.00    +0.000 A 
ATOM     22  C   UNL     1       1.825   7.755  20.072  0.00  0.00    +0.000 A 
ATOM     23  C   UNL     1       2.327   6.466  19.854  0.00  0.00    +0.000 A 
ATOM     24  C   UNL     1       2.941   6.161  18.646  0.00  0.00    +0.000 A 
ATOM     25 BR   UNL     1       3.584   4.414  18.324  0.00  0.00    +0.000 Br
ATOM     26  C   UNL     1       3.076   7.138  17.666  0.00  0.00    +0.000 A 
ATOM     27  C   UNL     1       2.583   8.426  17.898  0.00  0.00    +0.000 A 
ENDBRANCH  20  21
ENDBRANCH   1  20
TORSDOF 3
ENDMDL
MODEL 4
REMARK VINA RESULT:      -7.4      5.389      8.698
REMARK  Name = 
REMARK  3 active torsions:
REMARK  status: ('A' for Active; 'I' for Inactive)
REMARK    1  A    between atoms: C_2  and  C_3
REMARK    2  A    between atoms: C_2  and  C_10
REMARK    3  A    between atoms: C_20  and  C_21
REMARK                            x       y       z     vdW  Elec       q    Type
REMARK                         _______ _______ _______ _____ _____    ______ ____
ROOT
ATOM      1  C   UNL     1       3.730   4.723  17.250  0.00  0.00    +0.000 C 
ATOM      2  O   UNL     1       3.898   3.285  17.348  0.00  0.00    +0.000 OA
ATOM      3  O   UNL     1       2.568   2.722  17.642  0.00  0.00    +0.000 OA
ATOM      4  C   UNL     1       2.251   3.077  18.992  0.00  0.00    +0.000 C 
ATOM      5  C   UNL     1       3.278   2.507  19.990  0.00  0.00    +0.000 C 
ATOM      6  C   UNL     1       2.929   2.889  21.426  0.00  0.00    +0.000 C 
ATOM      7  C   UNL     1       1.525   2.432  21.804  0.00  0.00    +0.000 C 
ATOM      8  C   UNL     1       0.469   2.860  20.786  0.00  0.00    +0.000 C 
ATOM      9  C   UNL     1       0.869   2.505  19.347  0.00  0.00    +0.000 C 
ATOM     10  O   UNL     1       2.107   4.492  19.100  0.00  0.00    +0.000 OA
ATOM     11  C   UNL     1       3.251   5.224  18.641  0.00  0.00    +0.000 C 
ENDROOT
BRANCH  11  12
ATOM     12  C   UNL     1       2.800   6.668  18.727  0.00  0.00    +0.000 A 
ATOM     13  C   UNL     1       2.247   7.160  19.919  0.00  0.00    +0.000 A 
ATOM     14  C   UNL     1       1.669   8.430  19.963  0.00  0.00    +0.000 A 
ATOM     15  C   UNL     1       1.649   9.222  18.817  0.00  0.00    +0.000 A 
ATOM     16 BR   UNL     1       0.798  10.910  18.859  0.00  0.00    +0.000 Br
ATOM     17  C   UNL     1       2.219   8.765  17.632  0.00  0.00    +0.000 A 
ATOM     18  C   UNL     1       2.789   7.491  17.587  0.00  0.00    +0.000 A 
ENDBRANCH  11  12
BRANCH   1  20
ATOM     19  C   UNL     1       5.768   6.122  17.669  0.00  0.00    +0.000 C 
ATOM     20  C   UNL     1       5.086   5.307  16.836  0.00  0.00    +0.000 C 
BRANCH  20  21
ATOM     21  C   UNL     1       5.644   4.963  15.497  0.00  0.00    +0.000 A 
ATOM     22  C   UNL     1       6.976   5.265  15.158  0.00  0.00    +0.000 A 
ATOM     23  C   UNL     1       7.516   4.910  13.915  0.00  0.00    +0.000 A 
ATOM     24  C   UNL     1       6.732   4.230  12.994  0.00  0.00    +0.000 A 
ATOM     25 BR   UNL     1       7.462   3.709  11.331  0.00  0.00    +0.000 Br
ATOM     26  C   UNL     1       5.411   3.920  13.295  0.00  0.00    +0.000 A 
ATOM     27  C   UNL     1       4.876   4.290  14.533  0.00  0.00    +0.000 A 
ENDBRANCH  20  21
ENDBRANCH   1  20
TORSDOF 3
ENDMDL
MODEL 5
REMARK VINA RESULT:      -7.4      2.126      3.603
REMARK  Name = 
REMARK  3 active torsions:
REMARK  status: ('A' for Active; 'I' for Inactive)
REMARK    1  A    between atoms: C_2  and  C_3
REMARK    2  A    between atoms: C_2  and  C_10
REMARK    3  A    between atoms: C_20  and  C_21
REMARK                            x       y       z     vdW  Elec       q    Type
REMARK                         _______ _______ _______ _____ _____    ______ ____
ROOT
ATOM      1  C   UNL     1       0.162  11.103  20.975  0.00  0.00    +0.000 C 
ATOM      2  O   UNL     1       1.515  11.465  21.354  0.00  0.00    +0.000 OA
ATOM      3  O   UNL     1       1.518  12.921  21.578  0.00  0.00    +0.000 OA
ATOM      4  C   UNL     1       1.392  13.543  20.294  0.00  0.00    +0.000 C 
ATOM      5  C   UNL     1       2.560  13.169  19.360  0.00  0.00    +0.000 C 
ATOM      6  C   UNL     1       2.416  13.840  17.996  0.00  0.00    +0.000 C 
ATOM      7  C   UNL     1       2.315  15.355  18.124  0.00  0.00    +0.000 C 
ATOM      8  C   UNL     1       1.255  15.795  19.132  0.00  0.00    +0.000 C 
ATOM      9  C   UNL     1       1.395  15.070  20.477  0.00  0.00    +0.000 C 
ATOM     10  O   UNL     1       0.118  13.238  19.731  0.00  0.00    +0.000 OA
ATOM     11  C   UNL     1      -0.150  11.833  19.639  0.00  0.00    +0.000 C 
ENDROOT
BRANCH  11  12
ATOM     12  C   UNL     1      -1.584  11.781  19.153  0.00  0.00    +0.000 A 
ATOM     13  C   UNL     1      -2.584  12.484  19.842  0.00  0.00    +0.000 A 
ATOM     14  C   UNL     1      -3.930  12.309  19.515  0.00  0.00    +0.000 A 
ATOM     15  C   UNL     1      -4.285  11.437  18.488  0.00  0.00    +0.000 A 
ATOM     16 BR   UNL     1      -6.111  11.143  18.097  0.00  0.00    +0.000 Br
ATOM     17  C   UNL     1      -3.306  10.753  17.771  0.00  0.00    +0.000 A 
ATOM     18  C   UNL     1      -1.961  10.922  18.106  0.00  0.00    +0.000 A 
ENDBRANCH  11  12
BRANCH   1  20
ATOM     19  C   UNL     1      -0.789   8.849  21.524  0.00  0.00    +0.000 C 
ATOM     20  C   UNL     1       0.124   9.575  20.847  0.00  0.00    +0.000 C 
BRANCH  20  21
ATOM     21  C   UNL     1       1.115   8.899  19.960  0.00  0.00    +0.000 A 
ATOM     22  C   UNL     1       1.776   7.724  20.362  0.00  0.00    +0.000 A 
ATOM     23  C   UNL     1       2.679   7.064  19.518  0.00  0.00    +0.000 A 
ATOM     24  C   UNL     1       2.923   7.564  18.246  0.00  0.00    +0.000 A 
ATOM     25 BR   UNL     1       4.107   6.660  17.084  0.00  0.00    +0.000 Br
ATOM     26  C   UNL     1       2.290   8.726  17.820  0.00  0.00    +0.000 A 
ATOM     27  C   UNL     1       1.400   9.385  18.674  0.00  0.00    +0.000 A 
ENDBRANCH  20  21
ENDBRANCH   1  20
TORSDOF 3
ENDMDL
MODEL 6
REMARK VINA RESULT:      -7.3      2.651      5.729
REMARK  Name = 
REMARK  3 active torsions:
REMARK  status: ('A' for Active; 'I' for Inactive)
REMARK    1  A    between atoms: C_2  and  C_3
REMARK    2  A    between atoms: C_2  and  C_10
REMARK    3  A    between atoms: C_20  and  C_21
REMARK                            x       y       z     vdW  Elec       q    Type
REMARK                         _______ _______ _______ _____ _____    ______ ____
ROOT
ATOM      1  C   UNL     1      -2.875  13.873  21.189  0.00  0.00    +0.000 C 
ATOM      2  O   UNL     1      -3.566  15.108  21.512  0.00  0.00    +0.000 OA
ATOM      3  O   UNL     1      -2.533  16.078  21.916  0.00  0.00    +0.000 OA
ATOM      4  C   UNL     1      -2.048  15.664  23.198  0.00  0.00    +0.000 C 
ATOM      5  C   UNL     1      -3.169  15.644  24.256  0.00  0.00    +0.000 C 
ATOM      6  C   UNL     1      -2.640  15.205  25.618  0.00  0.00    +0.000 C 
ATOM      7  C   UNL     1      -1.496  16.094  26.089  0.00  0.00    +0.000 C 
ATOM      8  C   UNL     1      -0.401  16.259  25.036  0.00  0.00    +0.000 C 
ATOM      9  C   UNL     1      -0.967  16.654  23.665  0.00  0.00    +0.000 C 
ATOM     10  O   UNL     1      -1.379  14.411  23.082  0.00  0.00    +0.000 OA
ATOM     11  C   UNL     1      -2.183  13.381  22.491  0.00  0.00    +0.000 C 
ENDROOT
BRANCH  11  12
ATOM     12  C   UNL     1      -1.220  12.220  22.354  0.00  0.00    +0.000 A 
ATOM     13  C   UNL     1      -0.218  12.252  21.372  0.00  0.00    +0.000 A 
ATOM     14  C   UNL     1       0.563  11.122  21.118  0.00  0.00    +0.000 A 
ATOM     15  C   UNL     1       0.354   9.956  21.851  0.00  0.00    +0.000 A 
ATOM     16 BR   UNL     1       1.360   8.406  21.453  0.00  0.00    +0.000 Br
ATOM     17  C   UNL     1      -0.614   9.913  22.851  0.00  0.00    +0.000 A 
ATOM     18  C   UNL     1      -1.400  11.040  23.098  0.00  0.00    +0.000 A 
ENDBRANCH  11  12
BRANCH   1  20
ATOM     19  C   UNL     1      -5.017  12.587  21.403  0.00  0.00    +0.000 C 
ATOM     20  C   UNL     1      -3.930  12.892  20.663  0.00  0.00    +0.000 C 
BRANCH  20  21
ATOM     21  C   UNL     1      -3.738  12.275  19.319  0.00  0.00    +0.000 A 
ATOM     22  C   UNL     1      -2.457  11.957  18.834  0.00  0.00    +0.000 A 
ATOM     23  C   UNL     1      -2.275  11.343  17.588  0.00  0.00    +0.000 A 
ATOM     24  C   UNL     1      -3.380  11.023  16.810  0.00  0.00    +0.000 A 
ATOM     25 BR   UNL     1      -3.150  10.158  15.147  0.00  0.00    +0.000 Br
ATOM     26  C   UNL     1      -4.660  11.330  17.258  0.00  0.00    +0.000 A 
ATOM     27  C   UNL     1      -4.831  11.954  18.498  0.00  0.00    +0.000 A 
ENDBRANCH  20  21
ENDBRANCH   1  20
TORSDOF 3
ENDMDL
MODEL 7
REMARK VINA RESULT:      -7.3      2.086      3.338
REMARK  Name = 
REMARK  3 active torsions:
REMARK  status: ('A' for Active; 'I' for Inactive)
REMARK    1  A    between atoms: C_2  and  C_3
REMARK    2  A    between atoms: C_2  and  C_10
REMARK    3  A    between atoms: C_20  and  C_21
REMARK                            x       y       z     vdW  Elec       q    Type
REMARK                         _______ _______ _______ _____ _____    ______ ____
ROOT
ATOM      1  C   UNL     1       0.148  10.902  21.020  0.00  0.00    +0.000 C 
ATOM      2  O   UNL     1       1.502  11.296  21.362  0.00  0.00    +0.000 OA
ATOM      3  O   UNL     1       1.479  12.754  21.574  0.00  0.00    +0.000 OA
ATOM      4  C   UNL     1       1.308  13.362  20.288  0.00  0.00    +0.000 C 
ATOM      5  C   UNL     1       2.460  13.005  19.328  0.00  0.00    +0.000 C 
ATOM      6  C   UNL     1       2.268  13.660  17.963  0.00  0.00    +0.000 C 
ATOM      7  C   UNL     1       2.138  15.174  18.080  0.00  0.00    +0.000 C 
ATOM      8  C   UNL     1       1.093  15.600  19.112  0.00  0.00    +0.000 C 
ATOM      9  C   UNL     1       1.282  14.890  20.459  0.00  0.00    +0.000 C 
ATOM     10  O   UNL     1       0.027  13.025  19.760  0.00  0.00    +0.000 OA
ATOM     11  C   UNL     1      -0.213  11.614  19.686  0.00  0.00    +0.000 C 
ENDROOT
BRANCH  11  12
ATOM     12  C   UNL     1      -1.657  11.527  19.237  0.00  0.00    +0.000 A 
ATOM     13  C   UNL     1      -1.985  10.831  18.064  0.00  0.00    +0.000 A 
ATOM     14  C   UNL     1      -3.280  10.887  17.542  0.00  0.00    +0.000 A 
ATOM     15  C   UNL     1      -4.258  11.633  18.197  0.00  0.00    +0.000 A 
ATOM     16 BR   UNL     1      -5.989  11.770  17.449  0.00  0.00    +0.000 Br
ATOM     17  C   UNL     1      -3.961  12.306  19.379  0.00  0.00    +0.000 A 
ATOM     18  C   UNL     1      -2.664  12.256  19.894  0.00  0.00    +0.000 A 
ENDBRANCH  11  12
BRANCH   1  20
ATOM     19  C   UNL     1      -0.714   8.631  21.641  0.00  0.00    +0.000 C 
ATOM     20  C   UNL     1       0.140   9.373  20.905  0.00  0.00    +0.000 C 
BRANCH  20  21
ATOM     21  C   UNL     1       1.092   8.712  19.966  0.00  0.00    +0.000 A 
ATOM     22  C   UNL     1       1.365   9.254  18.697  0.00  0.00    +0.000 A 
ATOM     23  C   UNL     1       2.287   8.658  17.827  0.00  0.00    +0.000 A 
ATOM     24  C   UNL     1       2.966   7.513  18.223  0.00  0.00    +0.000 A 
ATOM     25 BR   UNL     1       4.242   6.724  17.075  0.00  0.00    +0.000 Br
ATOM     26  C   UNL     1       2.716   6.950  19.469  0.00  0.00    +0.000 A 
ATOM     27  C   UNL     1       1.784   7.544  20.325  0.00  0.00    +0.000 A 
ENDBRANCH  20  21
ENDBRANCH   1  20
TORSDOF 3
ENDMDL
MODEL 8
REMARK VINA RESULT:      -7.2      2.421      3.862
REMARK  Name = 
REMARK  3 active torsions:
REMARK  status: ('A' for Active; 'I' for Inactive)
REMARK    1  A    between atoms: C_2  and  C_3
REMARK    2  A    between atoms: C_2  and  C_10
REMARK    3  A    between atoms: C_20  and  C_21
REMARK                            x       y       z     vdW  Elec       q    Type
REMARK                         _______ _______ _______ _____ _____    ______ ____
ROOT
ATOM      1  C   UNL     1      -3.141  12.194  22.981  0.00  0.00    +0.000 C 
ATOM      2  O   UNL     1      -3.463  12.633  24.327  0.00  0.00    +0.000 OA
ATOM      3  O   UNL     1      -4.904  12.393  24.518  0.00  0.00    +0.000 OA
ATOM      4  C   UNL     1      -5.599  13.355  23.716  0.00  0.00    +0.000 C 
ATOM      5  C   UNL     1      -5.263  14.800  24.136  0.00  0.00    +0.000 C 
ATOM      6  C   UNL     1      -6.012  15.815  23.277  0.00  0.00    +0.000 C 
ATOM      7  C   UNL     1      -7.519  15.594  23.330  0.00  0.00    +0.000 C 
ATOM      8  C   UNL     1      -7.915  14.146  23.044  0.00  0.00    +0.000 C 
ATOM      9  C   UNL     1      -7.113  13.146  23.887  0.00  0.00    +0.000 C 
ATOM     10  O   UNL     1      -5.344  13.110  22.335  0.00  0.00    +0.000 OA
ATOM     11  C   UNL     1      -3.950  13.089  22.002  0.00  0.00    +0.000 C 
ENDROOT
BRANCH  11  12
ATOM     12  C   UNL     1      -3.944  12.680  20.543  0.00  0.00    +0.000 A 
ATOM     13  C   UNL     1      -5.134  12.265  19.927  0.00  0.00    +0.000 A 
ATOM     14  C   UNL     1      -5.116  11.722  18.641  0.00  0.00    +0.000 A 
ATOM     15  C   UNL     1      -3.909  11.600  17.957  0.00  0.00    +0.000 A 
ATOM     16 BR   UNL     1      -3.876  10.795  16.247  0.00  0.00    +0.000 Br
ATOM     17  C   UNL     1      -2.720  12.035  18.538  0.00  0.00    +0.000 A 
ATOM     18  C   UNL     1      -2.739  12.569  19.828  0.00  0.00    +0.000 A 
ENDBRANCH  11  12
BRANCH   1  20
ATOM     19  C   UNL     1      -1.003  13.497  23.117  0.00  0.00    +0.000 C 
ATOM     20  C   UNL     1      -1.624  12.338  22.813  0.00  0.00    +0.000 C 
BRANCH  20  21
ATOM     21  C   UNL     1      -0.838  11.176  22.305  0.00  0.00    +0.000 A 
ATOM     22  C   UNL     1      -0.089  11.261  21.117  0.00  0.00    +0.000 A 
ATOM     23  C   UNL     1       0.680  10.184  20.656  0.00  0.00    +0.000 A 
ATOM     24  C   UNL     1       0.725   9.007  21.389  0.00  0.00    +0.000 A 
ATOM     25 BR   UNL     1       1.792   7.563  20.800  0.00  0.00    +0.000 Br
ATOM     26  C   UNL     1      -0.008   8.889  22.565  0.00  0.00    +0.000 A 
ATOM     27  C   UNL     1      -0.783   9.964  23.010  0.00  0.00    +0.000 A 
ENDBRANCH  20  21
ENDBRANCH   1  20
TORSDOF 3
ENDMDL
MODEL 9
REMARK VINA RESULT:      -7.2      2.104      3.626
REMARK  Name = 
REMARK  3 active torsions:
REMARK  status: ('A' for Active; 'I' for Inactive)
REMARK    1  A    between atoms: C_2  and  C_3
REMARK    2  A    between atoms: C_2  and  C_10
REMARK    3  A    between atoms: C_20  and  C_21
REMARK                            x       y       z     vdW  Elec       q    Type
REMARK                         _______ _______ _______ _____ _____    ______ ____
ROOT
ATOM      1  C   UNL     1       0.182  11.513  21.064  0.00  0.00    +0.000 C 
ATOM      2  O   UNL     1       1.549  11.847  21.421  0.00  0.00    +0.000 OA
ATOM      3  O   UNL     1       1.608  13.314  21.545  0.00  0.00    +0.000 OA
ATOM      4  C   UNL     1       1.506  13.852  20.221  0.00  0.00    +0.000 C 
ATOM      5  C   UNL     1       2.658  13.370  19.318  0.00  0.00    +0.000 C 
ATOM      6  C   UNL     1       2.541  13.951  17.912  0.00  0.00    +0.000 C 
ATOM      7  C   UNL     1       2.499  15.475  17.935  0.00  0.00    +0.000 C 
ATOM      8  C   UNL     1       1.456  16.023  18.908  0.00  0.00    +0.000 C 
ATOM      9  C   UNL     1       1.568  15.386  20.300  0.00  0.00    +0.000 C 
ATOM     10  O   UNL     1       0.221  13.559  19.677  0.00  0.00    +0.000 OA
ATOM     11  C   UNL     1      -0.101  12.162  19.681  0.00  0.00    +0.000 C 
ENDROOT
BRANCH  11  12
ATOM     12  C   UNL     1      -1.536  12.132  19.195  0.00  0.00    +0.000 A 
ATOM     13  C   UNL     1      -2.571  12.560  20.041  0.00  0.00    +0.000 A 
ATOM     14  C   UNL     1      -3.907  12.376  19.677  0.00  0.00    +0.000 A 
ATOM     15  C   UNL     1      -4.216  11.774  18.460  0.00  0.00    +0.000 A 
ATOM     16 BR   UNL     1      -6.024  11.458  18.003  0.00  0.00    +0.000 Br
ATOM     17  C   UNL     1      -3.205  11.371  17.592  0.00  0.00    +0.000 A 
ATOM     18  C   UNL     1      -1.870  11.546  17.961  0.00  0.00    +0.000 A 
ENDBRANCH  11  12
BRANCH   1  20
ATOM     19  C   UNL     1      -0.773   9.333  21.854  0.00  0.00    +0.000 C 
ATOM     20  C   UNL     1       0.086   9.983  21.040  0.00  0.00    +0.000 C 
BRANCH  20  21
ATOM     21  C   UNL     1       0.957   9.217  20.103  0.00  0.00    +0.000 A 
ATOM     22  C   UNL     1       1.250   9.700  18.814  0.00  0.00    +0.000 A 
ATOM     23  C   UNL     1       2.099   9.003  17.944  0.00  0.00    +0.000 A 
ATOM     24  C   UNL     1       2.681   7.813  18.358  0.00  0.00    +0.000 A 
ATOM     25 BR   UNL     1       3.860   6.885  17.209  0.00  0.00    +0.000 Br
ATOM     26  C   UNL     1       2.408   7.305  19.623  0.00  0.00    +0.000 A 
ATOM     27  C   UNL     1       1.550   8.002  20.480  0.00  0.00    +0.000 A 
ENDBRANCH  20  21
ENDBRANCH   1  20
TORSDOF 3
ENDMDL
