MODEL 1
REMARK VINA RESULT:      -7.3      0.000      0.000
REMARK  Name = 
REMARK  15 active torsions:
REMARK  status: ('A' for Active; 'I' for Inactive)
REMARK    1  A    between atoms: CG1_1  and  CB_2
REMARK    2  A    between atoms: CB_2  and  CG2_3
REMARK    3  A    between atoms: CB_2  and  CA_4
REMARK    4  A    between atoms: CA_4  and  N_5
REMARK    5  A    between atoms: CA_4  and  C_25
REMARK    6  A    between atoms: C_6  and  CA_8
REMARK    7  A    between atoms: CA_8  and  C_9
REMARK    8  A    between atoms: CA_8  and  N_19
REMARK    9  A    between atoms: C_9  and  C_10
REMARK   10  A    between atoms: C_11  and  C_12
REMARK   11  A    between atoms: N_19  and  C_20
REMARK   12  A    between atoms: C_20  and  P_21
REMARK   13  A    between atoms: P_21  and  O_23
REMARK   14  A    between atoms: P_21  and  O_24
REMARK   15  A    between atoms: C_25  and  OXT_27
REMARK                            x       y       z     vdW  Elec       q    Type
REMARK                         _______ _______ _______ _____ _____    ______ ____
ROOT
ATOM      1  CA  UNL     1       2.218   5.769  18.782  0.00  0.00    +0.000 C 
ENDROOT
BRANCH   1   3
ATOM      2  N   UNL     1       4.479   5.424  17.467  0.00  0.00    +0.000 N 
ATOM      3  C   UNL     1       3.474   6.305  17.864  0.00  0.00    +0.000 C 
ATOM      4  O   UNL     1       3.559   7.494  17.546  0.00  0.00    +0.000 OA
ATOM      5  H   UNL     1       4.485   4.557  17.985  0.00  0.00    +0.000 HD
BRANCH   2   6
ATOM      6  CA  UNL     1       5.843   5.779  16.867  0.00  0.00    +0.000 C 
BRANCH   6   8
ATOM      7  CG1 UNL     1       7.635   7.623  17.512  0.00  0.00    +0.000 C 
ATOM      8  CB  UNL     1       6.763   6.433  17.974  0.00  0.00    +0.000 C 
ATOM      9  CG2 UNL     1       7.662   5.401  18.663  0.00  0.00    +0.000 C 
ENDBRANCH   6   8
BRANCH   6  10
ATOM     10  C   UNL     1       6.609   4.632  16.127  0.00  0.00    +0.000 C 
ATOM     11  O   UNL     1       7.553   4.772  15.370  0.00  0.00    +0.000 OA
BRANCH  10  12
ATOM     12  OXT UNL     1       6.040   3.408  16.273  0.00  0.00    +0.000 OA
ATOM     13  HXT UNL     1       6.680   2.667  16.160  0.00  0.00    +0.000 HD
ENDBRANCH  10  12
ENDBRANCH   6  10
ENDBRANCH   2   6
ENDBRANCH   1   3
BRANCH   1  14
ATOM     14  N   UNL     1       1.691   4.429  18.178  0.00  0.00    +0.000 NA
ATOM     15  H   UNL     1       2.298   4.172  17.393  0.00  0.00    +0.000 HD
BRANCH  14  16
ATOM     16  C   UNL     1       1.898   3.332  19.150  0.00  0.00    +0.000 C 
BRANCH  16  17
ATOM     17  P   UNL     1       3.122   2.067  18.648  0.00  0.00    +0.000 P 
ATOM     18  O   UNL     1       3.196   2.650  17.229  0.00  0.00    +0.000 OA
BRANCH  17  19
ATOM     19  O   UNL     1       4.313   2.834  19.471  0.00  0.00    +0.000 OA
ATOM     20  H   UNL     1       4.950   2.198  19.835  0.00  0.00    +0.000 HD
ENDBRANCH  17  19
BRANCH  17  21
ATOM     21  O   UNL     1       4.279   0.872  18.173  0.00  0.00    +0.000 OA
ATOM     22  H   UNL     1       4.559   0.443  19.007  0.00  0.00    +0.000 HD
ENDBRANCH  17  21
ENDBRANCH  16  17
ENDBRANCH  14  16
ENDBRANCH   1  14
BRANCH   1  23
ATOM     23  C   UNL     1       2.726   5.685  20.359  0.00  0.00    +0.000 C 
BRANCH  23  24
ATOM     24  C   UNL     1       1.844   6.877  20.693  0.00  0.00    +0.000 C 
ATOM     25  C   UNL     1       1.087   7.900  20.978  0.00  0.00    +0.000 C 
BRANCH  25  26
ATOM     26  C   UNL     1       0.355   9.070  21.356  0.00  0.00    +0.000 A 
ATOM     27  C   UNL     1      -0.014   9.256  22.690  0.00  0.00    +0.000 A 
ATOM     28  C   UNL     1      -0.734  10.394  23.066  0.00  0.00    +0.000 A 
ATOM     29  C   UNL     1      -1.083  11.351  22.112  0.00  0.00    +0.000 A 
ATOM     30  C   UNL     1      -0.730  11.162  20.777  0.00  0.00    +0.000 A 
ATOM     31  C   UNL     1      -0.022  10.020  20.406  0.00  0.00    +0.000 A 
ATOM     32  F   UNL     1       0.301   9.856  19.115  0.00  0.00    +0.000 F 
ENDBRANCH  25  26
ENDBRANCH  23  24
ENDBRANCH   1  23
TORSDOF 13
ENDMDL
MODEL 2
REMARK VINA RESULT:      -7.0      3.708      7.384
REMARK  Name = 
REMARK  15 active torsions:
REMARK  status: ('A' for Active; 'I' for Inactive)
REMARK    1  A    between atoms: CG1_1  and  CB_2
REMARK    2  A    between atoms: CB_2  and  CG2_3
REMARK    3  A    between atoms: CB_2  and  CA_4
REMARK    4  A    between atoms: CA_4  and  N_5
REMARK    5  A    between atoms: CA_4  and  C_25
REMARK    6  A    between atoms: C_6  and  CA_8
REMARK    7  A    between atoms: CA_8  and  C_9
REMARK    8  A    between atoms: CA_8  and  N_19
REMARK    9  A    between atoms: C_9  and  C_10
REMARK   10  A    between atoms: C_11  and  C_12
REMARK   11  A    between atoms: N_19  and  C_20
REMARK   12  A    between atoms: C_20  and  P_21
REMARK   13  A    between atoms: P_21  and  O_23
REMARK   14  A    between atoms: P_21  and  O_24
REMARK   15  A    between atoms: C_25  and  OXT_27
REMARK                            x       y       z     vdW  Elec       q    Type
REMARK                         _______ _______ _______ _____ _____    ______ ____
ROOT
ATOM      1  CA  UNL     1       7.446   6.812  17.609  0.00  0.00    +0.000 C 
ENDROOT
BRANCH   1   3
ATOM      2  N   UNL     1       5.300   5.452  18.320  0.00  0.00    +0.000 N 
ATOM      3  C   UNL     1       6.638   5.753  18.575  0.00  0.00    +0.000 C 
ATOM      4  O   UNL     1       7.193   5.240  19.550  0.00  0.00    +0.000 OA
ATOM      5  H   UNL     1       4.851   6.104  17.694  0.00  0.00    +0.000 HD
BRANCH   2   6
ATOM      6  CA  UNL     1       4.318   4.730  19.248  0.00  0.00    +0.000 C 
BRANCH   6   8
ATOM      7  CG1 UNL     1       2.845   6.845  18.629  0.00  0.00    +0.000 C 
ATOM      8  CB  UNL     1       2.883   5.382  19.124  0.00  0.00    +0.000 C 
ATOM      9  CG2 UNL     1       2.088   5.283  20.431  0.00  0.00    +0.000 C 
ENDBRANCH   6   8
BRANCH   6  10
ATOM     10  C   UNL     1       4.226   3.174  19.105  0.00  0.00    +0.000 C 
ATOM     11  O   UNL     1       3.396   2.561  18.458  0.00  0.00    +0.000 OA
BRANCH  10  12
ATOM     12  OXT UNL     1       5.090   2.498  19.904  0.00  0.00    +0.000 OA
ATOM     13  HXT UNL     1       5.128   1.532  19.705  0.00  0.00    +0.000 HD
ENDBRANCH  10  12
ENDBRANCH   6  10
ENDBRANCH   2   6
ENDBRANCH   1   3
BRANCH   1  14
ATOM     14  N   UNL     1       7.853   6.081  16.290  0.00  0.00    +0.000 NA
ATOM     15  H   UNL     1       8.862   5.905  16.321  0.00  0.00    +0.000 HD
BRANCH  14  16
ATOM     16  C   UNL     1       7.265   4.722  16.275  0.00  0.00    +0.000 C 
BRANCH  16  17
ATOM     17  P   UNL     1       6.322   4.298  14.766  0.00  0.00    +0.000 P 
ATOM     18  O   UNL     1       5.158   5.203  15.194  0.00  0.00    +0.000 OA
BRANCH  17  19
ATOM     19  O   UNL     1       7.278   5.263  13.849  0.00  0.00    +0.000 OA
ATOM     20  H   UNL     1       7.947   5.710  14.394  0.00  0.00    +0.000 HD
ENDBRANCH  17  19
BRANCH  17  21
ATOM     21  O   UNL     1       5.431   3.898  13.338  0.00  0.00    +0.000 OA
ATOM     22  H   UNL     1       5.884   3.114  12.966  0.00  0.00    +0.000 HD
ENDBRANCH  17  21
ENDBRANCH  16  17
ENDBRANCH  14  16
ENDBRANCH   1  14
BRANCH   1  23
ATOM     23  C   UNL     1       6.499   8.159  17.409  0.00  0.00    +0.000 C 
BRANCH  23  24
ATOM     24  C   UNL     1       7.649   9.025  17.896  0.00  0.00    +0.000 C 
ATOM     25  C   UNL     1       8.636   9.767  18.314  0.00  0.00    +0.000 C 
BRANCH  25  26
ATOM     26  C   UNL     1       9.685  10.668  18.685  0.00  0.00    +0.000 A 
ATOM     27  C   UNL     1      10.482  11.248  17.695  0.00  0.00    +0.000 A 
ATOM     28  C   UNL     1      11.513  12.124  18.049  0.00  0.00    +0.000 A 
ATOM     29  C   UNL     1      11.747  12.426  19.392  0.00  0.00    +0.000 A 
ATOM     30  C   UNL     1      10.964  11.837  20.383  0.00  0.00    +0.000 A 
ATOM     31  C   UNL     1       9.945  10.955  20.025  0.00  0.00    +0.000 A 
ATOM     32  F   UNL     1       9.209  10.396  20.996  0.00  0.00    +0.000 F 
ENDBRANCH  25  26
ENDBRANCH  23  24
ENDBRANCH   1  23
TORSDOF 13
ENDMDL
MODEL 3
REMARK VINA RESULT:      -6.8      4.027      7.439
REMARK  Name = 
REMARK  15 active torsions:
REMARK  status: ('A' for Active; 'I' for Inactive)
REMARK    1  A    between atoms: CG1_1  and  CB_2
REMARK    2  A    between atoms: CB_2  and  CG2_3
REMARK    3  A    between atoms: CB_2  and  CA_4
REMARK    4  A    between atoms: CA_4  and  N_5
REMARK    5  A    between atoms: CA_4  and  C_25
REMARK    6  A    between atoms: C_6  and  CA_8
REMARK    7  A    between atoms: CA_8  and  C_9
REMARK    8  A    between atoms: CA_8  and  N_19
REMARK    9  A    between atoms: C_9  and  C_10
REMARK   10  A    between atoms: C_11  and  C_12
REMARK   11  A    between atoms: N_19  and  C_20
REMARK   12  A    between atoms: C_20  and  P_21
REMARK   13  A    between atoms: P_21  and  O_23
REMARK   14  A    between atoms: P_21  and  O_24
REMARK   15  A    between atoms: C_25  and  OXT_27
REMARK                            x       y       z     vdW  Elec       q    Type
REMARK                         _______ _______ _______ _____ _____    ______ ____
ROOT
ATOM      1  CA  UNL     1       7.551   6.960  17.549  0.00  0.00    +0.000 C 
ENDROOT
BRANCH   1   3
ATOM      2  N   UNL     1       5.722   5.279  18.436  0.00  0.00    +0.000 N 
ATOM      3  C   UNL     1       6.974   5.862  18.630  0.00  0.00    +0.000 C 
ATOM      4  O   UNL     1       7.622   5.570  19.638  0.00  0.00    +0.000 OA
ATOM      5  H   UNL     1       5.150   5.763  17.759  0.00  0.00    +0.000 HD
BRANCH   2   6
ATOM      6  CA  UNL     1       4.906   4.472  19.451  0.00  0.00    +0.000 C 
BRANCH   6   8
ATOM      7  CG1 UNL     1       2.384   4.382  20.260  0.00  0.00    +0.000 C 
ATOM      8  CB  UNL     1       3.581   5.252  19.819  0.00  0.00    +0.000 C 
ATOM      9  CG2 UNL     1       3.125   6.182  18.689  0.00  0.00    +0.000 C 
ENDBRANCH   6   8
BRANCH   6  10
ATOM     10  C   UNL     1       4.580   2.988  19.073  0.00  0.00    +0.000 C 
ATOM     11  O   UNL     1       3.968   2.616  18.087  0.00  0.00    +0.000 OA
BRANCH  10  12
ATOM     12  OXT UNL     1       4.914   2.091  20.035  0.00  0.00    +0.000 OA
ATOM     13  HXT UNL     1       4.378   1.263  19.997  0.00  0.00    +0.000 HD
ENDBRANCH  10  12
ENDBRANCH   6  10
ENDBRANCH   2   6
ENDBRANCH   1   3
BRANCH   1  14
ATOM     14  N   UNL     1       7.687   6.269  16.156  0.00  0.00    +0.000 NA
ATOM     15  H   UNL     1       8.087   5.336  16.300  0.00  0.00    +0.000 HD
BRANCH  14  16
ATOM     16  C   UNL     1       6.342   5.989  15.607  0.00  0.00    +0.000 C 
BRANCH  16  17
ATOM     17  P   UNL     1       6.228   4.506  14.542  0.00  0.00    +0.000 P 
ATOM     18  O   UNL     1       7.739   4.538  14.272  0.00  0.00    +0.000 OA
BRANCH  17  19
ATOM     19  O   UNL     1       6.063   3.531  15.849  0.00  0.00    +0.000 OA
ATOM     20  H   UNL     1       6.930   3.292  16.217  0.00  0.00    +0.000 HD
ENDBRANCH  17  19
BRANCH  17  21
ATOM     21  O   UNL     1       6.120   3.102  13.536  0.00  0.00    +0.000 OA
ATOM     22  H   UNL     1       5.161   2.925  13.449  0.00  0.00    +0.000 HD
ENDBRANCH  17  21
ENDBRANCH  16  17
ENDBRANCH  14  16
ENDBRANCH   1  14
BRANCH   1  23
ATOM     23  C   UNL     1       6.565   8.294  17.586  0.00  0.00    +0.000 C 
BRANCH  23  24
ATOM     24  C   UNL     1       7.751   9.143  18.014  0.00  0.00    +0.000 C 
ATOM     25  C   UNL     1       8.767   9.871  18.383  0.00  0.00    +0.000 C 
BRANCH  25  26
ATOM     26  C   UNL     1       9.829  10.767  18.725  0.00  0.00    +0.000 A 
ATOM     27  C   UNL     1      10.629  11.311  17.718  0.00  0.00    +0.000 A 
ATOM     28  C   UNL     1      11.672  12.182  18.045  0.00  0.00    +0.000 A 
ATOM     29  C   UNL     1      11.915  12.517  19.378  0.00  0.00    +0.000 A 
ATOM     30  C   UNL     1      11.129  11.965  20.387  0.00  0.00    +0.000 A 
ATOM     31  C   UNL     1      10.098  11.088  20.057  0.00  0.00    +0.000 A 
ATOM     32  F   UNL     1       9.358  10.564  21.045  0.00  0.00    +0.000 F 
ENDBRANCH  25  26
ENDBRANCH  23  24
ENDBRANCH   1  23
TORSDOF 13
ENDMDL
MODEL 4
REMARK VINA RESULT:      -6.8      1.882      3.966
REMARK  Name = 
REMARK  15 active torsions:
REMARK  status: ('A' for Active; 'I' for Inactive)
REMARK    1  A    between atoms: CG1_1  and  CB_2
REMARK    2  A    between atoms: CB_2  and  CG2_3
REMARK    3  A    between atoms: CB_2  and  CA_4
REMARK    4  A    between atoms: CA_4  and  N_5
REMARK    5  A    between atoms: CA_4  and  C_25
REMARK    6  A    between atoms: C_6  and  CA_8
REMARK    7  A    between atoms: CA_8  and  C_9
REMARK    8  A    between atoms: CA_8  and  N_19
REMARK    9  A    between atoms: C_9  and  C_10
REMARK   10  A    between atoms: C_11  and  C_12
REMARK   11  A    between atoms: N_19  and  C_20
REMARK   12  A    between atoms: C_20  and  P_21
REMARK   13  A    between atoms: P_21  and  O_23
REMARK   14  A    between atoms: P_21  and  O_24
REMARK   15  A    between atoms: C_25  and  OXT_27
REMARK                            x       y       z     vdW  Elec       q    Type
REMARK                         _______ _______ _______ _____ _____    ______ ____
ROOT
ATOM      1  CA  UNL     1       3.666   7.088  18.417  0.00  0.00    +0.000 C 
ENDROOT
BRANCH   1   3
ATOM      2  N   UNL     1       3.439   4.698  19.511  0.00  0.00    +0.000 N 
ATOM      3  C   UNL     1       3.052   5.563  18.488  0.00  0.00    +0.000 C 
ATOM      4  O   UNL     1       2.272   5.157  17.622  0.00  0.00    +0.000 OA
ATOM      5  H   UNL     1       4.267   4.999  20.004  0.00  0.00    +0.000 HD
BRANCH   2   6
ATOM      6  CA  UNL     1       3.205   3.186  19.587  0.00  0.00    +0.000 C 
BRANCH   6   8
ATOM      7  CG1 UNL     1       0.758   3.947  20.265  0.00  0.00    +0.000 C 
ATOM      8  CB  UNL     1       1.875   2.886  20.388  0.00  0.00    +0.000 C 
ATOM      9  CG2 UNL     1       2.141   2.620  21.874  0.00  0.00    +0.000 C 
ENDBRANCH   6   8
BRANCH   6  10
ATOM     10  C   UNL     1       3.218   2.401  18.233  0.00  0.00    +0.000 C 
ATOM     11  O   UNL     1       2.266   1.838  17.721  0.00  0.00    +0.000 OA
BRANCH  10  12
ATOM     12  OXT UNL     1       4.455   2.252  17.696  0.00  0.00    +0.000 OA
ATOM     13  HXT UNL     1       4.804   1.332  17.774  0.00  0.00    +0.000 HD
ENDBRANCH  10  12
ENDBRANCH   6  10
ENDBRANCH   2   6
ENDBRANCH   1   3
BRANCH   1  14
ATOM     14  N   UNL     1       5.186   7.001  18.066  0.00  0.00    +0.000 NA
ATOM     15  H   UNL     1       5.688   6.683  18.902  0.00  0.00    +0.000 HD
BRANCH  14  16
ATOM     16  C   UNL     1       5.408   5.909  17.092  0.00  0.00    +0.000 C 
BRANCH  16  17
ATOM     17  P   UNL     1       6.915   4.910  17.373  0.00  0.00    +0.000 P 
ATOM     18  O   UNL     1       6.373   4.403  18.717  0.00  0.00    +0.000 OA
BRANCH  17  19
ATOM     19  O   UNL     1       6.424   3.790  16.282  0.00  0.00    +0.000 OA
ATOM     20  H   UNL     1       6.721   4.021  15.387  0.00  0.00    +0.000 HD
ENDBRANCH  17  19
BRANCH  17  21
ATOM     21  O   UNL     1       8.339   3.964  17.638  0.00  0.00    +0.000 OA
ATOM     22  H   UNL     1       9.082   4.596  17.561  0.00  0.00    +0.000 HD
ENDBRANCH  17  21
ENDBRANCH  16  17
ENDBRANCH  14  16
ENDBRANCH   1  14
BRANCH   1  23
ATOM     23  C   UNL     1       2.744   7.971  17.358  0.00  0.00    +0.000 C 
BRANCH  23  24
ATOM     24  C   UNL     1       1.938   8.508  18.529  0.00  0.00    +0.000 C 
ATOM     25  C   UNL     1       1.247   8.970  19.533  0.00  0.00    +0.000 C 
BRANCH  25  26
ATOM     26  C   UNL     1       0.599   9.506  20.692  0.00  0.00    +0.000 A 
ATOM     27  C   UNL     1       0.736   8.861  21.923  0.00  0.00    +0.000 A 
ATOM     28  C   UNL     1       0.101   9.375  23.058  0.00  0.00    +0.000 A 
ATOM     29  C   UNL     1      -0.668  10.536  22.967  0.00  0.00    +0.000 A 
ATOM     30  C   UNL     1      -0.819  11.174  21.737  0.00  0.00    +0.000 A 
ATOM     31  C   UNL     1      -0.194  10.651  20.607  0.00  0.00    +0.000 A 
ATOM     32  F   UNL     1      -0.358  11.278  19.433  0.00  0.00    +0.000 F 
ENDBRANCH  25  26
ENDBRANCH  23  24
ENDBRANCH   1  23
TORSDOF 13
ENDMDL
MODEL 5
REMARK VINA RESULT:      -6.8      1.955      4.397
REMARK  Name = 
REMARK  15 active torsions:
REMARK  status: ('A' for Active; 'I' for Inactive)
REMARK    1  A    between atoms: CG1_1  and  CB_2
REMARK    2  A    between atoms: CB_2  and  CG2_3
REMARK    3  A    between atoms: CB_2  and  CA_4
REMARK    4  A    between atoms: CA_4  and  N_5
REMARK    5  A    between atoms: CA_4  and  C_25
REMARK    6  A    between atoms: C_6  and  CA_8
REMARK    7  A    between atoms: CA_8  and  C_9
REMARK    8  A    between atoms: CA_8  and  N_19
REMARK    9  A    between atoms: C_9  and  C_10
REMARK   10  A    between atoms: C_11  and  C_12
REMARK   11  A    between atoms: N_19  and  C_20
REMARK   12  A    between atoms: C_20  and  P_21
REMARK   13  A    between atoms: P_21  and  O_23
REMARK   14  A    between atoms: P_21  and  O_24
REMARK   15  A    between atoms: C_25  and  OXT_27
REMARK                            x       y       z     vdW  Elec       q    Type
REMARK                         _______ _______ _______ _____ _____    ______ ____
ROOT
ATOM      1  CA  UNL     1       5.538   6.699  17.755  0.00  0.00    +0.000 C 
ENDROOT
BRANCH   1   3
ATOM      2  N   UNL     1       4.102   4.570  18.361  0.00  0.00    +0.000 N 
ATOM      3  C   UNL     1       5.149   5.420  18.716  0.00  0.00    +0.000 C 
ATOM      4  O   UNL     1       5.752   5.221  19.773  0.00  0.00    +0.000 OA
ATOM      5  H   UNL     1       3.495   4.950  17.649  0.00  0.00    +0.000 HD
BRANCH   2   6
ATOM      6  CA  UNL     1       3.417   3.521  19.243  0.00  0.00    +0.000 C 
BRANCH   6   8
ATOM      7  CG1 UNL     1       1.416   4.285  17.682  0.00  0.00    +0.000 C 
ATOM      8  CB  UNL     1       1.875   3.453  18.900  0.00  0.00    +0.000 C 
ATOM      9  CG2 UNL     1       0.998   3.816  20.104  0.00  0.00    +0.000 C 
ENDBRANCH   6   8
BRANCH   6  10
ATOM     10  C   UNL     1       4.041   2.085  19.245  0.00  0.00    +0.000 C 
ATOM     11  O   UNL     1       3.588   1.106  18.679  0.00  0.00    +0.000 OA
BRANCH  10  12
ATOM     12  OXT UNL     1       5.103   1.950  20.079  0.00  0.00    +0.000 OA
ATOM     13  HXT UNL     1       5.933   2.342  19.717  0.00  0.00    +0.000 HD
ENDBRANCH  10  12
ENDBRANCH   6  10
ENDBRANCH   2   6
ENDBRANCH   1   3
BRANCH   1  14
ATOM     14  N   UNL     1       7.014   6.533  17.272  0.00  0.00    +0.000 NA
ATOM     15  H   UNL     1       7.628   6.615  18.089  0.00  0.00    +0.000 HD
BRANCH  14  16
ATOM     16  C   UNL     1       7.232   5.143  16.813  0.00  0.00    +0.000 C 
BRANCH  16  17
ATOM     17  P   UNL     1       6.399   4.700  15.245  0.00  0.00    +0.000 P 
ATOM     18  O   UNL     1       7.722   4.796  14.472  0.00  0.00    +0.000 OA
BRANCH  17  19
ATOM     19  O   UNL     1       6.298   3.128  15.696  0.00  0.00    +0.000 OA
ATOM     20  H   UNL     1       5.809   2.608  15.037  0.00  0.00    +0.000 HD
ENDBRANCH  17  19
BRANCH  17  21
ATOM     21  O   UNL     1       5.612   4.281  13.763  0.00  0.00    +0.000 OA
ATOM     22  H   UNL     1       5.705   5.071  13.193  0.00  0.00    +0.000 HD
ENDBRANCH  17  21
ENDBRANCH  16  17
ENDBRANCH  14  16
ENDBRANCH   1  14
BRANCH   1  23
ATOM     23  C   UNL     1       4.405   6.805  16.548  0.00  0.00    +0.000 C 
BRANCH  23  24
ATOM     24  C   UNL     1       3.414   7.379  17.547  0.00  0.00    +0.000 C 
ATOM     25  C   UNL     1       2.563   7.873  18.404  0.00  0.00    +0.000 C 
BRANCH  25  26
ATOM     26  C   UNL     1       1.725   8.489  19.385  0.00  0.00    +0.000 A 
ATOM     27  C   UNL     1       1.625   7.931  20.662  0.00  0.00    +0.000 A 
ATOM     28  C   UNL     1       0.803   8.524  21.625  0.00  0.00    +0.000 A 
ATOM     29  C   UNL     1       0.082   9.679  21.316  0.00  0.00    +0.000 A 
ATOM     30  C   UNL     1       0.167  10.230  20.039  0.00  0.00    +0.000 A 
ATOM     31  C   UNL     1       0.979   9.628  19.080  0.00  0.00    +0.000 A 
ATOM     32  F   UNL     1       1.040  10.173  17.856  0.00  0.00    +0.000 F 
ENDBRANCH  25  26
ENDBRANCH  23  24
ENDBRANCH   1  23
TORSDOF 13
ENDMDL
MODEL 6
REMARK VINA RESULT:      -6.7      1.135      1.761
REMARK  Name = 
REMARK  15 active torsions:
REMARK  status: ('A' for Active; 'I' for Inactive)
REMARK    1  A    between atoms: CG1_1  and  CB_2
REMARK    2  A    between atoms: CB_2  and  CG2_3
REMARK    3  A    between atoms: CB_2  and  CA_4
REMARK    4  A    between atoms: CA_4  and  N_5
REMARK    5  A    between atoms: CA_4  and  C_25
REMARK    6  A    between atoms: C_6  and  CA_8
REMARK    7  A    between atoms: CA_8  and  C_9
REMARK    8  A    between atoms: CA_8  and  N_19
REMARK    9  A    between atoms: C_9  and  C_10
REMARK   10  A    between atoms: C_11  and  C_12
REMARK   11  A    between atoms: N_19  and  C_20
REMARK   12  A    between atoms: C_20  and  P_21
REMARK   13  A    between atoms: P_21  and  O_23
REMARK   14  A    between atoms: P_21  and  O_24
REMARK   15  A    between atoms: C_25  and  OXT_27
REMARK                            x       y       z     vdW  Elec       q    Type
REMARK                         _______ _______ _______ _____ _____    ______ ____
ROOT
ATOM      1  CA  UNL     1       2.569   5.925  18.398  0.00  0.00    +0.000 C 
ENDROOT
BRANCH   1   3
ATOM      2  N   UNL     1       4.888   5.526  17.204  0.00  0.00    +0.000 N 
ATOM      3  C   UNL     1       3.868   6.424  17.519  0.00  0.00    +0.000 C 
ATOM      4  O   UNL     1       3.972   7.599  17.159  0.00  0.00    +0.000 OA
ATOM      5  H   UNL     1       4.867   4.680  17.755  0.00  0.00    +0.000 HD
BRANCH   2   6
ATOM      6  CA  UNL     1       6.279   5.856  16.655  0.00  0.00    +0.000 C 
BRANCH   6   8
ATOM      7  CG1 UNL     1       6.823   5.544  19.230  0.00  0.00    +0.000 C 
ATOM      8  CB  UNL     1       7.298   6.048  17.849  0.00  0.00    +0.000 C 
ATOM      9  CG2 UNL     1       7.759   7.503  17.987  0.00  0.00    +0.000 C 
ENDBRANCH   6   8
BRANCH   6  10
ATOM     10  C   UNL     1       6.868   4.874  15.587  0.00  0.00    +0.000 C 
ATOM     11  O   UNL     1       7.552   5.184  14.628  0.00  0.00    +0.000 OA
BRANCH  10  12
ATOM     12  OXT UNL     1       6.431   3.596  15.717  0.00  0.00    +0.000 OA
ATOM     13  HXT UNL     1       5.451   3.511  15.640  0.00  0.00    +0.000 HD
ENDBRANCH  10  12
ENDBRANCH   6  10
ENDBRANCH   2   6
ENDBRANCH   1   3
BRANCH   1  14
ATOM     14  N   UNL     1       2.083   4.551  17.839  0.00  0.00    +0.000 NA
ATOM     15  H   UNL     1       2.820   4.172  17.237  0.00  0.00    +0.000 HD
BRANCH  14  16
ATOM     16  C   UNL     1       1.997   3.569  18.943  0.00  0.00    +0.000 C 
BRANCH  16  17
ATOM     17  P   UNL     1       3.532   2.627  19.268  0.00  0.00    +0.000 P 
ATOM     18  O   UNL     1       3.147   2.438  20.742  0.00  0.00    +0.000 OA
BRANCH  17  19
ATOM     19  O   UNL     1       2.928   1.305  18.512  0.00  0.00    +0.000 OA
ATOM     20  H   UNL     1       2.881   1.443  17.551  0.00  0.00    +0.000 HD
ENDBRANCH  17  19
BRANCH  17  21
ATOM     21  O   UNL     1       4.983   1.735  19.575  0.00  0.00    +0.000 OA
ATOM     22  H   UNL     1       5.629   2.067  18.920  0.00  0.00    +0.000 HD
ENDBRANCH  17  21
ENDBRANCH  16  17
ENDBRANCH  14  16
ENDBRANCH   1  14
BRANCH   1  23
ATOM     23  C   UNL     1       2.995   5.928  20.002  0.00  0.00    +0.000 C 
BRANCH  23  24
ATOM     24  C   UNL     1       2.166   7.186  20.206  0.00  0.00    +0.000 C 
ATOM     25  C   UNL     1       1.455   8.264  20.382  0.00  0.00    +0.000 C 
BRANCH  25  26
ATOM     26  C   UNL     1       0.576   9.372  20.604  0.00  0.00    +0.000 A 
ATOM     27  C   UNL     1       0.009  10.037  19.514  0.00  0.00    +0.000 A 
ATOM     28  C   UNL     1      -0.846  11.123  19.723  0.00  0.00    +0.000 A 
ATOM     29  C   UNL     1      -1.140  11.545  21.021  0.00  0.00    +0.000 A 
ATOM     30  C   UNL     1      -0.564  10.894  22.110  0.00  0.00    +0.000 A 
ATOM     31  C   UNL     1       0.296   9.819  21.896  0.00  0.00    +0.000 A 
ATOM     32  F   UNL     1       0.843   9.212  22.959  0.00  0.00    +0.000 F 
ENDBRANCH  25  26
ENDBRANCH  23  24
ENDBRANCH   1  23
TORSDOF 13
ENDMDL
MODEL 7
REMARK VINA RESULT:      -6.7      2.591      4.627
REMARK  Name = 
REMARK  15 active torsions:
REMARK  status: ('A' for Active; 'I' for Inactive)
REMARK    1  A    between atoms: CG1_1  and  CB_2
REMARK    2  A    between atoms: CB_2  and  CG2_3
REMARK    3  A    between atoms: CB_2  and  CA_4
REMARK    4  A    between atoms: CA_4  and  N_5
REMARK    5  A    between atoms: CA_4  and  C_25
REMARK    6  A    between atoms: C_6  and  CA_8
REMARK    7  A    between atoms: CA_8  and  C_9
REMARK    8  A    between atoms: CA_8  and  N_19
REMARK    9  A    between atoms: C_9  and  C_10
REMARK   10  A    between atoms: C_11  and  C_12
REMARK   11  A    between atoms: N_19  and  C_20
REMARK   12  A    between atoms: C_20  and  P_21
REMARK   13  A    between atoms: P_21  and  O_23
REMARK   14  A    between atoms: P_21  and  O_24
REMARK   15  A    between atoms: C_25  and  OXT_27
REMARK                            x       y       z     vdW  Elec       q    Type
REMARK                         _______ _______ _______ _____ _____    ______ ____
ROOT
ATOM      1  CA  UNL     1       3.744   6.796  18.259  0.00  0.00    +0.000 C 
ENDROOT
BRANCH   1   3
ATOM      2  N   UNL     1       3.286   4.338  19.102  0.00  0.00    +0.000 N 
ATOM      3  C   UNL     1       4.125   5.452  19.130  0.00  0.00    +0.000 C 
ATOM      4  O   UNL     1       5.133   5.426  19.841  0.00  0.00    +0.000 OA
ATOM      5  H   UNL     1       2.367   4.532  18.731  0.00  0.00    +0.000 HD
BRANCH   2   6
ATOM      6  CA  UNL     1       3.316   3.129  20.042  0.00  0.00    +0.000 C 
BRANCH   6   8
ATOM      7  CG1 UNL     1       1.033   2.501  18.850  0.00  0.00    +0.000 C 
ATOM      8  CB  UNL     1       1.872   2.493  20.147  0.00  0.00    +0.000 C 
ATOM      9  CG2 UNL     1       1.044   3.121  21.274  0.00  0.00    +0.000 C 
ENDBRANCH   6   8
BRANCH   6  10
ATOM     10  C   UNL     1       4.380   2.022  19.734  0.00  0.00    +0.000 C 
ATOM     11  O   UNL     1       5.264   1.649  20.485  0.00  0.00    +0.000 OA
BRANCH  10  12
ATOM     12  OXT UNL     1       4.349   1.571  18.455  0.00  0.00    +0.000 OA
ATOM     13  HXT UNL     1       4.287   0.589  18.391  0.00  0.00    +0.000 HD
ENDBRANCH  10  12
ENDBRANCH   6  10
ENDBRANCH   2   6
ENDBRANCH   1   3
BRANCH   1  14
ATOM     14  N   UNL     1       4.812   6.986  17.137  0.00  0.00    +0.000 NA
ATOM     15  H   UNL     1       5.718   7.165  17.584  0.00  0.00    +0.000 HD
BRANCH  14  16
ATOM     16  C   UNL     1       5.022   5.703  16.429  0.00  0.00    +0.000 C 
BRANCH  16  17
ATOM     17  P   UNL     1       6.628   4.888  16.753  0.00  0.00    +0.000 P 
ATOM     18  O   UNL     1       6.550   4.124  15.424  0.00  0.00    +0.000 OA
BRANCH  17  19
ATOM     19  O   UNL     1       7.444   6.262  16.391  0.00  0.00    +0.000 OA
ATOM     20  H   UNL     1       7.758   6.703  17.198  0.00  0.00    +0.000 HD
ENDBRANCH  17  19
BRANCH  17  21
ATOM     21  O   UNL     1       8.147   4.118  17.060  0.00  0.00    +0.000 OA
ATOM     22  H   UNL     1       8.377   3.667  16.223  0.00  0.00    +0.000 HD
ENDBRANCH  17  21
ENDBRANCH  16  17
ENDBRANCH  14  16
ENDBRANCH   1  14
BRANCH   1  23
ATOM     23  C   UNL     1       2.179   6.646  17.731  0.00  0.00    +0.000 C 
BRANCH  23  24
ATOM     24  C   UNL     1       1.958   8.124  18.008  0.00  0.00    +0.000 C 
ATOM     25  C   UNL     1       1.768   9.392  18.247  0.00  0.00    +0.000 C 
BRANCH  25  26
ATOM     26  C   UNL     1       1.488  10.787  18.402  0.00  0.00    +0.000 A 
ATOM     27  C   UNL     1       2.460  11.731  18.062  0.00  0.00    +0.000 A 
ATOM     28  C   UNL     1       2.196  13.095  18.217  0.00  0.00    +0.000 A 
ATOM     29  C   UNL     1       0.960  13.520  18.708  0.00  0.00    +0.000 A 
ATOM     30  C   UNL     1      -0.006  12.580  19.062  0.00  0.00    +0.000 A 
ATOM     31  C   UNL     1       0.266  11.221  18.917  0.00  0.00    +0.000 A 
ATOM     32  F   UNL     1      -0.676  10.335  19.270  0.00  0.00    +0.000 F 
ENDBRANCH  25  26
ENDBRANCH  23  24
ENDBRANCH   1  23
TORSDOF 13
ENDMDL
MODEL 8
REMARK VINA RESULT:      -6.6      1.944      2.545
REMARK  Name = 
REMARK  15 active torsions:
REMARK  status: ('A' for Active; 'I' for Inactive)
REMARK    1  A    between atoms: CG1_1  and  CB_2
REMARK    2  A    between atoms: CB_2  and  CG2_3
REMARK    3  A    between atoms: CB_2  and  CA_4
REMARK    4  A    between atoms: CA_4  and  N_5
REMARK    5  A    between atoms: CA_4  and  C_25
REMARK    6  A    between atoms: C_6  and  CA_8
REMARK    7  A    between atoms: CA_8  and  C_9
REMARK    8  A    between atoms: CA_8  and  N_19
REMARK    9  A    between atoms: C_9  and  C_10
REMARK   10  A    between atoms: C_11  and  C_12
REMARK   11  A    between atoms: N_19  and  C_20
REMARK   12  A    between atoms: C_20  and  P_21
REMARK   13  A    between atoms: P_21  and  O_23
REMARK   14  A    between atoms: P_21  and  O_24
REMARK   15  A    between atoms: C_25  and  OXT_27
REMARK                            x       y       z     vdW  Elec       q    Type
REMARK                         _______ _______ _______ _____ _____    ______ ____
ROOT
ATOM      1  CA  UNL     1       2.405   6.362  18.489  0.00  0.00    +0.000 C 
ENDROOT
BRANCH   1   3
ATOM      2  N   UNL     1       4.806   5.502  17.811  0.00  0.00    +0.000 N 
ATOM      3  C   UNL     1       3.434   5.252  17.842  0.00  0.00    +0.000 C 
ATOM      4  O   UNL     1       3.003   4.206  17.349  0.00  0.00    +0.000 OA
ATOM      5  H   UNL     1       5.044   6.470  17.974  0.00  0.00    +0.000 HD
BRANCH   2   6
ATOM      6  CA  UNL     1       5.871   4.742  17.015  0.00  0.00    +0.000 C 
BRANCH   6   8
ATOM      7  CG1 UNL     1       5.221   6.663  15.309  0.00  0.00    +0.000 C 
ATOM      8  CB  UNL     1       5.985   5.344  15.558  0.00  0.00    +0.000 C 
ATOM      9  CG2 UNL     1       5.584   4.330  14.480  0.00  0.00    +0.000 C 
ENDBRANCH   6   8
BRANCH   6  10
ATOM     10  C   UNL     1       7.288   4.619  17.670  0.00  0.00    +0.000 C 
ATOM     11  O   UNL     1       8.282   4.149  17.145  0.00  0.00    +0.000 OA
BRANCH  10  12
ATOM     12  OXT UNL     1       7.316   4.958  18.984  0.00  0.00    +0.000 OA
ATOM     13  HXT UNL     1       7.995   4.460  19.498  0.00  0.00    +0.000 HD
ENDBRANCH  10  12
ENDBRANCH   6  10
ENDBRANCH   2   6
ENDBRANCH   1   3
BRANCH   1  14
ATOM     14  N   UNL     1       2.436   6.230  20.044  0.00  0.00    +0.000 NA
ATOM     15  H   UNL     1       1.473   6.109  20.374  0.00  0.00    +0.000 HD
BRANCH  14  16
ATOM     16  C   UNL     1       3.094   4.959  20.421  0.00  0.00    +0.000 C 
BRANCH  16  17
ATOM     17  P   UNL     1       1.984   3.687  21.127  0.00  0.00    +0.000 P 
ATOM     18  O   UNL     1       0.752   4.370  20.517  0.00  0.00    +0.000 OA
BRANCH  17  19
ATOM     19  O   UNL     1       2.451   2.595  19.999  0.00  0.00    +0.000 OA
ATOM     20  H   UNL     1       2.432   2.983  19.109  0.00  0.00    +0.000 HD
ENDBRANCH  17  19
BRANCH  17  21
ATOM     21  O   UNL     1       0.935   2.484  21.795  0.00  0.00    +0.000 OA
ATOM     22  H   UNL     1       0.998   2.600  22.764  0.00  0.00    +0.000 HD
ENDBRANCH  17  21
ENDBRANCH  16  17
ENDBRANCH  14  16
ENDBRANCH   1  14
BRANCH   1  23
ATOM     23  C   UNL     1       2.814   7.856  17.895  0.00  0.00    +0.000 C 
BRANCH  23  24
ATOM     24  C   UNL     1       1.920   8.502  18.942  0.00  0.00    +0.000 C 
ATOM     25  C   UNL     1       1.153   9.056  19.839  0.00  0.00    +0.000 C 
BRANCH  25  26
ATOM     26  C   UNL     1       0.412   9.664  20.902  0.00  0.00    +0.000 A 
ATOM     27  C   UNL     1       0.399   9.069  22.166  0.00  0.00    +0.000 A 
ATOM     28  C   UNL     1      -0.327   9.653  23.208  0.00  0.00    +0.000 A 
ATOM     29  C   UNL     1      -1.038  10.835  22.991  0.00  0.00    +0.000 A 
ATOM     30  C   UNL     1      -1.039  11.423  21.728  0.00  0.00    +0.000 A 
ATOM     31  C   UNL     1      -0.323  10.830  20.690  0.00  0.00    +0.000 A 
ATOM     32  F   UNL     1      -0.344  11.410  19.481  0.00  0.00    +0.000 F 
ENDBRANCH  25  26
ENDBRANCH  23  24
ENDBRANCH   1  23
TORSDOF 13
ENDMDL
MODEL 9
REMARK VINA RESULT:      -6.6      1.788      4.098
REMARK  Name = 
REMARK  15 active torsions:
REMARK  status: ('A' for Active; 'I' for Inactive)
REMARK    1  A    between atoms: CG1_1  and  CB_2
REMARK    2  A    between atoms: CB_2  and  CG2_3
REMARK    3  A    between atoms: CB_2  and  CA_4
REMARK    4  A    between atoms: CA_4  and  N_5
REMARK    5  A    between atoms: CA_4  and  C_25
REMARK    6  A    between atoms: C_6  and  CA_8
REMARK    7  A    between atoms: CA_8  and  C_9
REMARK    8  A    between atoms: CA_8  and  N_19
REMARK    9  A    between atoms: C_9  and  C_10
REMARK   10  A    between atoms: C_11  and  C_12
REMARK   11  A    between atoms: N_19  and  C_20
REMARK   12  A    between atoms: C_20  and  P_21
REMARK   13  A    between atoms: P_21  and  O_23
REMARK   14  A    between atoms: P_21  and  O_24
REMARK   15  A    between atoms: C_25  and  OXT_27
REMARK                            x       y       z     vdW  Elec       q    Type
REMARK                         _______ _______ _______ _____ _____    ______ ____
ROOT
ATOM      1  CA  UNL     1       4.234   6.917  18.092  0.00  0.00    +0.000 C 
ENDROOT
BRANCH   1   3
ATOM      2  N   UNL     1       3.308   4.502  18.612  0.00  0.00    +0.000 N 
ATOM      3  C   UNL     1       4.229   5.500  18.929  0.00  0.00    +0.000 C 
ATOM      4  O   UNL     1       5.013   5.319  19.864  0.00  0.00    +0.000 OA
ATOM      5  H   UNL     1       2.541   4.826  18.040  0.00  0.00    +0.000 HD
BRANCH   2   6
ATOM      6  CA  UNL     1       2.964   3.260  19.440  0.00  0.00    +0.000 C 
BRANCH   6   8
ATOM      7  CG1 UNL     1       1.265   5.013  20.474  0.00  0.00    +0.000 C 
ATOM      8  CB  UNL     1       1.667   3.531  20.303  0.00  0.00    +0.000 C 
ATOM      9  CG2 UNL     1       1.748   2.878  21.688  0.00  0.00    +0.000 C 
ENDBRANCH   6   8
BRANCH   6  10
ATOM     10  C   UNL     1       2.830   1.908  18.661  0.00  0.00    +0.000 C 
ATOM     11  O   UNL     1       3.720   1.340  18.053  0.00  0.00    +0.000 OA
BRANCH  10  12
ATOM     12  OXT UNL     1       1.556   1.447  18.577  0.00  0.00    +0.000 OA
ATOM     13  HXT UNL     1       1.229   1.379  17.649  0.00  0.00    +0.000 HD
ENDBRANCH  10  12
ENDBRANCH   6  10
ENDBRANCH   2   6
ENDBRANCH   1   3
BRANCH   1  14
ATOM     14  N   UNL     1       5.539   6.992  17.238  0.00  0.00    +0.000 NA
ATOM     15  H   UNL     1       6.159   7.691  17.663  0.00  0.00    +0.000 HD
BRANCH  14  16
ATOM     16  C   UNL     1       6.296   5.728  17.376  0.00  0.00    +0.000 C 
BRANCH  16  17
ATOM     17  P   UNL     1       6.320   4.668  15.885  0.00  0.00    +0.000 P 
ATOM     18  O   UNL     1       7.835   4.458  16.014  0.00  0.00    +0.000 OA
BRANCH  17  19
ATOM     19  O   UNL     1       5.658   3.419  16.713  0.00  0.00    +0.000 OA
ATOM     20  H   UNL     1       4.721   3.586  16.907  0.00  0.00    +0.000 HD
ENDBRANCH  17  19
BRANCH  17  21
ATOM     21  O   UNL     1       6.342   3.665  14.475  0.00  0.00    +0.000 OA
ATOM     22  H   UNL     1       6.888   2.891  14.722  0.00  0.00    +0.000 HD
ENDBRANCH  17  21
ENDBRANCH  16  17
ENDBRANCH  14  16
ENDBRANCH   1  14
BRANCH   1  23
ATOM     23  C   UNL     1       2.818   7.017  17.232  0.00  0.00    +0.000 C 
BRANCH  23  24
ATOM     24  C   UNL     1       2.211   7.844  18.354  0.00  0.00    +0.000 C 
ATOM     25  C   UNL     1       1.691   8.552  19.317  0.00  0.00    +0.000 C 
BRANCH  25  26
ATOM     26  C   UNL     1       1.027   9.243  20.380  0.00  0.00    +0.000 A 
ATOM     27  C   UNL     1       0.605   8.537  21.509  0.00  0.00    +0.000 A 
ATOM     28  C   UNL     1      -0.050   9.204  22.549  0.00  0.00    +0.000 A 
ATOM     29  C   UNL     1      -0.281  10.578  22.466  0.00  0.00    +0.000 A 
ATOM     30  C   UNL     1       0.125  11.283  21.334  0.00  0.00    +0.000 A 
ATOM     31  C   UNL     1       0.767  10.611  20.296  0.00  0.00    +0.000 A 
ATOM     32  F   UNL     1       1.143  11.309  19.214  0.00  0.00    +0.000 F 
ENDBRANCH  25  26
ENDBRANCH  23  24
ENDBRANCH   1  23
TORSDOF 13
ENDMDL
