MODEL 1
REMARK VINA RESULT:      -7.1      0.000      0.000
REMARK  Name = 
REMARK  3 active torsions:
REMARK  status: ('A' for Active; 'I' for Inactive)
REMARK    1  A    between atoms: N_4  and  C_5
REMARK    2  A    between atoms: C_5  and  C_6
REMARK    3  A    between atoms: N_14  and  C_15
REMARK                            x       y       z     vdW  Elec       q    Type
REMARK                         _______ _______ _______ _____ _____    ______ ____
ROOT
ATOM      1  O   UNL     1       1.570   4.315  18.096  0.00  0.00    +0.000 OA
ATOM      2  C   UNL     1       2.671   4.662  17.688  0.00  0.00    +0.000 C 
ATOM      3  C   UNL     1       3.668   3.728  17.024  0.00  0.00    +0.000 C 
ATOM      4  N   UNL     1       4.814   4.595  16.844  0.00  0.00    +0.000 N 
ATOM      5  C   UNL     1       4.529   5.908  17.243  0.00  0.00    +0.000 C 
ATOM      6  S   UNL     1       5.622   7.174  17.258  0.00  0.00    +0.000 S 
ATOM      7  N   UNL     1       3.215   5.929  17.699  0.00  0.00    +0.000 N 
ENDROOT
BRANCH   7   8
ATOM      8  C   UNL     1       2.552   7.047  18.248  0.00  0.00    +0.000 A 
ATOM      9  C   UNL     1       2.231   8.139  17.429  0.00  0.00    +0.000 A 
ATOM     10  C   UNL     1       1.636   9.277  17.974  0.00  0.00    +0.000 A 
ATOM     11  C   UNL     1       1.385   9.330  19.341  0.00  0.00    +0.000 A 
ATOM     12  F   UNL     1       0.851  10.449  19.852  0.00  0.00    +0.000 F 
ATOM     13  C   UNL     1       1.691   8.246  20.163  0.00  0.00    +0.000 A 
ATOM     14 CL   UNL     1       1.421   8.332  21.861  0.00  0.00    +0.000 Cl
ATOM     15  C   UNL     1       2.251   7.089  19.615  0.00  0.00    +0.000 A 
ENDBRANCH   7   8
BRANCH   4  16
ATOM     16  C   UNL     1       6.098   4.042  16.422  0.00  0.00    +0.000 C 
BRANCH  16  17
ATOM     17  C   UNL     1       6.363   4.182  14.944  0.00  0.00    +0.000 A 
ATOM     18  C   UNL     1       7.372   5.038  14.478  0.00  0.00    +0.000 A 
ATOM     19  C   UNL     1       7.664   5.125  13.116  0.00  0.00    +0.000 A 
ATOM     20  C   UNL     1       6.948   4.360  12.201  0.00  0.00    +0.000 A 
ATOM     21  C   UNL     1       5.933   3.515  12.647  0.00  0.00    +0.000 A 
ATOM     22  C   UNL     1       5.637   3.430  14.010  0.00  0.00    +0.000 A 
ENDBRANCH  16  17
ENDBRANCH   4  16
TORSDOF 3
ENDMDL
MODEL 2
REMARK VINA RESULT:      -7.0      4.657      5.999
REMARK  Name = 
REMARK  3 active torsions:
REMARK  status: ('A' for Active; 'I' for Inactive)
REMARK    1  A    between atoms: N_4  and  C_5
REMARK    2  A    between atoms: C_5  and  C_6
REMARK    3  A    between atoms: N_14  and  C_15
REMARK                            x       y       z     vdW  Elec       q    Type
REMARK                         _______ _______ _______ _____ _____    ______ ____
ROOT
ATOM      1  O   UNL     1      -0.093   9.500  22.170  0.00  0.00    +0.000 OA
ATOM      2  C   UNL     1       0.544   8.962  21.273  0.00  0.00    +0.000 C 
ATOM      3  C   UNL     1       1.133   7.565  21.364  0.00  0.00    +0.000 C 
ATOM      4  N   UNL     1       1.858   7.465  20.115  0.00  0.00    +0.000 N 
ATOM      5  C   UNL     1       1.658   8.600  19.317  0.00  0.00    +0.000 C 
ATOM      6  S   UNL     1       2.392   8.886  17.841  0.00  0.00    +0.000 S 
ATOM      7  N   UNL     1       0.822   9.461  20.018  0.00  0.00    +0.000 N 
ENDROOT
BRANCH   7   8
ATOM      8  C   UNL     1       0.420  10.745  19.594  0.00  0.00    +0.000 A 
ATOM      9  C   UNL     1      -0.736  10.892  18.813  0.00  0.00    +0.000 A 
ATOM     10  C   UNL     1      -1.105  12.148  18.332  0.00  0.00    +0.000 A 
ATOM     11  C   UNL     1      -0.306  13.252  18.613  0.00  0.00    +0.000 A 
ATOM     12  F   UNL     1      -0.657  14.443  18.106  0.00  0.00    +0.000 F 
ATOM     13  C   UNL     1       0.839  13.119  19.397  0.00  0.00    +0.000 A 
ATOM     14 CL   UNL     1       1.850  14.477  19.706  0.00  0.00    +0.000 Cl
ATOM     15  C   UNL     1       1.192  11.869  19.914  0.00  0.00    +0.000 A 
ENDBRANCH   7   8
BRANCH   4  16
ATOM     16  C   UNL     1       2.763   6.344  19.874  0.00  0.00    +0.000 C 
BRANCH  16  17
ATOM     17  C   UNL     1       2.059   5.067  19.491  0.00  0.00    +0.000 A 
ATOM     18  C   UNL     1       1.989   4.667  18.148  0.00  0.00    +0.000 A 
ATOM     19  C   UNL     1       1.393   3.456  17.793  0.00  0.00    +0.000 A 
ATOM     20  C   UNL     1       0.857   2.629  18.776  0.00  0.00    +0.000 A 
ATOM     21  C   UNL     1       0.907   3.020  20.113  0.00  0.00    +0.000 A 
ATOM     22  C   UNL     1       1.499   4.234  20.469  0.00  0.00    +0.000 A 
ENDBRANCH  16  17
ENDBRANCH   4  16
TORSDOF 3
ENDMDL
MODEL 3
REMARK VINA RESULT:      -6.9      4.682      6.000
REMARK  Name = 
REMARK  3 active torsions:
REMARK  status: ('A' for Active; 'I' for Inactive)
REMARK    1  A    between atoms: N_4  and  C_5
REMARK    2  A    between atoms: C_5  and  C_6
REMARK    3  A    between atoms: N_14  and  C_15
REMARK                            x       y       z     vdW  Elec       q    Type
REMARK                         _______ _______ _______ _____ _____    ______ ____
ROOT
ATOM      1  O   UNL     1       0.090   9.459  22.120  0.00  0.00    +0.000 OA
ATOM      2  C   UNL     1       0.699   8.919  21.205  0.00  0.00    +0.000 C 
ATOM      3  C   UNL     1       1.308   7.530  21.289  0.00  0.00    +0.000 C 
ATOM      4  N   UNL     1       1.986   7.425  20.014  0.00  0.00    +0.000 N 
ATOM      5  C   UNL     1       1.744   8.549  19.212  0.00  0.00    +0.000 C 
ATOM      6  S   UNL     1       2.418   8.826  17.707  0.00  0.00    +0.000 S 
ATOM      7  N   UNL     1       0.924   9.407  19.936  0.00  0.00    +0.000 N 
ENDROOT
BRANCH   7   8
ATOM      8  C   UNL     1       0.491  10.682  19.513  0.00  0.00    +0.000 A 
ATOM      9  C   UNL     1      -0.696  10.808  18.778  0.00  0.00    +0.000 A 
ATOM     10  C   UNL     1      -1.098  12.055  18.298  0.00  0.00    +0.000 A 
ATOM     11  C   UNL     1      -0.301  13.170  18.534  0.00  0.00    +0.000 A 
ATOM     12  F   UNL     1      -0.684  14.351  18.028  0.00  0.00    +0.000 F 
ATOM     13  C   UNL     1       0.876  13.057  19.273  0.00  0.00    +0.000 A 
ATOM     14 CL   UNL     1       1.885  14.430  19.524  0.00  0.00    +0.000 Cl
ATOM     15  C   UNL     1       1.263  11.818  19.789  0.00  0.00    +0.000 A 
ENDBRANCH   7   8
BRANCH   4  16
ATOM     16  C   UNL     1       2.895   6.311  19.752  0.00  0.00    +0.000 C 
BRANCH  16  17
ATOM     17  C   UNL     1       2.195   4.992  19.548  0.00  0.00    +0.000 A 
ATOM     18  C   UNL     1       1.756   4.240  20.647  0.00  0.00    +0.000 A 
ATOM     19  C   UNL     1       1.052   3.048  20.464  0.00  0.00    +0.000 A 
ATOM     20  C   UNL     1       0.782   2.591  19.178  0.00  0.00    +0.000 A 
ATOM     21  C   UNL     1       1.224   3.320  18.075  0.00  0.00    +0.000 A 
ATOM     22  C   UNL     1       1.932   4.510  18.258  0.00  0.00    +0.000 A 
ENDBRANCH  16  17
ENDBRANCH   4  16
TORSDOF 3
ENDMDL
MODEL 4
REMARK VINA RESULT:      -6.8      1.095      1.508
REMARK  Name = 
REMARK  3 active torsions:
REMARK  status: ('A' for Active; 'I' for Inactive)
REMARK    1  A    between atoms: N_4  and  C_5
REMARK    2  A    between atoms: C_5  and  C_6
REMARK    3  A    between atoms: N_14  and  C_15
REMARK                            x       y       z     vdW  Elec       q    Type
REMARK                         _______ _______ _______ _____ _____    ______ ____
ROOT
ATOM      1  O   UNL     1       1.467   4.103  17.809  0.00  0.00    +0.000 OA
ATOM      2  C   UNL     1       2.614   4.401  17.500  0.00  0.00    +0.000 C 
ATOM      3  C   UNL     1       3.541   3.505  16.697  0.00  0.00    +0.000 C 
ATOM      4  N   UNL     1       4.774   4.264  16.710  0.00  0.00    +0.000 N 
ATOM      5  C   UNL     1       4.604   5.503  17.342  0.00  0.00    +0.000 C 
ATOM      6  S   UNL     1       5.817   6.621  17.620  0.00  0.00    +0.000 S 
ATOM      7  N   UNL     1       3.281   5.579  17.762  0.00  0.00    +0.000 N 
ENDROOT
BRANCH   7   8
ATOM      8  C   UNL     1       2.710   6.641  18.495  0.00  0.00    +0.000 A 
ATOM      9  C   UNL     1       2.400   6.465  19.851  0.00  0.00    +0.000 A 
ATOM     10  C   UNL     1       1.773   7.485  20.568  0.00  0.00    +0.000 A 
ATOM     11  C   UNL     1       1.437   8.670  19.922  0.00  0.00    +0.000 A 
ATOM     12  F   UNL     1       0.798   9.621  20.619  0.00  0.00    +0.000 F 
ATOM     13  C   UNL     1       1.750   8.859  18.577  0.00  0.00    +0.000 A 
ATOM     14 CL   UNL     1       1.293  10.308  17.768  0.00  0.00    +0.000 Cl
ATOM     15  C   UNL     1       2.412   7.856  17.865  0.00  0.00    +0.000 A 
ENDBRANCH   7   8
BRANCH   4  16
ATOM     16  C   UNL     1       6.014   3.665  16.222  0.00  0.00    +0.000 C 
BRANCH  16  17
ATOM     17  C   UNL     1       6.312   3.977  14.778  0.00  0.00    +0.000 A 
ATOM     18  C   UNL     1       7.286   4.929  14.440  0.00  0.00    +0.000 A 
ATOM     19  C   UNL     1       7.610   5.178  13.105  0.00  0.00    +0.000 A 
ATOM     20  C   UNL     1       6.962   4.481  12.090  0.00  0.00    +0.000 A 
ATOM     21  C   UNL     1       5.982   3.542  12.409  0.00  0.00    +0.000 A 
ATOM     22  C   UNL     1       5.654   3.296  13.745  0.00  0.00    +0.000 A 
ENDBRANCH  16  17
ENDBRANCH   4  16
TORSDOF 3
ENDMDL
MODEL 5
REMARK VINA RESULT:      -6.7      1.146      1.855
REMARK  Name = 
REMARK  3 active torsions:
REMARK  status: ('A' for Active; 'I' for Inactive)
REMARK    1  A    between atoms: N_4  and  C_5
REMARK    2  A    between atoms: C_5  and  C_6
REMARK    3  A    between atoms: N_14  and  C_15
REMARK                            x       y       z     vdW  Elec       q    Type
REMARK                         _______ _______ _______ _____ _____    ______ ____
ROOT
ATOM      1  O   UNL     1       2.059   3.997  17.753  0.00  0.00    +0.000 OA
ATOM      2  C   UNL     1       3.158   4.438  17.441  0.00  0.00    +0.000 C 
ATOM      3  C   UNL     1       4.188   3.666  16.634  0.00  0.00    +0.000 C 
ATOM      4  N   UNL     1       5.316   4.575  16.644  0.00  0.00    +0.000 N 
ATOM      5  C   UNL     1       4.993   5.783  17.278  0.00  0.00    +0.000 C 
ATOM      6  S   UNL     1       6.055   7.045  17.554  0.00  0.00    +0.000 S 
ATOM      7  N   UNL     1       3.672   5.690  17.702  0.00  0.00    +0.000 N 
ENDROOT
BRANCH   7   8
ATOM      8  C   UNL     1       2.973   6.671  18.438  0.00  0.00    +0.000 A 
ATOM      9  C   UNL     1       2.610   6.418  19.768  0.00  0.00    +0.000 A 
ATOM     10  C   UNL     1       1.861   7.352  20.483  0.00  0.00    +0.000 A 
ATOM     11  C   UNL     1       1.457   8.528  19.860  0.00  0.00    +0.000 A 
ATOM     12  F   UNL     1       0.702   9.395  20.552  0.00  0.00    +0.000 F 
ATOM     13  C   UNL     1       1.821   8.795  18.541  0.00  0.00    +0.000 A 
ATOM     14 CL   UNL     1       1.282  10.230  17.757  0.00  0.00    +0.000 Cl
ATOM     15  C   UNL     1       2.604   7.879  17.833  0.00  0.00    +0.000 A 
ENDBRANCH   7   8
BRANCH   4  16
ATOM     16  C   UNL     1       6.620   4.137  16.152  0.00  0.00    +0.000 C 
BRANCH  16  17
ATOM     17  C   UNL     1       6.762   4.220  14.654  0.00  0.00    +0.000 A 
ATOM     18  C   UNL     1       6.002   3.388  13.818  0.00  0.00    +0.000 A 
ATOM     19  C   UNL     1       6.083   3.502  12.430  0.00  0.00    +0.000 A 
ATOM     20  C   UNL     1       6.927   4.448  11.857  0.00  0.00    +0.000 A 
ATOM     21  C   UNL     1       7.700   5.273  12.674  0.00  0.00    +0.000 A 
ATOM     22  C   UNL     1       7.623   5.156  14.064  0.00  0.00    +0.000 A 
ENDBRANCH  16  17
ENDBRANCH   4  16
TORSDOF 3
ENDMDL
MODEL 6
REMARK VINA RESULT:      -6.7      4.716      5.721
REMARK  Name = 
REMARK  3 active torsions:
REMARK  status: ('A' for Active; 'I' for Inactive)
REMARK    1  A    between atoms: N_4  and  C_5
REMARK    2  A    between atoms: C_5  and  C_6
REMARK    3  A    between atoms: N_14  and  C_15
REMARK                            x       y       z     vdW  Elec       q    Type
REMARK                         _______ _______ _______ _____ _____    ______ ____
ROOT
ATOM      1  O   UNL     1       2.426   8.666  17.024  0.00  0.00    +0.000 OA
ATOM      2  C   UNL     1       2.188   8.327  18.176  0.00  0.00    +0.000 C 
ATOM      3  C   UNL     1       2.683   7.036  18.805  0.00  0.00    +0.000 C 
ATOM      4  N   UNL     1       2.044   7.073  20.104  0.00  0.00    +0.000 N 
ATOM      5  C   UNL     1       1.338   8.270  20.292  0.00  0.00    +0.000 C 
ATOM      6  S   UNL     1       0.409   8.645  21.632  0.00  0.00    +0.000 S 
ATOM      7  N   UNL     1       1.485   9.026  19.135  0.00  0.00    +0.000 N 
ENDROOT
BRANCH   7   8
ATOM      8  C   UNL     1       0.881  10.277  18.887  0.00  0.00    +0.000 A 
ATOM      9  C   UNL     1       1.620  11.456  19.063  0.00  0.00    +0.000 A 
ATOM     10  C   UNL     1       1.014  12.700  18.886  0.00  0.00    +0.000 A 
ATOM     11  C   UNL     1      -0.336  12.764  18.556  0.00  0.00    +0.000 A 
ATOM     12  F   UNL     1      -0.909  13.970  18.432  0.00  0.00    +0.000 F 
ATOM     13  C   UNL     1      -1.077  11.598  18.369  0.00  0.00    +0.000 A 
ATOM     14 CL   UNL     1      -2.758  11.679  18.005  0.00  0.00    +0.000 Cl
ATOM     15  C   UNL     1      -0.465  10.350  18.506  0.00  0.00    +0.000 A 
ENDBRANCH   7   8
BRANCH   4  16
ATOM     16  C   UNL     1       2.079   5.902  20.977  0.00  0.00    +0.000 C 
BRANCH  16  17
ATOM     17  C   UNL     1       2.073   4.591  20.233  0.00  0.00    +0.000 A 
ATOM     18  C   UNL     1       3.278   3.975  19.865  0.00  0.00    +0.000 A 
ATOM     19  C   UNL     1       3.281   2.731  19.232  0.00  0.00    +0.000 A 
ATOM     20  C   UNL     1       2.079   2.088  18.956  0.00  0.00    +0.000 A 
ATOM     21  C   UNL     1       0.872   2.694  19.303  0.00  0.00    +0.000 A 
ATOM     22  C   UNL     1       0.868   3.941  19.933  0.00  0.00    +0.000 A 
ENDBRANCH  16  17
ENDBRANCH   4  16
TORSDOF 3
ENDMDL
MODEL 7
REMARK VINA RESULT:      -6.7      2.669      3.974
REMARK  Name = 
REMARK  3 active torsions:
REMARK  status: ('A' for Active; 'I' for Inactive)
REMARK    1  A    between atoms: N_4  and  C_5
REMARK    2  A    between atoms: C_5  and  C_6
REMARK    3  A    between atoms: N_14  and  C_15
REMARK                            x       y       z     vdW  Elec       q    Type
REMARK                         _______ _______ _______ _____ _____    ______ ____
ROOT
ATOM      1  O   UNL     1       2.269   9.642  17.638  0.00  0.00    +0.000 OA
ATOM      2  C   UNL     1       2.409   8.514  18.092  0.00  0.00    +0.000 C 
ATOM      3  C   UNL     1       3.146   7.393  17.379  0.00  0.00    +0.000 C 
ATOM      4  N   UNL     1       2.925   6.275  18.272  0.00  0.00    +0.000 N 
ATOM      5  C   UNL     1       2.237   6.673  19.427  0.00  0.00    +0.000 C 
ATOM      6  S   UNL     1       1.731   5.651  20.652  0.00  0.00    +0.000 S 
ATOM      7  N   UNL     1       1.985   8.035  19.314  0.00  0.00    +0.000 N 
ENDROOT
BRANCH   7   8
ATOM      8  C   UNL     1       1.260   8.818  20.238  0.00  0.00    +0.000 A 
ATOM      9  C   UNL     1       1.417   8.597  21.614  0.00  0.00    +0.000 A 
ATOM     10  C   UNL     1       0.656   9.319  22.533  0.00  0.00    +0.000 A 
ATOM     11  C   UNL     1      -0.276  10.244  22.076  0.00  0.00    +0.000 A 
ATOM     12  F   UNL     1      -1.027  10.897  22.975  0.00  0.00    +0.000 F 
ATOM     13  C   UNL     1      -0.433  10.479  20.711  0.00  0.00    +0.000 A 
ATOM     14 CL   UNL     1      -1.619  11.591  20.145  0.00  0.00    +0.000 Cl
ATOM     15  C   UNL     1       0.354   9.787  19.787  0.00  0.00    +0.000 A 
ENDBRANCH   7   8
BRANCH   4  16
ATOM     16  C   UNL     1       3.289   4.921  17.864  0.00  0.00    +0.000 C 
BRANCH  16  17
ATOM     17  C   UNL     1       4.749   4.763  17.519  0.00  0.00    +0.000 A 
ATOM     18  C   UNL     1       5.141   4.422  16.216  0.00  0.00    +0.000 A 
ATOM     19  C   UNL     1       6.492   4.336  15.876  0.00  0.00    +0.000 A 
ATOM     20  C   UNL     1       7.469   4.587  16.834  0.00  0.00    +0.000 A 
ATOM     21  C   UNL     1       7.095   4.914  18.137  0.00  0.00    +0.000 A 
ATOM     22  C   UNL     1       5.742   4.996  18.479  0.00  0.00    +0.000 A 
ENDBRANCH  16  17
ENDBRANCH   4  16
TORSDOF 3
ENDMDL
MODEL 8
REMARK VINA RESULT:      -6.7      4.677      5.775
REMARK  Name = 
REMARK  3 active torsions:
REMARK  status: ('A' for Active; 'I' for Inactive)
REMARK    1  A    between atoms: N_4  and  C_5
REMARK    2  A    between atoms: C_5  and  C_6
REMARK    3  A    between atoms: N_14  and  C_15
REMARK                            x       y       z     vdW  Elec       q    Type
REMARK                         _______ _______ _______ _____ _____    ______ ____
ROOT
ATOM      1  O   UNL     1       2.407   8.625  17.048  0.00  0.00    +0.000 OA
ATOM      2  C   UNL     1       2.181   8.295  18.205  0.00  0.00    +0.000 C 
ATOM      3  C   UNL     1       2.680   7.007  18.838  0.00  0.00    +0.000 C 
ATOM      4  N   UNL     1       2.055   7.056  20.144  0.00  0.00    +0.000 N 
ATOM      5  C   UNL     1       1.354   8.255  20.330  0.00  0.00    +0.000 C 
ATOM      6  S   UNL     1       0.441   8.642  21.677  0.00  0.00    +0.000 S 
ATOM      7  N   UNL     1       1.491   9.003  19.166  0.00  0.00    +0.000 N 
ENDROOT
BRANCH   7   8
ATOM      8  C   UNL     1       0.887  10.254  18.916  0.00  0.00    +0.000 A 
ATOM      9  C   UNL     1       1.613  11.434  19.129  0.00  0.00    +0.000 A 
ATOM     10  C   UNL     1       1.005  12.677  18.950  0.00  0.00    +0.000 A 
ATOM     11  C   UNL     1      -0.334  12.737  18.579  0.00  0.00    +0.000 A 
ATOM     12  F   UNL     1      -0.911  13.941  18.452  0.00  0.00    +0.000 F 
ATOM     13  C   UNL     1      -1.062  11.570  18.354  0.00  0.00    +0.000 A 
ATOM     14 CL   UNL     1      -2.732  11.646  17.940  0.00  0.00    +0.000 Cl
ATOM     15  C   UNL     1      -0.447  10.323  18.495  0.00  0.00    +0.000 A 
ENDBRANCH   7   8
BRANCH   4  16
ATOM     16  C   UNL     1       2.097   5.891  21.025  0.00  0.00    +0.000 C 
BRANCH  16  17
ATOM     17  C   UNL     1       2.076   4.574  20.291  0.00  0.00    +0.000 A 
ATOM     18  C   UNL     1       0.860   3.934  20.009  0.00  0.00    +0.000 A 
ATOM     19  C   UNL     1       0.830   2.747  19.276  0.00  0.00    +0.000 A 
ATOM     20  C   UNL     1       2.016   2.182  18.818  0.00  0.00    +0.000 A 
ATOM     21  C   UNL     1       3.233   2.798  19.102  0.00  0.00    +0.000 A 
ATOM     22  C   UNL     1       3.264   3.985  19.839  0.00  0.00    +0.000 A 
ENDBRANCH  16  17
ENDBRANCH   4  16
TORSDOF 3
ENDMDL
MODEL 9
REMARK VINA RESULT:      -6.7      0.363      1.089
REMARK  Name = 
REMARK  3 active torsions:
REMARK  status: ('A' for Active; 'I' for Inactive)
REMARK    1  A    between atoms: N_4  and  C_5
REMARK    2  A    between atoms: C_5  and  C_6
REMARK    3  A    between atoms: N_14  and  C_15
REMARK                            x       y       z     vdW  Elec       q    Type
REMARK                         _______ _______ _______ _____ _____    ______ ____
ROOT
ATOM      1  O   UNL     1       1.918   4.215  18.782  0.00  0.00    +0.000 OA
ATOM      2  C   UNL     1       2.937   4.605  18.225  0.00  0.00    +0.000 C 
ATOM      3  C   UNL     1       3.983   3.685  17.620  0.00  0.00    +0.000 C 
ATOM      4  N   UNL     1       5.002   4.626  17.204  0.00  0.00    +0.000 N 
ATOM      5  C   UNL     1       4.596   5.950  17.425  0.00  0.00    +0.000 C 
ATOM      6  S   UNL     1       5.530   7.308  17.146  0.00  0.00    +0.000 S 
ATOM      7  N   UNL     1       3.327   5.906  17.993  0.00  0.00    +0.000 N 
ENDROOT
BRANCH   7   8
ATOM      8  C   UNL     1       2.581   7.023  18.426  0.00  0.00    +0.000 A 
ATOM      9  C   UNL     1       2.181   7.997  17.500  0.00  0.00    +0.000 A 
ATOM     10  C   UNL     1       1.502   9.138  17.927  0.00  0.00    +0.000 A 
ATOM     11  C   UNL     1       1.243   9.314  19.282  0.00  0.00    +0.000 A 
ATOM     12  F   UNL     1       0.625  10.437  19.676  0.00  0.00    +0.000 F 
ATOM     13  C   UNL     1       1.626   8.347  20.210  0.00  0.00    +0.000 A 
ATOM     14 CL   UNL     1       1.345   8.589  21.892  0.00  0.00    +0.000 Cl
ATOM     15  C   UNL     1       2.273   7.185  19.783  0.00  0.00    +0.000 A 
ENDBRANCH   7   8
BRANCH   4  16
ATOM     16  C   UNL     1       6.307   4.150  16.752  0.00  0.00    +0.000 C 
BRANCH  16  17
ATOM     17  C   UNL     1       6.491   4.210  15.257  0.00  0.00    +0.000 A 
ATOM     18  C   UNL     1       5.659   3.468  14.406  0.00  0.00    +0.000 A 
ATOM     19  C   UNL     1       5.783   3.567  13.019  0.00  0.00    +0.000 A 
ATOM     20  C   UNL     1       6.743   4.409  12.465  0.00  0.00    +0.000 A 
ATOM     21  C   UNL     1       7.587   5.142  13.298  0.00  0.00    +0.000 A 
ATOM     22  C   UNL     1       7.466   5.039  14.686  0.00  0.00    +0.000 A 
ENDBRANCH  16  17
ENDBRANCH   4  16
TORSDOF 3
ENDMDL
