MODEL 1
REMARK VINA RESULT:      -7.6      0.000      0.000
REMARK  Name = 
REMARK  21 active torsions:
REMARK  status: ('A' for Active; 'I' for Inactive)
REMARK    1  A    between atoms: C_1  and  C_2
REMARK    2  A    between atoms: C_2  and  O_3
REMARK    3  A    between atoms: O_3  and  C_4
REMARK    4  A    between atoms: C_4  and  O_5
REMARK    5  A    between atoms: C_4  and  C_8
REMARK    6  A    between atoms: O_5  and  C_6
REMARK    7  A    between atoms: C_6  and  C_7
REMARK    8  A    between atoms: C_8  and  C_9
REMARK    9  A    between atoms: C_8  and  N_10
REMARK   10  A    between atoms: C_11  and  C_13
REMARK   11  A    between atoms: C_13  and  C_14
REMARK   12  A    between atoms: C_13  and  N_21
REMARK   13  A    between atoms: C_14  and  C_15
REMARK   14  A    between atoms: C_22  and  C_24
REMARK   15  A    between atoms: C_24  and  C_25
REMARK   16  A    between atoms: C_24  and  C_30
REMARK   17  A    between atoms: C_25  and  C_26
REMARK   18  A    between atoms: N_28  and  O_29
REMARK   19  A    between atoms: C_30  and  C_31
REMARK   20  A    between atoms: C_31  and  C_32
REMARK   21  A    between atoms: C_31  and  C_33
REMARK                            x       y       z     vdW  Elec       q    Type
REMARK                         _______ _______ _______ _____ _____    ______ ____
ROOT
ATOM      1  C   UNL     1       2.299   7.003  18.638  0.00  0.00    +0.000 C 
ENDROOT
BRANCH   1   3
ATOM      2  N   UNL     1       1.218   9.074  19.513  0.00  0.00    +0.000 N 
ATOM      3  C   UNL     1       1.918   8.496  18.478  0.00  0.00    +0.000 C 
ATOM      4  O   UNL     1       2.212   9.130  17.460  0.00  0.00    +0.000 OA
ATOM      5  H   UNL     1       0.816   8.496  20.241  0.00  0.00    +0.000 HD
BRANCH   2   6
ATOM      6  C   UNL     1       0.816  10.489  19.490  0.00  0.00    +0.000 C 
ATOM      7  C   UNL     1      -0.585  10.578  18.891  0.00  0.00    +0.000 C 
BRANCH   6   8
ATOM      8  C   UNL     1       0.868  11.156  20.904  0.00  0.00    +0.000 C 
BRANCH   8   9
ATOM      9  O   UNL     1       1.850  12.204  20.931  0.00  0.00    +0.000 OA
BRANCH   9  10
ATOM     10  C   UNL     1       1.376  13.391  20.293  0.00  0.00    +0.000 C 
ATOM     11  C   UNL     1       2.400  13.846  19.272  0.00  0.00    +0.000 C 
ENDBRANCH   9  10
ENDBRANCH   8   9
BRANCH   8  12
ATOM     12  O   UNL     1      -0.415  11.599  21.367  0.00  0.00    +0.000 OA
BRANCH  12  14
ATOM     13  C   UNL     1      -2.088  11.780  23.066  0.00  0.00    +0.000 C 
ATOM     14  C   UNL     1      -0.779  11.122  22.662  0.00  0.00    +0.000 C 
ENDBRANCH  12  14
ENDBRANCH   8  12
ENDBRANCH   6   8
ENDBRANCH   2   6
ENDBRANCH   1   3
BRANCH   1  15
ATOM     15  N   UNL     1       3.629   6.826  18.036  0.00  0.00    +0.000 N 
ATOM     16  C   UNL     1       3.964   5.713  17.299  0.00  0.00    +0.000 C 
ATOM     17  O   UNL     1       3.216   4.750  17.167  0.00  0.00    +0.000 OA
ATOM     18  H   UNL     1       4.147   7.678  17.848  0.00  0.00    +0.000 HD
BRANCH  16  19
ATOM     19  C   UNL     1       5.410   5.714  16.799  0.00  0.00    +0.000 C 
BRANCH  19  20
ATOM     20  C   UNL     1       5.463   5.777  15.261  0.00  0.00    +0.000 C 
BRANCH  20  21
ATOM     21  C   UNL     1       6.207   4.618  14.563  0.00  0.00    +0.000 C 
ATOM     22  C   UNL     1       5.343   3.877  13.541  0.00  0.00    +0.000 C 
ATOM     23  C   UNL     1       7.461   5.175  13.877  0.00  0.00    +0.000 C 
ENDBRANCH  20  21
ENDBRANCH  19  20
BRANCH  19  24
ATOM     24  C   UNL     1       6.038   4.410  17.338  0.00  0.00    +0.000 C 
BRANCH  24  25
ATOM     25  C   UNL     1       7.271   4.587  18.198  0.00  0.00    +0.000 C 
ATOM     26  O   UNL     1       8.402   4.222  17.899  0.00  0.00    +0.000 OA
ATOM     27  N   UNL     1       7.003   5.215  19.396  0.00  0.00    +0.000 N 
ATOM     28  H   UNL     1       6.201   5.828  19.518  0.00  0.00    +0.000 HD
BRANCH  27  29
ATOM     29  O   UNL     1       8.124   5.489  20.215  0.00  0.00    +0.000 OA
ATOM     30  H   UNL     1       7.726   6.004  20.951  0.00  0.00    +0.000 HD
ENDBRANCH  27  29
ENDBRANCH  24  25
ENDBRANCH  19  24
ENDBRANCH  16  19
ENDBRANCH   1  15
BRANCH   1  31
ATOM     31  C   UNL     1       2.322   6.567  20.118  0.00  0.00    +0.000 C 
BRANCH  31  32
ATOM     32  C   UNL     1       1.969   5.128  20.423  0.00  0.00    +0.000 A 
ATOM     33  C   UNL     1       1.074   4.456  19.574  0.00  0.00    +0.000 A 
ATOM     34  C   UNL     1       0.761   3.112  19.787  0.00  0.00    +0.000 A 
ATOM     35  C   UNL     1       1.339   2.420  20.848  0.00  0.00    +0.000 A 
ATOM     36  C   UNL     1       2.237   3.070  21.690  0.00  0.00    +0.000 A 
ATOM     37  C   UNL     1       2.562   4.410  21.469  0.00  0.00    +0.000 A 
ENDBRANCH  31  32
ENDBRANCH   1  31
TORSDOF 16
ENDMDL
MODEL 2
REMARK VINA RESULT:      -7.6      1.809      2.654
REMARK  Name = 
REMARK  21 active torsions:
REMARK  status: ('A' for Active; 'I' for Inactive)
REMARK    1  A    between atoms: C_1  and  C_2
REMARK    2  A    between atoms: C_2  and  O_3
REMARK    3  A    between atoms: O_3  and  C_4
REMARK    4  A    between atoms: C_4  and  O_5
REMARK    5  A    between atoms: C_4  and  C_8
REMARK    6  A    between atoms: O_5  and  C_6
REMARK    7  A    between atoms: C_6  and  C_7
REMARK    8  A    between atoms: C_8  and  C_9
REMARK    9  A    between atoms: C_8  and  N_10
REMARK   10  A    between atoms: C_11  and  C_13
REMARK   11  A    between atoms: C_13  and  C_14
REMARK   12  A    between atoms: C_13  and  N_21
REMARK   13  A    between atoms: C_14  and  C_15
REMARK   14  A    between atoms: C_22  and  C_24
REMARK   15  A    between atoms: C_24  and  C_25
REMARK   16  A    between atoms: C_24  and  C_30
REMARK   17  A    between atoms: C_25  and  C_26
REMARK   18  A    between atoms: N_28  and  O_29
REMARK   19  A    between atoms: C_30  and  C_31
REMARK   20  A    between atoms: C_31  and  C_32
REMARK   21  A    between atoms: C_31  and  C_33
REMARK                            x       y       z     vdW  Elec       q    Type
REMARK                         _______ _______ _______ _____ _____    ______ ____
ROOT
ATOM      1  C   UNL     1       2.385   6.904  18.621  0.00  0.00    +0.000 C 
ENDROOT
BRANCH   1   3
ATOM      2  N   UNL     1       1.288   9.066  19.213  0.00  0.00    +0.000 N 
ATOM      3  C   UNL     1       2.056   8.383  18.296  0.00  0.00    +0.000 C 
ATOM      4  O   UNL     1       2.449   8.916  17.254  0.00  0.00    +0.000 OA
ATOM      5  H   UNL     1       0.814   8.564  19.954  0.00  0.00    +0.000 HD
BRANCH   2   6
ATOM      6  C   UNL     1       0.925  10.479  19.029  0.00  0.00    +0.000 C 
ATOM      7  C   UNL     1      -0.510  10.541  18.514  0.00  0.00    +0.000 C 
BRANCH   6   8
ATOM      8  C   UNL     1       1.092  11.322  20.336  0.00  0.00    +0.000 C 
BRANCH   8   9
ATOM      9  O   UNL     1       0.152  12.407  20.360  0.00  0.00    +0.000 OA
BRANCH   9  10
ATOM     10  C   UNL     1       0.793  13.658  20.617  0.00  0.00    +0.000 C 
ATOM     11  C   UNL     1      -0.263  14.698  20.932  0.00  0.00    +0.000 C 
ENDBRANCH   9  10
ENDBRANCH   8   9
BRANCH   8  12
ATOM     12  O   UNL     1       1.039  10.529  21.530  0.00  0.00    +0.000 OA
BRANCH  12  14
ATOM     13  C   UNL     1      -0.191   9.494  23.301  0.00  0.00    +0.000 C 
ATOM     14  C   UNL     1      -0.223  10.538  22.197  0.00  0.00    +0.000 C 
ENDBRANCH  12  14
ENDBRANCH   8  12
ENDBRANCH   6   8
ENDBRANCH   2   6
ENDBRANCH   1   3
BRANCH   1  15
ATOM     15  N   UNL     1       3.820   6.711  18.366  0.00  0.00    +0.000 N 
ATOM     16  C   UNL     1       4.309   5.617  17.689  0.00  0.00    +0.000 C 
ATOM     17  O   UNL     1       3.600   4.683  17.330  0.00  0.00    +0.000 OA
ATOM     18  H   UNL     1       4.384   7.554  18.353  0.00  0.00    +0.000 HD
BRANCH  16  19
ATOM     19  C   UNL     1       5.835   5.595  17.569  0.00  0.00    +0.000 C 
BRANCH  19  20
ATOM     20  C   UNL     1       6.369   6.947  17.062  0.00  0.00    +0.000 C 
BRANCH  20  21
ATOM     21  C   UNL     1       7.773   7.349  17.566  0.00  0.00    +0.000 C 
ATOM     22  C   UNL     1       7.903   8.847  17.849  0.00  0.00    +0.000 C 
ATOM     23  C   UNL     1       8.091   6.551  18.836  0.00  0.00    +0.000 C 
ENDBRANCH  20  21
ENDBRANCH  19  20
BRANCH  19  24
ATOM     24  C   UNL     1       6.157   4.449  16.584  0.00  0.00    +0.000 C 
BRANCH  24  25
ATOM     25  C   UNL     1       6.291   4.855  15.133  0.00  0.00    +0.000 C 
ATOM     26  O   UNL     1       5.365   4.955  14.336  0.00  0.00    +0.000 OA
ATOM     27  N   UNL     1       7.595   5.109  14.765  0.00  0.00    +0.000 N 
ATOM     28  H   UNL     1       8.305   5.383  15.441  0.00  0.00    +0.000 HD
BRANCH  27  29
ATOM     29  O   UNL     1       7.786   5.575  13.443  0.00  0.00    +0.000 OA
ATOM     30  H   UNL     1       7.016   6.172  13.316  0.00  0.00    +0.000 HD
ENDBRANCH  27  29
ENDBRANCH  24  25
ENDBRANCH  19  24
ENDBRANCH  16  19
ENDBRANCH   1  15
BRANCH   1  31
ATOM     31  C   UNL     1       2.051   6.545  20.084  0.00  0.00    +0.000 C 
BRANCH  31  32
ATOM     32  C   UNL     1       1.820   5.085  20.405  0.00  0.00    +0.000 A 
ATOM     33  C   UNL     1       1.070   4.305  19.510  0.00  0.00    +0.000 A 
ATOM     34  C   UNL     1       0.877   2.941  19.739  0.00  0.00    +0.000 A 
ATOM     35  C   UNL     1       1.432   2.337  20.863  0.00  0.00    +0.000 A 
ATOM     36  C   UNL     1       2.189   3.094  21.753  0.00  0.00    +0.000 A 
ATOM     37  C   UNL     1       2.395   4.455  21.517  0.00  0.00    +0.000 A 
ENDBRANCH  31  32
ENDBRANCH   1  31
TORSDOF 16
ENDMDL
MODEL 3
REMARK VINA RESULT:      -7.5      1.833      2.765
REMARK  Name = 
REMARK  21 active torsions:
REMARK  status: ('A' for Active; 'I' for Inactive)
REMARK    1  A    between atoms: C_1  and  C_2
REMARK    2  A    between atoms: C_2  and  O_3
REMARK    3  A    between atoms: O_3  and  C_4
REMARK    4  A    between atoms: C_4  and  O_5
REMARK    5  A    between atoms: C_4  and  C_8
REMARK    6  A    between atoms: O_5  and  C_6
REMARK    7  A    between atoms: C_6  and  C_7
REMARK    8  A    between atoms: C_8  and  C_9
REMARK    9  A    between atoms: C_8  and  N_10
REMARK   10  A    between atoms: C_11  and  C_13
REMARK   11  A    between atoms: C_13  and  C_14
REMARK   12  A    between atoms: C_13  and  N_21
REMARK   13  A    between atoms: C_14  and  C_15
REMARK   14  A    between atoms: C_22  and  C_24
REMARK   15  A    between atoms: C_24  and  C_25
REMARK   16  A    between atoms: C_24  and  C_30
REMARK   17  A    between atoms: C_25  and  C_26
REMARK   18  A    between atoms: N_28  and  O_29
REMARK   19  A    between atoms: C_30  and  C_31
REMARK   20  A    between atoms: C_31  and  C_32
REMARK   21  A    between atoms: C_31  and  C_33
REMARK                            x       y       z     vdW  Elec       q    Type
REMARK                         _______ _______ _______ _____ _____    ______ ____
ROOT
ATOM      1  C   UNL     1       2.435   6.871  18.477  0.00  0.00    +0.000 C 
ENDROOT
BRANCH   1   3
ATOM      2  N   UNL     1       1.258   8.996  19.044  0.00  0.00    +0.000 N 
ATOM      3  C   UNL     1       2.094   8.349  18.162  0.00  0.00    +0.000 C 
ATOM      4  O   UNL     1       2.536   8.912  17.155  0.00  0.00    +0.000 OA
ATOM      5  H   UNL     1       0.751   8.469  19.745  0.00  0.00    +0.000 HD
BRANCH   2   6
ATOM      6  C   UNL     1       0.875  10.405  18.867  0.00  0.00    +0.000 C 
ATOM      7  C   UNL     1      -0.522  10.447  18.253  0.00  0.00    +0.000 C 
BRANCH   6   8
ATOM      8  C   UNL     1       0.930  11.219  20.201  0.00  0.00    +0.000 C 
BRANCH   8   9
ATOM      9  O   UNL     1       0.922  12.630  19.931  0.00  0.00    +0.000 OA
BRANCH   9  10
ATOM     10  C   UNL     1       2.245  13.148  19.783  0.00  0.00    +0.000 C 
ATOM     11  C   UNL     1       2.184  14.440  18.992  0.00  0.00    +0.000 C 
ENDBRANCH   9  10
ENDBRANCH   8   9
BRANCH   8  12
ATOM     12  O   UNL     1      -0.088  10.838  21.138  0.00  0.00    +0.000 OA
BRANCH  12  14
ATOM     13  C   UNL     1      -0.468   8.747  22.233  0.00  0.00    +0.000 C 
ATOM     14  C   UNL     1       0.368  10.016  22.212  0.00  0.00    +0.000 C 
ENDBRANCH  12  14
ENDBRANCH   8  12
ENDBRANCH   6   8
ENDBRANCH   2   6
ENDBRANCH   1   3
BRANCH   1  15
ATOM     15  N   UNL     1       3.878   6.700  18.251  0.00  0.00    +0.000 N 
ATOM     16  C   UNL     1       4.400   5.603  17.603  0.00  0.00    +0.000 C 
ATOM     17  O   UNL     1       3.715   4.650  17.249  0.00  0.00    +0.000 OA
ATOM     18  H   UNL     1       4.427   7.553  18.232  0.00  0.00    +0.000 HD
BRANCH  16  19
ATOM     19  C   UNL     1       5.928   5.608  17.511  0.00  0.00    +0.000 C 
BRANCH  19  20
ATOM     20  C   UNL     1       6.448   6.972  17.025  0.00  0.00    +0.000 C 
BRANCH  20  21
ATOM     21  C   UNL     1       7.824   7.405  17.576  0.00  0.00    +0.000 C 
ATOM     22  C   UNL     1       7.924   8.911  17.830  0.00  0.00    +0.000 C 
ATOM     23  C   UNL     1       8.101   6.640  18.876  0.00  0.00    +0.000 C 
ENDBRANCH  20  21
ENDBRANCH  19  20
BRANCH  19  24
ATOM     24  C   UNL     1       6.287   4.475  16.524  0.00  0.00    +0.000 C 
BRANCH  24  25
ATOM     25  C   UNL     1       6.402   4.887  15.072  0.00  0.00    +0.000 C 
ATOM     26  O   UNL     1       5.468   4.963  14.281  0.00  0.00    +0.000 OA
ATOM     27  N   UNL     1       7.696   5.178  14.698  0.00  0.00    +0.000 N 
ATOM     28  H   UNL     1       8.402   5.470  15.371  0.00  0.00    +0.000 HD
BRANCH  27  29
ATOM     29  O   UNL     1       7.867   5.651  13.375  0.00  0.00    +0.000 OA
ATOM     30  H   UNL     1       8.815   5.907  13.363  0.00  0.00    +0.000 HD
ENDBRANCH  27  29
ENDBRANCH  24  25
ENDBRANCH  19  24
ENDBRANCH  16  19
ENDBRANCH   1  15
BRANCH   1  31
ATOM     31  C   UNL     1       2.074   6.489  19.927  0.00  0.00    +0.000 C 
BRANCH  31  32
ATOM     32  C   UNL     1       1.862   5.022  20.227  0.00  0.00    +0.000 A 
ATOM     33  C   UNL     1       2.353   4.500  21.435  0.00  0.00    +0.000 A 
ATOM     34  C   UNL     1       2.134   3.164  21.777  0.00  0.00    +0.000 A 
ATOM     35  C   UNL     1       1.419   2.333  20.919  0.00  0.00    +0.000 A 
ATOM     36  C   UNL     1       0.916   2.839  19.724  0.00  0.00    +0.000 A 
ATOM     37  C   UNL     1       1.122   4.179  19.388  0.00  0.00    +0.000 A 
ENDBRANCH  31  32
ENDBRANCH   1  31
TORSDOF 16
ENDMDL
MODEL 4
REMARK VINA RESULT:      -7.4      1.784      2.799
REMARK  Name = 
REMARK  21 active torsions:
REMARK  status: ('A' for Active; 'I' for Inactive)
REMARK    1  A    between atoms: C_1  and  C_2
REMARK    2  A    between atoms: C_2  and  O_3
REMARK    3  A    between atoms: O_3  and  C_4
REMARK    4  A    between atoms: C_4  and  O_5
REMARK    5  A    between atoms: C_4  and  C_8
REMARK    6  A    between atoms: O_5  and  C_6
REMARK    7  A    between atoms: C_6  and  C_7
REMARK    8  A    between atoms: C_8  and  C_9
REMARK    9  A    between atoms: C_8  and  N_10
REMARK   10  A    between atoms: C_11  and  C_13
REMARK   11  A    between atoms: C_13  and  C_14
REMARK   12  A    between atoms: C_13  and  N_21
REMARK   13  A    between atoms: C_14  and  C_15
REMARK   14  A    between atoms: C_22  and  C_24
REMARK   15  A    between atoms: C_24  and  C_25
REMARK   16  A    between atoms: C_24  and  C_30
REMARK   17  A    between atoms: C_25  and  C_26
REMARK   18  A    between atoms: N_28  and  O_29
REMARK   19  A    between atoms: C_30  and  C_31
REMARK   20  A    between atoms: C_31  and  C_32
REMARK   21  A    between atoms: C_31  and  C_33
REMARK                            x       y       z     vdW  Elec       q    Type
REMARK                         _______ _______ _______ _____ _____    ______ ____
ROOT
ATOM      1  C   UNL     1       2.273   7.127  18.491  0.00  0.00    +0.000 C 
ENDROOT
BRANCH   1   3
ATOM      2  N   UNL     1       0.885   9.043  19.282  0.00  0.00    +0.000 N 
ATOM      3  C   UNL     1       1.803   8.596  18.357  0.00  0.00    +0.000 C 
ATOM      4  O   UNL     1       2.217   9.326  17.451  0.00  0.00    +0.000 OA
ATOM      5  H   UNL     1       0.412   8.384  19.888  0.00  0.00    +0.000 HD
BRANCH   2   6
ATOM      6  C   UNL     1       0.376  10.422  19.275  0.00  0.00    +0.000 C 
ATOM      7  C   UNL     1      -1.138  10.372  19.090  0.00  0.00    +0.000 C 
BRANCH   6   8
ATOM      8  C   UNL     1       0.761  11.217  20.565  0.00  0.00    +0.000 C 
BRANCH   8   9
ATOM      9  O   UNL     1       1.661  12.290  20.247  0.00  0.00    +0.000 OA
BRANCH   9  10
ATOM     10  C   UNL     1       1.065  13.568  20.476  0.00  0.00    +0.000 C 
ATOM     11  C   UNL     1       1.962  14.374  21.393  0.00  0.00    +0.000 C 
ENDBRANCH   9  10
ENDBRANCH   8   9
BRANCH   8  12
ATOM     12  O   UNL     1      -0.378  11.665  21.313  0.00  0.00    +0.000 OA
BRANCH  12  14
ATOM     13  C   UNL     1      -1.844  11.529  23.198  0.00  0.00    +0.000 C 
ATOM     14  C   UNL     1      -0.559  11.014  22.571  0.00  0.00    +0.000 C 
ENDBRANCH  12  14
ENDBRANCH   8  12
ENDBRANCH   6   8
ENDBRANCH   2   6
ENDBRANCH   1   3
BRANCH   1  15
ATOM     15  N   UNL     1       3.620   7.046  17.905  0.00  0.00    +0.000 N 
ATOM     16  C   UNL     1       4.080   5.917  17.266  0.00  0.00    +0.000 C 
ATOM     17  O   UNL     1       3.443   4.870  17.218  0.00  0.00    +0.000 OA
ATOM     18  H   UNL     1       4.042   7.930  17.643  0.00  0.00    +0.000 HD
BRANCH  16  19
ATOM     19  C   UNL     1       5.522   6.034  16.765  0.00  0.00    +0.000 C 
BRANCH  19  20
ATOM     20  C   UNL     1       6.185   7.323  17.284  0.00  0.00    +0.000 C 
BRANCH  20  21
ATOM     21  C   UNL     1       7.676   7.207  17.670  0.00  0.00    +0.000 C 
ATOM     22  C   UNL     1       8.302   8.547  18.060  0.00  0.00    +0.000 C 
ATOM     23  C   UNL     1       7.811   6.213  18.831  0.00  0.00    +0.000 C 
ENDBRANCH  20  21
ENDBRANCH  19  20
BRANCH  19  24
ATOM     24  C   UNL     1       5.428   6.022  15.223  0.00  0.00    +0.000 C 
BRANCH  24  25
ATOM     25  C   UNL     1       6.354   5.053  14.521  0.00  0.00    +0.000 C 
ATOM     26  O   UNL     1       7.578   5.126  14.506  0.00  0.00    +0.000 OA
ATOM     27  N   UNL     1       5.679   4.043  13.869  0.00  0.00    +0.000 N 
ATOM     28  H   UNL     1       4.745   3.749  14.146  0.00  0.00    +0.000 HD
BRANCH  27  29
ATOM     29  O   UNL     1       6.486   3.052  13.260  0.00  0.00    +0.000 OA
ATOM     30  H   UNL     1       5.982   2.229  13.443  0.00  0.00    +0.000 HD
ENDBRANCH  27  29
ENDBRANCH  24  25
ENDBRANCH  19  24
ENDBRANCH  16  19
ENDBRANCH   1  15
BRANCH   1  31
ATOM     31  C   UNL     1       2.304   6.660  19.961  0.00  0.00    +0.000 C 
BRANCH  31  32
ATOM     32  C   UNL     1       1.986   5.207  20.235  0.00  0.00    +0.000 A 
ATOM     33  C   UNL     1       2.518   4.602  21.386  0.00  0.00    +0.000 A 
ATOM     34  C   UNL     1       2.208   3.279  21.706  0.00  0.00    +0.000 A 
ATOM     35  C   UNL     1       1.359   2.543  20.884  0.00  0.00    +0.000 A 
ATOM     36  C   UNL     1       0.814   3.132  19.746  0.00  0.00    +0.000 A 
ATOM     37  C   UNL     1       1.113   4.460  19.433  0.00  0.00    +0.000 A 
ENDBRANCH  31  32
ENDBRANCH   1  31
TORSDOF 16
ENDMDL
MODEL 5
REMARK VINA RESULT:      -7.4      1.862      3.027
REMARK  Name = 
REMARK  21 active torsions:
REMARK  status: ('A' for Active; 'I' for Inactive)
REMARK    1  A    between atoms: C_1  and  C_2
REMARK    2  A    between atoms: C_2  and  O_3
REMARK    3  A    between atoms: O_3  and  C_4
REMARK    4  A    between atoms: C_4  and  O_5
REMARK    5  A    between atoms: C_4  and  C_8
REMARK    6  A    between atoms: O_5  and  C_6
REMARK    7  A    between atoms: C_6  and  C_7
REMARK    8  A    between atoms: C_8  and  C_9
REMARK    9  A    between atoms: C_8  and  N_10
REMARK   10  A    between atoms: C_11  and  C_13
REMARK   11  A    between atoms: C_13  and  C_14
REMARK   12  A    between atoms: C_13  and  N_21
REMARK   13  A    between atoms: C_14  and  C_15
REMARK   14  A    between atoms: C_22  and  C_24
REMARK   15  A    between atoms: C_24  and  C_25
REMARK   16  A    between atoms: C_24  and  C_30
REMARK   17  A    between atoms: C_25  and  C_26
REMARK   18  A    between atoms: N_28  and  O_29
REMARK   19  A    between atoms: C_30  and  C_31
REMARK   20  A    between atoms: C_31  and  C_32
REMARK   21  A    between atoms: C_31  and  C_33
REMARK                            x       y       z     vdW  Elec       q    Type
REMARK                         _______ _______ _______ _____ _____    ______ ____
ROOT
ATOM      1  C   UNL     1       2.476   6.833  18.634  0.00  0.00    +0.000 C 
ENDROOT
BRANCH   1   3
ATOM      2  N   UNL     1       1.395   8.949  19.395  0.00  0.00    +0.000 N 
ATOM      3  C   UNL     1       2.105   8.318  18.397  0.00  0.00    +0.000 C 
ATOM      4  O   UNL     1       2.413   8.901  17.353  0.00  0.00    +0.000 OA
ATOM      5  H   UNL     1       0.981   8.409  20.145  0.00  0.00    +0.000 HD
BRANCH   2   6
ATOM      6  C   UNL     1       1.000  10.362  19.298  0.00  0.00    +0.000 C 
ATOM      7  C   UNL     1      -0.285  10.445  18.479  0.00  0.00    +0.000 C 
BRANCH   6   8
ATOM      8  C   UNL     1       0.821  11.038  20.697  0.00  0.00    +0.000 C 
BRANCH   8   9
ATOM      9  O   UNL     1       0.994  10.074  21.748  0.00  0.00    +0.000 OA
BRANCH   9  10
ATOM     10  C   UNL     1      -0.254   9.520  22.170  0.00  0.00    +0.000 C 
ATOM     11  C   UNL     1      -0.903  10.464  23.163  0.00  0.00    +0.000 C 
ENDBRANCH   9  10
ENDBRANCH   8   9
BRANCH   8  12
ATOM     12  O   UNL     1       1.651  12.194  20.876  0.00  0.00    +0.000 OA
BRANCH  12  14
ATOM     13  C   UNL     1       0.167  13.771  21.892  0.00  0.00    +0.000 C 
ATOM     14  C   UNL     1       0.991  13.441  20.659  0.00  0.00    +0.000 C 
ENDBRANCH  12  14
ENDBRANCH   8  12
ENDBRANCH   6   8
ENDBRANCH   2   6
ENDBRANCH   1   3
BRANCH   1  15
ATOM     15  N   UNL     1       3.934   6.720  18.485  0.00  0.00    +0.000 N 
ATOM     16  C   UNL     1       4.524   5.745  17.712  0.00  0.00    +0.000 C 
ATOM     17  O   UNL     1       3.888   4.849  17.168  0.00  0.00    +0.000 OA
ATOM     18  H   UNL     1       4.462   7.573  18.635  0.00  0.00    +0.000 HD
BRANCH  16  19
ATOM     19  C   UNL     1       6.054   5.786  17.727  0.00  0.00    +0.000 C 
BRANCH  19  20
ATOM     20  C   UNL     1       6.581   7.059  17.041  0.00  0.00    +0.000 C 
BRANCH  20  21
ATOM     21  C   UNL     1       7.915   7.617  17.584  0.00  0.00    +0.000 C 
ATOM     22  C   UNL     1       7.881   9.127  17.828  0.00  0.00    +0.000 C 
ATOM     23  C   UNL     1       8.263   6.887  18.887  0.00  0.00    +0.000 C 
ENDBRANCH  20  21
ENDBRANCH  19  20
BRANCH  19  24
ATOM     24  C   UNL     1       6.511   4.508  16.988  0.00  0.00    +0.000 C 
BRANCH  24  25
ATOM     25  C   UNL     1       6.739   4.663  15.500  0.00  0.00    +0.000 C 
ATOM     26  O   UNL     1       7.669   5.273  14.984  0.00  0.00    +0.000 OA
ATOM     27  N   UNL     1       5.772   4.038  14.742  0.00  0.00    +0.000 N 
ATOM     28  H   UNL     1       5.225   3.257  15.099  0.00  0.00    +0.000 HD
BRANCH  27  29
ATOM     29  O   UNL     1       5.967   4.070  13.341  0.00  0.00    +0.000 OA
ATOM     30  H   UNL     1       5.331   3.391  13.024  0.00  0.00    +0.000 HD
ENDBRANCH  27  29
ENDBRANCH  24  25
ENDBRANCH  19  24
ENDBRANCH  16  19
ENDBRANCH   1  15
BRANCH   1  31
ATOM     31  C   UNL     1       2.044   6.344  20.032  0.00  0.00    +0.000 C 
BRANCH  31  32
ATOM     32  C   UNL     1       1.828   4.858  20.211  0.00  0.00    +0.000 A 
ATOM     33  C   UNL     1       1.369   4.103  19.119  0.00  0.00    +0.000 A 
ATOM     34  C   UNL     1       1.206   2.721  19.224  0.00  0.00    +0.000 A 
ATOM     35  C   UNL     1       1.501   2.072  20.419  0.00  0.00    +0.000 A 
ATOM     36  C   UNL     1       1.969   2.804  21.507  0.00  0.00    +0.000 A 
ATOM     37  C   UNL     1       2.146   4.185  21.398  0.00  0.00    +0.000 A 
ENDBRANCH  31  32
ENDBRANCH   1  31
TORSDOF 16
ENDMDL
MODEL 6
REMARK VINA RESULT:      -7.3      1.986      8.022
REMARK  Name = 
REMARK  21 active torsions:
REMARK  status: ('A' for Active; 'I' for Inactive)
REMARK    1  A    between atoms: C_1  and  C_2
REMARK    2  A    between atoms: C_2  and  O_3
REMARK    3  A    between atoms: O_3  and  C_4
REMARK    4  A    between atoms: C_4  and  O_5
REMARK    5  A    between atoms: C_4  and  C_8
REMARK    6  A    between atoms: O_5  and  C_6
REMARK    7  A    between atoms: C_6  and  C_7
REMARK    8  A    between atoms: C_8  and  C_9
REMARK    9  A    between atoms: C_8  and  N_10
REMARK   10  A    between atoms: C_11  and  C_13
REMARK   11  A    between atoms: C_13  and  C_14
REMARK   12  A    between atoms: C_13  and  N_21
REMARK   13  A    between atoms: C_14  and  C_15
REMARK   14  A    between atoms: C_22  and  C_24
REMARK   15  A    between atoms: C_24  and  C_25
REMARK   16  A    between atoms: C_24  and  C_30
REMARK   17  A    between atoms: C_25  and  C_26
REMARK   18  A    between atoms: N_28  and  O_29
REMARK   19  A    between atoms: C_30  and  C_31
REMARK   20  A    between atoms: C_31  and  C_32
REMARK   21  A    between atoms: C_31  and  C_33
REMARK                            x       y       z     vdW  Elec       q    Type
REMARK                         _______ _______ _______ _____ _____    ______ ____
ROOT
ATOM      1  C   UNL     1       2.994   6.846  18.339  0.00  0.00    +0.000 C 
ENDROOT
BRANCH   1   3
ATOM      2  N   UNL     1       5.451   6.559  18.017  0.00  0.00    +0.000 N 
ATOM      3  C   UNL     1       4.244   6.853  17.423  0.00  0.00    +0.000 C 
ATOM      4  O   UNL     1       4.162   7.130  16.223  0.00  0.00    +0.000 OA
ATOM      5  H   UNL     1       5.529   6.531  19.026  0.00  0.00    +0.000 HD
BRANCH   2   6
ATOM      6  C   UNL     1       6.707   6.514  17.252  0.00  0.00    +0.000 C 
ATOM      7  C   UNL     1       7.592   7.666  17.718  0.00  0.00    +0.000 C 
BRANCH   6   8
ATOM      8  C   UNL     1       7.448   5.143  17.385  0.00  0.00    +0.000 C 
BRANCH   8   9
ATOM      9  O   UNL     1       6.891   4.371  18.460  0.00  0.00    +0.000 OA
BRANCH   9  10
ATOM     10  C   UNL     1       5.682   3.717  18.072  0.00  0.00    +0.000 C 
ATOM     11  C   UNL     1       4.968   3.221  19.315  0.00  0.00    +0.000 C 
ENDBRANCH   9  10
ENDBRANCH   8   9
BRANCH   8  12
ATOM     12  O   UNL     1       7.500   4.407  16.155  0.00  0.00    +0.000 OA
BRANCH  12  14
ATOM     13  C   UNL     1       6.255   4.028  14.148  0.00  0.00    +0.000 C 
ATOM     14  C   UNL     1       6.911   5.072  15.037  0.00  0.00    +0.000 C 
ENDBRANCH  12  14
ENDBRANCH   8  12
ENDBRANCH   6   8
ENDBRANCH   2   6
ENDBRANCH   1   3
BRANCH   1  15
ATOM     15  N   UNL     1       2.321   8.142  18.166  0.00  0.00    +0.000 N 
ATOM     16  C   UNL     1       1.646   8.766  19.191  0.00  0.00    +0.000 C 
ATOM     17  O   UNL     1       1.477   8.250  20.290  0.00  0.00    +0.000 OA
ATOM     18  H   UNL     1       2.680   8.731  17.422  0.00  0.00    +0.000 HD
BRANCH  16  19
ATOM     19  C   UNL     1       0.987  10.086  18.784  0.00  0.00    +0.000 C 
BRANCH  19  20
ATOM     20  C   UNL     1      -0.258   9.837  17.913  0.00  0.00    +0.000 C 
BRANCH  20  21
ATOM     21  C   UNL     1      -1.560  10.524  18.384  0.00  0.00    +0.000 C 
ATOM     22  C   UNL     1      -1.551  12.039  18.173  0.00  0.00    +0.000 C 
ATOM     23  C   UNL     1      -2.746   9.901  17.637  0.00  0.00    +0.000 C 
ENDBRANCH  20  21
ENDBRANCH  19  20
BRANCH  19  24
ATOM     24  C   UNL     1       2.072  10.873  18.015  0.00  0.00    +0.000 C 
BRANCH  24  25
ATOM     25  C   UNL     1       2.257  12.313  18.440  0.00  0.00    +0.000 C 
ATOM     26  O   UNL     1       2.083  12.746  19.574  0.00  0.00    +0.000 OA
ATOM     27  N   UNL     1       2.648  13.132  17.403  0.00  0.00    +0.000 N 
ATOM     28  H   UNL     1       3.133  12.773  16.583  0.00  0.00    +0.000 HD
BRANCH  27  29
ATOM     29  O   UNL     1       2.921  14.478  17.745  0.00  0.00    +0.000 OA
ATOM     30  H   UNL     1       3.781  14.405  18.215  0.00  0.00    +0.000 HD
ENDBRANCH  27  29
ENDBRANCH  24  25
ENDBRANCH  19  24
ENDBRANCH  16  19
ENDBRANCH   1  15
BRANCH   1  31
ATOM     31  C   UNL     1       2.028   5.694  17.991  0.00  0.00    +0.000 C 
BRANCH  31  32
ATOM     32  C   UNL     1       1.825   4.620  19.036  0.00  0.00    +0.000 A 
ATOM     33  C   UNL     1       2.130   4.911  20.375  0.00  0.00    +0.000 A 
ATOM     34  C   UNL     1       1.908   3.967  21.380  0.00  0.00    +0.000 A 
ATOM     35  C   UNL     1       1.376   2.721  21.062  0.00  0.00    +0.000 A 
ATOM     36  C   UNL     1       1.056   2.422  19.740  0.00  0.00    +0.000 A 
ATOM     37  C   UNL     1       1.265   3.371  18.736  0.00  0.00    +0.000 A 
ENDBRANCH  31  32
ENDBRANCH   1  31
TORSDOF 16
ENDMDL
MODEL 7
REMARK VINA RESULT:      -7.2      2.023      2.961
REMARK  Name = 
REMARK  21 active torsions:
REMARK  status: ('A' for Active; 'I' for Inactive)
REMARK    1  A    between atoms: C_1  and  C_2
REMARK    2  A    between atoms: C_2  and  O_3
REMARK    3  A    between atoms: O_3  and  C_4
REMARK    4  A    between atoms: C_4  and  O_5
REMARK    5  A    between atoms: C_4  and  C_8
REMARK    6  A    between atoms: O_5  and  C_6
REMARK    7  A    between atoms: C_6  and  C_7
REMARK    8  A    between atoms: C_8  and  C_9
REMARK    9  A    between atoms: C_8  and  N_10
REMARK   10  A    between atoms: C_11  and  C_13
REMARK   11  A    between atoms: C_13  and  C_14
REMARK   12  A    between atoms: C_13  and  N_21
REMARK   13  A    between atoms: C_14  and  C_15
REMARK   14  A    between atoms: C_22  and  C_24
REMARK   15  A    between atoms: C_24  and  C_25
REMARK   16  A    between atoms: C_24  and  C_30
REMARK   17  A    between atoms: C_25  and  C_26
REMARK   18  A    between atoms: N_28  and  O_29
REMARK   19  A    between atoms: C_30  and  C_31
REMARK   20  A    between atoms: C_31  and  C_32
REMARK   21  A    between atoms: C_31  and  C_33
REMARK                            x       y       z     vdW  Elec       q    Type
REMARK                         _______ _______ _______ _____ _____    ______ ____
ROOT
ATOM      1  C   UNL     1       2.459   7.002  18.332  0.00  0.00    +0.000 C 
ENDROOT
BRANCH   1   3
ATOM      2  N   UNL     1       1.189   9.007  19.102  0.00  0.00    +0.000 N 
ATOM      3  C   UNL     1       2.011   8.472  18.135  0.00  0.00    +0.000 C 
ATOM      4  O   UNL     1       2.360   9.125  17.146  0.00  0.00    +0.000 OA
ATOM      5  H   UNL     1       0.756   8.406  19.792  0.00  0.00    +0.000 HD
BRANCH   2   6
ATOM      6  C   UNL     1       0.712  10.397  19.039  0.00  0.00    +0.000 C 
ATOM      7  C   UNL     1      -0.766  10.378  18.656  0.00  0.00    +0.000 C 
BRANCH   6   8
ATOM      8  C   UNL     1       0.938  11.176  20.376  0.00  0.00    +0.000 C 
BRANCH   8   9
ATOM      9  O   UNL     1       0.924  12.592  20.143  0.00  0.00    +0.000 OA
BRANCH   9  10
ATOM     10  C   UNL     1      -0.003  13.262  21.000  0.00  0.00    +0.000 C 
ATOM     11  C   UNL     1      -1.119  13.847  20.158  0.00  0.00    +0.000 C 
ENDBRANCH   9  10
ENDBRANCH   8   9
BRANCH   8  12
ATOM     12  O   UNL     1       0.032  10.786  21.417  0.00  0.00    +0.000 OA
BRANCH  12  14
ATOM     13  C   UNL     1      -0.439   9.610  23.446  0.00  0.00    +0.000 C 
ATOM     14  C   UNL     1       0.514   9.748  22.270  0.00  0.00    +0.000 C 
ENDBRANCH  12  14
ENDBRANCH   8  12
ENDBRANCH   6   8
ENDBRANCH   2   6
ENDBRANCH   1   3
BRANCH   1  15
ATOM     15  N   UNL     1       3.821   6.887  17.790  0.00  0.00    +0.000 N 
ATOM     16  C   UNL     1       4.264   5.755  17.142  0.00  0.00    +0.000 C 
ATOM     17  O   UNL     1       3.593   4.733  17.050  0.00  0.00    +0.000 OA
ATOM     18  H   UNL     1       4.283   7.760  17.562  0.00  0.00    +0.000 HD
BRANCH  16  19
ATOM     19  C   UNL     1       5.725   5.832  16.692  0.00  0.00    +0.000 C 
BRANCH  19  20
ATOM     20  C   UNL     1       6.347   7.190  17.063  0.00  0.00    +0.000 C 
BRANCH  20  21
ATOM     21  C   UNL     1       7.767   7.140  17.669  0.00  0.00    +0.000 C 
ATOM     22  C   UNL     1       8.266   8.505  18.147  0.00  0.00    +0.000 C 
ATOM     23  C   UNL     1       7.772   6.146  18.837  0.00  0.00    +0.000 C 
ENDBRANCH  20  21
ENDBRANCH  19  20
BRANCH  19  24
ATOM     24  C   UNL     1       5.701   5.614  15.163  0.00  0.00    +0.000 C 
BRANCH  24  25
ATOM     25  C   UNL     1       5.995   4.203  14.701  0.00  0.00    +0.000 C 
ATOM     26  O   UNL     1       6.094   3.224  15.431  0.00  0.00    +0.000 OA
ATOM     27  N   UNL     1       6.153   4.109  13.334  0.00  0.00    +0.000 N 
ATOM     28  H   UNL     1       5.739   4.783  12.694  0.00  0.00    +0.000 HD
BRANCH  27  29
ATOM     29  O   UNL     1       6.347   2.804  12.822  0.00  0.00    +0.000 OA
ATOM     30  H   UNL     1       5.727   2.270  13.365  0.00  0.00    +0.000 HD
ENDBRANCH  27  29
ENDBRANCH  24  25
ENDBRANCH  19  24
ENDBRANCH  16  19
ENDBRANCH   1  15
BRANCH   1  31
ATOM     31  C   UNL     1       2.441   6.586  19.817  0.00  0.00    +0.000 C 
BRANCH  31  32
ATOM     32  C   UNL     1       2.211   5.123  20.125  0.00  0.00    +0.000 A 
ATOM     33  C   UNL     1       3.320   4.307  20.402  0.00  0.00    +0.000 A 
ATOM     34  C   UNL     1       3.151   2.963  20.742  0.00  0.00    +0.000 A 
ATOM     35  C   UNL     1       1.872   2.418  20.816  0.00  0.00    +0.000 A 
ATOM     36  C   UNL     1       0.762   3.218  20.557  0.00  0.00    +0.000 A 
ATOM     37  C   UNL     1       0.930   4.565  20.230  0.00  0.00    +0.000 A 
ENDBRANCH  31  32
ENDBRANCH   1  31
TORSDOF 16
ENDMDL
MODEL 8
REMARK VINA RESULT:      -7.2      1.425      2.325
REMARK  Name = 
REMARK  21 active torsions:
REMARK  status: ('A' for Active; 'I' for Inactive)
REMARK    1  A    between atoms: C_1  and  C_2
REMARK    2  A    between atoms: C_2  and  O_3
REMARK    3  A    between atoms: O_3  and  C_4
REMARK    4  A    between atoms: C_4  and  O_5
REMARK    5  A    between atoms: C_4  and  C_8
REMARK    6  A    between atoms: O_5  and  C_6
REMARK    7  A    between atoms: C_6  and  C_7
REMARK    8  A    between atoms: C_8  and  C_9
REMARK    9  A    between atoms: C_8  and  N_10
REMARK   10  A    between atoms: C_11  and  C_13
REMARK   11  A    between atoms: C_13  and  C_14
REMARK   12  A    between atoms: C_13  and  N_21
REMARK   13  A    between atoms: C_14  and  C_15
REMARK   14  A    between atoms: C_22  and  C_24
REMARK   15  A    between atoms: C_24  and  C_25
REMARK   16  A    between atoms: C_24  and  C_30
REMARK   17  A    between atoms: C_25  and  C_26
REMARK   18  A    between atoms: N_28  and  O_29
REMARK   19  A    between atoms: C_30  and  C_31
REMARK   20  A    between atoms: C_31  and  C_32
REMARK   21  A    between atoms: C_31  and  C_33
REMARK                            x       y       z     vdW  Elec       q    Type
REMARK                         _______ _______ _______ _____ _____    ______ ____
ROOT
ATOM      1  C   UNL     1       2.340   7.039  18.493  0.00  0.00    +0.000 C 
ENDROOT
BRANCH   1   3
ATOM      2  N   UNL     1       1.306   9.045  19.558  0.00  0.00    +0.000 N 
ATOM      3  C   UNL     1       1.829   8.499  18.406  0.00  0.00    +0.000 C 
ATOM      4  O   UNL     1       1.870   9.135  17.348  0.00  0.00    +0.000 OA
ATOM      5  H   UNL     1       1.097   8.453  20.352  0.00  0.00    +0.000 HD
BRANCH   2   6
ATOM      6  C   UNL     1       0.806  10.427  19.610  0.00  0.00    +0.000 C 
ATOM      7  C   UNL     1       1.627  11.270  18.637  0.00  0.00    +0.000 C 
BRANCH   6   8
ATOM      8  C   UNL     1      -0.722  10.531  19.295  0.00  0.00    +0.000 C 
BRANCH   8   9
ATOM      9  O   UNL     1      -1.364  11.438  20.205  0.00  0.00    +0.000 OA
BRANCH   9  10
ATOM     10  C   UNL     1      -1.739  12.657  19.562  0.00  0.00    +0.000 C 
ATOM     11  C   UNL     1      -0.879  13.784  20.100  0.00  0.00    +0.000 C 
ENDBRANCH   9  10
ENDBRANCH   8   9
BRANCH   8  12
ATOM     12  O   UNL     1      -0.996  10.850  17.924  0.00  0.00    +0.000 OA
BRANCH  12  14
ATOM     13  C   UNL     1      -2.538  10.530  16.124  0.00  0.00    +0.000 C 
ATOM     14  C   UNL     1      -1.725   9.849  17.213  0.00  0.00    +0.000 C 
ENDBRANCH  12  14
ENDBRANCH   8  12
ENDBRANCH   6   8
ENDBRANCH   2   6
ENDBRANCH   1   3
BRANCH   1  15
ATOM     15  N   UNL     1       3.674   7.009  17.875  0.00  0.00    +0.000 N 
ATOM     16  C   UNL     1       4.145   5.911  17.190  0.00  0.00    +0.000 C 
ATOM     17  O   UNL     1       3.530   4.853  17.122  0.00  0.00    +0.000 OA
ATOM     18  H   UNL     1       4.071   7.910  17.634  0.00  0.00    +0.000 HD
BRANCH  16  19
ATOM     19  C   UNL     1       5.572   6.078  16.662  0.00  0.00    +0.000 C 
BRANCH  19  20
ATOM     20  C   UNL     1       5.621   5.896  15.134  0.00  0.00    +0.000 C 
BRANCH  20  21
ATOM     21  C   UNL     1       6.445   4.694  14.623  0.00  0.00    +0.000 C 
ATOM     22  C   UNL     1       5.622   3.713  13.785  0.00  0.00    +0.000 C 
ATOM     23  C   UNL     1       7.627   5.217  13.799  0.00  0.00    +0.000 C 
ENDBRANCH  20  21
ENDBRANCH  19  20
BRANCH  19  24
ATOM     24  C   UNL     1       6.412   5.006  17.391  0.00  0.00    +0.000 C 
BRANCH  24  25
ATOM     25  C   UNL     1       6.592   5.219  18.879  0.00  0.00    +0.000 C 
ATOM     26  O   UNL     1       5.684   5.303  19.698  0.00  0.00    +0.000 OA
ATOM     27  N   UNL     1       7.916   5.319  19.250  0.00  0.00    +0.000 N 
ATOM     28  H   UNL     1       8.665   4.910  18.697  0.00  0.00    +0.000 HD
BRANCH  27  29
ATOM     29  O   UNL     1       8.162   5.435  20.639  0.00  0.00    +0.000 OA
ATOM     30  H   UNL     1       8.508   4.544  20.867  0.00  0.00    +0.000 HD
ENDBRANCH  27  29
ENDBRANCH  24  25
ENDBRANCH  19  24
ENDBRANCH  16  19
ENDBRANCH   1  15
BRANCH   1  31
ATOM     31  C   UNL     1       2.416   6.538  19.950  0.00  0.00    +0.000 C 
BRANCH  31  32
ATOM     32  C   UNL     1       2.049   5.093  20.207  0.00  0.00    +0.000 A 
ATOM     33  C   UNL     1       2.473   4.489  21.402  0.00  0.00    +0.000 A 
ATOM     34  C   UNL     1       2.113   3.175  21.705  0.00  0.00    +0.000 A 
ATOM     35  C   UNL     1       1.322   2.447  20.821  0.00  0.00    +0.000 A 
ATOM     36  C   UNL     1       0.882   3.036  19.639  0.00  0.00    +0.000 A 
ATOM     37  C   UNL     1       1.231   4.356  19.341  0.00  0.00    +0.000 A 
ENDBRANCH  31  32
ENDBRANCH   1  31
TORSDOF 16
ENDMDL
MODEL 9
REMARK VINA RESULT:      -7.2      0.942      1.352
REMARK  Name = 
REMARK  21 active torsions:
REMARK  status: ('A' for Active; 'I' for Inactive)
REMARK    1  A    between atoms: C_1  and  C_2
REMARK    2  A    between atoms: C_2  and  O_3
REMARK    3  A    between atoms: O_3  and  C_4
REMARK    4  A    between atoms: C_4  and  O_5
REMARK    5  A    between atoms: C_4  and  C_8
REMARK    6  A    between atoms: O_5  and  C_6
REMARK    7  A    between atoms: C_6  and  C_7
REMARK    8  A    between atoms: C_8  and  C_9
REMARK    9  A    between atoms: C_8  and  N_10
REMARK   10  A    between atoms: C_11  and  C_13
REMARK   11  A    between atoms: C_13  and  C_14
REMARK   12  A    between atoms: C_13  and  N_21
REMARK   13  A    between atoms: C_14  and  C_15
REMARK   14  A    between atoms: C_22  and  C_24
REMARK   15  A    between atoms: C_24  and  C_25
REMARK   16  A    between atoms: C_24  and  C_30
REMARK   17  A    between atoms: C_25  and  C_26
REMARK   18  A    between atoms: N_28  and  O_29
REMARK   19  A    between atoms: C_30  and  C_31
REMARK   20  A    between atoms: C_31  and  C_32
REMARK   21  A    between atoms: C_31  and  C_33
REMARK                            x       y       z     vdW  Elec       q    Type
REMARK                         _______ _______ _______ _____ _____    ______ ____
ROOT
ATOM      1  C   UNL     1       2.568   6.970  18.268  0.00  0.00    +0.000 C 
ENDROOT
BRANCH   1   3
ATOM      2  N   UNL     1       1.085   8.875  18.900  0.00  0.00    +0.000 N 
ATOM      3  C   UNL     1       2.072   8.422  18.053  0.00  0.00    +0.000 C 
ATOM      4  O   UNL     1       2.527   9.131  17.150  0.00  0.00    +0.000 OA
ATOM      5  H   UNL     1       0.588   8.224  19.496  0.00  0.00    +0.000 HD
BRANCH   2   6
ATOM      6  C   UNL     1       0.545  10.239  18.810  0.00  0.00    +0.000 C 
ATOM      7  C   UNL     1      -0.979  10.153  18.840  0.00  0.00    +0.000 C 
BRANCH   6   8
ATOM      8  C   UNL     1       1.079  11.178  19.942  0.00  0.00    +0.000 C 
BRANCH   8   9
ATOM      9  O   UNL     1       1.070  12.546  19.508  0.00  0.00    +0.000 OA
BRANCH   9  10
ATOM     10  C   UNL     1       2.280  13.221  19.857  0.00  0.00    +0.000 C 
ATOM     11  C   UNL     1       2.609  14.234  18.778  0.00  0.00    +0.000 C 
ENDBRANCH   9  10
ENDBRANCH   8   9
BRANCH   8  12
ATOM     12  O   UNL     1       0.400  10.997  21.192  0.00  0.00    +0.000 OA
BRANCH  12  14
ATOM     13  C   UNL     1      -1.102  11.738  22.900  0.00  0.00    +0.000 C 
ATOM     14  C   UNL     1      -0.431  12.091  21.583  0.00  0.00    +0.000 C 
ENDBRANCH  12  14
ENDBRANCH   8  12
ENDBRANCH   6   8
ENDBRANCH   2   6
ENDBRANCH   1   3
BRANCH   1  15
ATOM     15  N   UNL     1       3.929   6.890  17.719  0.00  0.00    +0.000 N 
ATOM     16  C   UNL     1       4.421   5.747  17.128  0.00  0.00    +0.000 C 
ATOM     17  O   UNL     1       3.798   4.691  17.098  0.00  0.00    +0.000 OA
ATOM     18  H   UNL     1       4.347   7.771  17.439  0.00  0.00    +0.000 HD
BRANCH  16  19
ATOM     19  C   UNL     1       5.873   5.869  16.659  0.00  0.00    +0.000 C 
BRANCH  19  20
ATOM     20  C   UNL     1       6.480   4.483  16.375  0.00  0.00    +0.000 C 
BRANCH  20  21
ATOM     21  C   UNL     1       6.703   4.136  14.886  0.00  0.00    +0.000 C 
ATOM     22  C   UNL     1       5.397   3.932  14.114  0.00  0.00    +0.000 C 
ATOM     23  C   UNL     1       7.523   5.255  14.234  0.00  0.00    +0.000 C 
ENDBRANCH  20  21
ENDBRANCH  19  20
BRANCH  19  24
ATOM     24  C   UNL     1       6.618   6.595  17.801  0.00  0.00    +0.000 C 
BRANCH  24  25
ATOM     25  C   UNL     1       6.828   5.784  19.062  0.00  0.00    +0.000 C 
ATOM     26  O   UNL     1       5.985   5.070  19.594  0.00  0.00    +0.000 OA
ATOM     27  N   UNL     1       8.095   5.925  19.585  0.00  0.00    +0.000 N 
ATOM     28  H   UNL     1       8.891   6.195  19.011  0.00  0.00    +0.000 HD
BRANCH  27  29
ATOM     29  O   UNL     1       8.389   5.130  20.718  0.00  0.00    +0.000 OA
ATOM     30  H   UNL     1       7.669   4.461  20.699  0.00  0.00    +0.000 HD
ENDBRANCH  27  29
ENDBRANCH  24  25
ENDBRANCH  19  24
ENDBRANCH  16  19
ENDBRANCH   1  15
BRANCH   1  31
ATOM     31  C   UNL     1       2.572   6.575  19.759  0.00  0.00    +0.000 C 
BRANCH  31  32
ATOM     32  C   UNL     1       2.144   5.166  20.105  0.00  0.00    +0.000 A 
ATOM     33  C   UNL     1       2.475   4.649  21.368  0.00  0.00    +0.000 A 
ATOM     34  C   UNL     1       2.055   3.373  21.750  0.00  0.00    +0.000 A 
ATOM     35  C   UNL     1       1.296   2.598  20.877  0.00  0.00    +0.000 A 
ATOM     36  C   UNL     1       0.950   3.102  19.627  0.00  0.00    +0.000 A 
ATOM     37  C   UNL     1       1.357   4.383  19.250  0.00  0.00    +0.000 A 
ENDBRANCH  31  32
ENDBRANCH   1  31
TORSDOF 16
ENDMDL
