MODEL 1
REMARK VINA RESULT:      -7.4      0.000      0.000
REMARK  Name = 
REMARK  8 active torsions:
REMARK  status: ('A' for Active; 'I' for Inactive)
REMARK    1  A    between atoms: C_1  and  N_2
REMARK    2  A    between atoms: C_4  and  C_5
REMARK    3  A    between atoms: C_5  and  N_6
REMARK    4  A    between atoms: N_6  and  C_23
REMARK    5  A    between atoms: C_7  and  C_9
REMARK    6  A    between atoms: C_9  and  N_10
REMARK    7  A    between atoms: C_12  and  C_13
REMARK    8  A    between atoms: C_13  and  C_14
REMARK                            x       y       z     vdW  Elec       q    Type
REMARK                         _______ _______ _______ _____ _____    ______ ____
ROOT
ATOM      1  C   UNL     1       6.342   5.345  16.983  0.00  0.00    +0.000 C 
ENDROOT
BRANCH   1   2
ATOM      2  N   UNL     1       7.443   6.196  17.440  0.00  0.00    +0.000 N 
ATOM      3  C   UNL     1       7.526   7.557  16.963  0.00  0.00    +0.000 C 
ATOM      4  C   UNL     1       8.497   8.268  17.900  0.00  0.00    +0.000 C 
ATOM      5  C   UNL     1       8.445   7.437  19.185  0.00  0.00    +0.000 C 
ATOM      6  C   UNL     1       7.883   6.097  18.756  0.00  0.00    +0.000 C 
ATOM      7  O   UNL     1       7.729   5.146  19.500  0.00  0.00    +0.000 OA
BRANCH   4   8
ATOM      8  C   UNL     1       8.113   9.741  18.140  0.00  0.00    +0.000 C 
BRANCH   8   9
ATOM      9  C   UNL     1       9.238  10.585  18.698  0.00  0.00    +0.000 A 
ATOM     10  C   UNL     1       9.345  10.822  20.077  0.00  0.00    +0.000 A 
ATOM     11  C   UNL     1      10.389  11.596  20.587  0.00  0.00    +0.000 A 
ATOM     12  C   UNL     1      11.340  12.140  19.726  0.00  0.00    +0.000 A 
ATOM     13  C   UNL     1      11.251  11.902  18.356  0.00  0.00    +0.000 A 
ATOM     14  C   UNL     1      10.210  11.125  17.846  0.00  0.00    +0.000 A 
ENDBRANCH   8   9
ENDBRANCH   4   8
ENDBRANCH   1   2
BRANCH   1  16
ATOM     15  N   UNL     1       4.013   5.259  17.887  0.00  0.00    +0.000 N 
ATOM     16  C   UNL     1       4.878   5.860  16.935  0.00  0.00    +0.000 C 
ATOM     17  O   UNL     1       4.516   6.756  16.172  0.00  0.00    +0.000 OA
BRANCH  15  18
ATOM     18  C   UNL     1       4.435   4.111  18.665  0.00  0.00    +0.000 C 
ATOM     19  C   UNL     1       3.596   3.358  19.661  0.00  0.00    +0.000 C 
ATOM     20  C   UNL     1       3.859   2.752  18.323  0.00  0.00    +0.000 C 
ENDBRANCH  15  18
BRANCH  15  21
ATOM     21  C   UNL     1       2.598   5.650  17.910  0.00  0.00    +0.000 C 
BRANCH  21  25
ATOM     22  C   UNL     1       1.023   8.694  21.572  0.00  0.00    +0.000 C 
ATOM     23  N   UNL     1       1.615   8.211  20.347  0.00  0.00    +0.000 N 
ATOM     24  C   UNL     1       2.096   6.957  20.098  0.00  0.00    +0.000 A 
ATOM     25  C   UNL     1       2.303   6.870  18.729  0.00  0.00    +0.000 A 
ATOM     26  C   UNL     1       2.002   8.177  18.274  0.00  0.00    +0.000 A 
ATOM     27  N   UNL     1       1.612   8.998  19.254  0.00  0.00    +0.000 NA
ENDBRANCH  21  25
ENDBRANCH  15  21
ENDBRANCH   1  16
TORSDOF 7
ENDMDL
MODEL 2
REMARK VINA RESULT:      -7.2      3.350      6.223
REMARK  Name = 
REMARK  8 active torsions:
REMARK  status: ('A' for Active; 'I' for Inactive)
REMARK    1  A    between atoms: C_1  and  N_2
REMARK    2  A    between atoms: C_4  and  C_5
REMARK    3  A    between atoms: C_5  and  N_6
REMARK    4  A    between atoms: N_6  and  C_23
REMARK    5  A    between atoms: C_7  and  C_9
REMARK    6  A    between atoms: C_9  and  N_10
REMARK    7  A    between atoms: C_12  and  C_13
REMARK    8  A    between atoms: C_13  and  C_14
REMARK                            x       y       z     vdW  Elec       q    Type
REMARK                         _______ _______ _______ _____ _____    ______ ____
ROOT
ATOM      1  C   UNL     1       2.217   7.430  19.636  0.00  0.00    +0.000 C 
ENDROOT
BRANCH   1   2
ATOM      2  N   UNL     1       2.250   6.165  18.898  0.00  0.00    +0.000 N 
ATOM      3  C   UNL     1       3.210   5.995  17.833  0.00  0.00    +0.000 C 
ATOM      4  C   UNL     1       3.262   4.496  17.555  0.00  0.00    +0.000 C 
ATOM      5  C   UNL     1       2.780   3.861  18.862  0.00  0.00    +0.000 C 
ATOM      6  C   UNL     1       2.037   4.971  19.579  0.00  0.00    +0.000 C 
ATOM      7  O   UNL     1       1.468   4.839  20.647  0.00  0.00    +0.000 OA
BRANCH   4   8
ATOM      8  C   UNL     1       4.673   4.019  17.158  0.00  0.00    +0.000 C 
BRANCH   8   9
ATOM      9  C   UNL     1       5.781   4.950  17.594  0.00  0.00    +0.000 A 
ATOM     10  C   UNL     1       6.288   5.926  16.722  0.00  0.00    +0.000 A 
ATOM     11  C   UNL     1       7.307   6.789  17.133  0.00  0.00    +0.000 A 
ATOM     12  C   UNL     1       7.830   6.688  18.421  0.00  0.00    +0.000 A 
ATOM     13  C   UNL     1       7.327   5.731  19.300  0.00  0.00    +0.000 A 
ATOM     14  C   UNL     1       6.305   4.872  18.891  0.00  0.00    +0.000 A 
ENDBRANCH   8   9
ENDBRANCH   4   8
ENDBRANCH   1   2
BRANCH   1  16
ATOM     15  N   UNL     1       0.956   9.587  19.728  0.00  0.00    +0.000 N 
ATOM     16  C   UNL     1       1.812   8.763  18.950  0.00  0.00    +0.000 C 
ATOM     17  O   UNL     1       2.245   9.100  17.848  0.00  0.00    +0.000 OA
BRANCH  15  18
ATOM     18  C   UNL     1       0.352   9.096  20.952  0.00  0.00    +0.000 C 
ATOM     19  C   UNL     1       0.964   9.151  22.325  0.00  0.00    +0.000 C 
ATOM     20  C   UNL     1      -0.130  10.104  21.976  0.00  0.00    +0.000 C 
ENDBRANCH  15  18
BRANCH  15  21
ATOM     21  C   UNL     1       0.485  10.858  19.165  0.00  0.00    +0.000 C 
BRANCH  21  25
ATOM     22  C   UNL     1      -3.042   9.897  15.731  0.00  0.00    +0.000 C 
ATOM     23  N   UNL     1      -2.384  10.342  16.936  0.00  0.00    +0.000 N 
ATOM     24  C   UNL     1      -1.211   9.877  17.460  0.00  0.00    +0.000 A 
ATOM     25  C   UNL     1      -0.828  10.773  18.448  0.00  0.00    +0.000 A 
ATOM     26  C   UNL     1      -1.910  11.685  18.492  0.00  0.00    +0.000 A 
ATOM     27  N   UNL     1      -2.866  11.412  17.598  0.00  0.00    +0.000 NA
ENDBRANCH  21  25
ENDBRANCH  15  21
ENDBRANCH   1  16
TORSDOF 7
ENDMDL
MODEL 3
REMARK VINA RESULT:      -7.1      3.340      6.137
REMARK  Name = 
REMARK  8 active torsions:
REMARK  status: ('A' for Active; 'I' for Inactive)
REMARK    1  A    between atoms: C_1  and  N_2
REMARK    2  A    between atoms: C_4  and  C_5
REMARK    3  A    between atoms: C_5  and  N_6
REMARK    4  A    between atoms: N_6  and  C_23
REMARK    5  A    between atoms: C_7  and  C_9
REMARK    6  A    between atoms: C_9  and  N_10
REMARK    7  A    between atoms: C_12  and  C_13
REMARK    8  A    between atoms: C_13  and  C_14
REMARK                            x       y       z     vdW  Elec       q    Type
REMARK                         _______ _______ _______ _____ _____    ______ ____
ROOT
ATOM      1  C   UNL     1       2.198   7.483  19.575  0.00  0.00    +0.000 C 
ENDROOT
BRANCH   1   2
ATOM      2  N   UNL     1       2.244   6.204  18.862  0.00  0.00    +0.000 N 
ATOM      3  C   UNL     1       3.194   6.030  17.788  0.00  0.00    +0.000 C 
ATOM      4  C   UNL     1       3.269   4.527  17.539  0.00  0.00    +0.000 C 
ATOM      5  C   UNL     1       2.814   3.910  18.865  0.00  0.00    +0.000 C 
ATOM      6  C   UNL     1       2.061   5.020  19.569  0.00  0.00    +0.000 C 
ATOM      7  O   UNL     1       1.508   4.900  20.646  0.00  0.00    +0.000 OA
BRANCH   4   8
ATOM      8  C   UNL     1       4.683   4.066  17.134  0.00  0.00    +0.000 C 
BRANCH   8   9
ATOM      9  C   UNL     1       5.786   4.988  17.602  0.00  0.00    +0.000 A 
ATOM     10  C   UNL     1       6.314   4.879  18.899  0.00  0.00    +0.000 A 
ATOM     11  C   UNL     1       7.338   5.729  19.323  0.00  0.00    +0.000 A 
ATOM     12  C   UNL     1       7.848   6.695  18.458  0.00  0.00    +0.000 A 
ATOM     13  C   UNL     1       7.340   6.805  17.165  0.00  0.00    +0.000 A 
ATOM     14  C   UNL     1       6.321   5.953  16.738  0.00  0.00    +0.000 A 
ENDBRANCH   8   9
ENDBRANCH   4   8
ENDBRANCH   1   2
BRANCH   1  16
ATOM     15  N   UNL     1       0.943   9.644  19.627  0.00  0.00    +0.000 N 
ATOM     16  C   UNL     1       1.790   8.800  18.861  0.00  0.00    +0.000 C 
ATOM     17  O   UNL     1       2.213   9.109  17.748  0.00  0.00    +0.000 OA
BRANCH  15  18
ATOM     18  C   UNL     1       0.350   9.185  20.868  0.00  0.00    +0.000 C 
ATOM     19  C   UNL     1       1.008   9.193  22.221  0.00  0.00    +0.000 C 
ATOM     20  C   UNL     1      -0.036  10.215  21.911  0.00  0.00    +0.000 C 
ENDBRANCH  15  18
BRANCH  15  21
ATOM     21  C   UNL     1       0.470  10.902  19.038  0.00  0.00    +0.000 C 
BRANCH  21  25
ATOM     22  C   UNL     1      -4.462  11.298  18.218  0.00  0.00    +0.000 C 
ATOM     23  N   UNL     1      -3.061  11.004  18.041  0.00  0.00    +0.000 N 
ATOM     24  C   UNL     1      -2.003  11.604  18.665  0.00  0.00    +0.000 A 
ATOM     25  C   UNL     1      -0.886  10.823  18.405  0.00  0.00    +0.000 A 
ATOM     26  C   UNL     1      -1.385   9.830  17.527  0.00  0.00    +0.000 A 
ATOM     27  N   UNL     1      -2.693   9.953  17.282  0.00  0.00    +0.000 NA
ENDBRANCH  21  25
ENDBRANCH  15  21
ENDBRANCH   1  16
TORSDOF 7
ENDMDL
MODEL 4
REMARK VINA RESULT:      -7.1      3.285      6.103
REMARK  Name = 
REMARK  8 active torsions:
REMARK  status: ('A' for Active; 'I' for Inactive)
REMARK    1  A    between atoms: C_1  and  N_2
REMARK    2  A    between atoms: C_4  and  C_5
REMARK    3  A    between atoms: C_5  and  N_6
REMARK    4  A    between atoms: N_6  and  C_23
REMARK    5  A    between atoms: C_7  and  C_9
REMARK    6  A    between atoms: C_9  and  N_10
REMARK    7  A    between atoms: C_12  and  C_13
REMARK    8  A    between atoms: C_13  and  C_14
REMARK                            x       y       z     vdW  Elec       q    Type
REMARK                         _______ _______ _______ _____ _____    ______ ____
ROOT
ATOM      1  C   UNL     1       2.280   7.530  19.605  0.00  0.00    +0.000 C 
ENDROOT
BRANCH   1   2
ATOM      2  N   UNL     1       2.341   6.254  18.888  0.00  0.00    +0.000 N 
ATOM      3  C   UNL     1       3.279   6.101  17.800  0.00  0.00    +0.000 C 
ATOM      4  C   UNL     1       3.381   4.601  17.546  0.00  0.00    +0.000 C 
ATOM      5  C   UNL     1       2.957   3.972  18.876  0.00  0.00    +0.000 C 
ATOM      6  C   UNL     1       2.192   5.065  19.594  0.00  0.00    +0.000 C 
ATOM      7  O   UNL     1       1.657   4.931  20.678  0.00  0.00    +0.000 OA
BRANCH   4   8
ATOM      8  C   UNL     1       4.797   4.170  17.119  0.00  0.00    +0.000 C 
BRANCH   8   9
ATOM      9  C   UNL     1       5.892   5.094  17.604  0.00  0.00    +0.000 A 
ATOM     10  C   UNL     1       6.472   4.922  18.871  0.00  0.00    +0.000 A 
ATOM     11  C   UNL     1       7.487   5.774  19.311  0.00  0.00    +0.000 A 
ATOM     12  C   UNL     1       7.937   6.806  18.489  0.00  0.00    +0.000 A 
ATOM     13  C   UNL     1       7.378   6.980  17.225  0.00  0.00    +0.000 A 
ATOM     14  C   UNL     1       6.366   6.126  16.783  0.00  0.00    +0.000 A 
ENDBRANCH   8   9
ENDBRANCH   4   8
ENDBRANCH   1   2
BRANCH   1  16
ATOM     15  N   UNL     1       0.952   9.611  20.001  0.00  0.00    +0.000 N 
ATOM     16  C   UNL     1       1.527   8.757  19.023  0.00  0.00    +0.000 C 
ATOM     17  O   UNL     1       1.484   8.997  17.816  0.00  0.00    +0.000 OA
BRANCH  15  18
ATOM     18  C   UNL     1       0.898   9.223  21.397  0.00  0.00    +0.000 C 
ATOM     19  C   UNL     1       0.047   9.859  22.462  0.00  0.00    +0.000 C 
ATOM     20  C   UNL     1      -0.349   8.531  21.909  0.00  0.00    +0.000 C 
ENDBRANCH  15  18
BRANCH  15  21
ATOM     21  C   UNL     1       0.191  10.786  19.562  0.00  0.00    +0.000 C 
BRANCH  21  25
ATOM     22  C   UNL     1       3.712  14.222  18.581  0.00  0.00    +0.000 C 
ATOM     23  N   UNL     1       2.527  13.579  19.096  0.00  0.00    +0.000 N 
ATOM     24  C   UNL     1       1.878  12.496  18.572  0.00  0.00    +0.000 A 
ATOM     25  C   UNL     1       0.977  12.062  19.535  0.00  0.00    +0.000 A 
ATOM     26  C   UNL     1       1.110  13.030  20.559  0.00  0.00    +0.000 A 
ATOM     27  N   UNL     1       2.025  13.964  20.286  0.00  0.00    +0.000 NA
ENDBRANCH  21  25
ENDBRANCH  15  21
ENDBRANCH   1  16
TORSDOF 7
ENDMDL
MODEL 5
REMARK VINA RESULT:      -7.0      4.350      6.729
REMARK  Name = 
REMARK  8 active torsions:
REMARK  status: ('A' for Active; 'I' for Inactive)
REMARK    1  A    between atoms: C_1  and  N_2
REMARK    2  A    between atoms: C_4  and  C_5
REMARK    3  A    between atoms: C_5  and  N_6
REMARK    4  A    between atoms: N_6  and  C_23
REMARK    5  A    between atoms: C_7  and  C_9
REMARK    6  A    between atoms: C_9  and  N_10
REMARK    7  A    between atoms: C_12  and  C_13
REMARK    8  A    between atoms: C_13  and  C_14
REMARK                            x       y       z     vdW  Elec       q    Type
REMARK                         _______ _______ _______ _____ _____    ______ ____
ROOT
ATOM      1  C   UNL     1       2.513   7.487  19.320  0.00  0.00    +0.000 C 
ENDROOT
BRANCH   1   2
ATOM      2  N   UNL     1       2.053   6.147  18.950  0.00  0.00    +0.000 N 
ATOM      3  C   UNL     1       2.572   5.529  17.753  0.00  0.00    +0.000 C 
ATOM      4  C   UNL     1       2.227   4.047  17.866  0.00  0.00    +0.000 C 
ATOM      5  C   UNL     1       2.063   3.821  19.371  0.00  0.00    +0.000 C 
ATOM      6  C   UNL     1       1.827   5.202  19.946  0.00  0.00    +0.000 C 
ATOM      7  O   UNL     1       1.609   5.430  21.122  0.00  0.00    +0.000 OA
BRANCH   4   8
ATOM      8  C   UNL     1       3.312   3.141  17.252  0.00  0.00    +0.000 C 
BRANCH   8   9
ATOM      9  C   UNL     1       4.661   3.810  17.108  0.00  0.00    +0.000 A 
ATOM     10  C   UNL     1       5.441   4.109  18.235  0.00  0.00    +0.000 A 
ATOM     11  C   UNL     1       6.689   4.721  18.095  0.00  0.00    +0.000 A 
ATOM     12  C   UNL     1       7.173   5.038  16.826  0.00  0.00    +0.000 A 
ATOM     13  C   UNL     1       6.412   4.734  15.699  0.00  0.00    +0.000 A 
ATOM     14  C   UNL     1       5.167   4.119  15.839  0.00  0.00    +0.000 A 
ENDBRANCH   8   9
ENDBRANCH   4   8
ENDBRANCH   1   2
BRANCH   1  16
ATOM     15  N   UNL     1       1.250   9.626  19.607  0.00  0.00    +0.000 N 
ATOM     16  C   UNL     1       1.899   8.764  18.684  0.00  0.00    +0.000 C 
ATOM     17  O   UNL     1       2.017   9.032  17.488  0.00  0.00    +0.000 OA
BRANCH  15  18
ATOM     18  C   UNL     1       1.004   9.211  20.975  0.00  0.00    +0.000 C 
ATOM     19  C   UNL     1       0.054   9.863  21.942  0.00  0.00    +0.000 C 
ATOM     20  C   UNL     1      -0.326   8.566  21.309  0.00  0.00    +0.000 C 
ENDBRANCH  15  18
BRANCH  15  21
ATOM     21  C   UNL     1       0.607  10.848  19.111  0.00  0.00    +0.000 C 
BRANCH  21  25
ATOM     22  C   UNL     1      -3.292   9.930  16.093  0.00  0.00    +0.000 C 
ATOM     23  N   UNL     1      -2.504  10.240  17.261  0.00  0.00    +0.000 N 
ATOM     24  C   UNL     1      -1.194   9.920  17.485  0.00  0.00    +0.000 A 
ATOM     25  C   UNL     1      -0.785  10.652  18.591  0.00  0.00    +0.000 A 
ATOM     26  C   UNL     1      -1.973  11.302  19.004  0.00  0.00    +0.000 A 
ATOM     27  N   UNL     1      -3.021  11.034  18.219  0.00  0.00    +0.000 NA
ENDBRANCH  21  25
ENDBRANCH  15  21
ENDBRANCH   1  16
TORSDOF 7
ENDMDL
MODEL 6
REMARK VINA RESULT:      -7.0      4.515      6.594
REMARK  Name = 
REMARK  8 active torsions:
REMARK  status: ('A' for Active; 'I' for Inactive)
REMARK    1  A    between atoms: C_1  and  N_2
REMARK    2  A    between atoms: C_4  and  C_5
REMARK    3  A    between atoms: C_5  and  N_6
REMARK    4  A    between atoms: N_6  and  C_23
REMARK    5  A    between atoms: C_7  and  C_9
REMARK    6  A    between atoms: C_9  and  N_10
REMARK    7  A    between atoms: C_12  and  C_13
REMARK    8  A    between atoms: C_13  and  C_14
REMARK                            x       y       z     vdW  Elec       q    Type
REMARK                         _______ _______ _______ _____ _____    ______ ____
ROOT
ATOM      1  C   UNL     1       2.739   7.087  18.931  0.00  0.00    +0.000 C 
ENDROOT
BRANCH   1   2
ATOM      2  N   UNL     1       3.154   6.053  17.981  0.00  0.00    +0.000 N 
ATOM      3  C   UNL     1       4.166   6.363  16.999  0.00  0.00    +0.000 C 
ATOM      4  C   UNL     1       4.647   5.020  16.458  0.00  0.00    +0.000 C 
ATOM      5  C   UNL     1       4.308   4.030  17.575  0.00  0.00    +0.000 C 
ATOM      6  C   UNL     1       3.256   4.733  18.409  0.00  0.00    +0.000 C 
ATOM      7  O   UNL     1       2.703   4.242  19.375  0.00  0.00    +0.000 OA
BRANCH   4   8
ATOM      8  C   UNL     1       6.149   5.026  16.116  0.00  0.00    +0.000 C 
BRANCH   8   9
ATOM      9  C   UNL     1       6.452   4.684  14.674  0.00  0.00    +0.000 A 
ATOM     10  C   UNL     1       5.663   3.758  13.973  0.00  0.00    +0.000 A 
ATOM     11  C   UNL     1       5.944   3.451  12.639  0.00  0.00    +0.000 A 
ATOM     12  C   UNL     1       7.013   4.067  11.991  0.00  0.00    +0.000 A 
ATOM     13  C   UNL     1       7.795   4.996  12.673  0.00  0.00    +0.000 A 
ATOM     14  C   UNL     1       7.513   5.307  14.004  0.00  0.00    +0.000 A 
ENDBRANCH   8   9
ENDBRANCH   4   8
ENDBRANCH   1   2
BRANCH   1  16
ATOM     15  N   UNL     1       1.391   9.114  19.503  0.00  0.00    +0.000 N 
ATOM     16  C   UNL     1       2.027   8.385  18.463  0.00  0.00    +0.000 C 
ATOM     17  O   UNL     1       2.061   8.776  17.296  0.00  0.00    +0.000 OA
BRANCH  15  18
ATOM     18  C   UNL     1       1.247   8.553  20.833  0.00  0.00    +0.000 C 
ATOM     19  C   UNL     1       0.831   9.300  22.070  0.00  0.00    +0.000 C 
ATOM     20  C   UNL     1      -0.148   8.392  21.403  0.00  0.00    +0.000 C 
ENDBRANCH  15  18
BRANCH  15  21
ATOM     21  C   UNL     1       0.661  10.343  19.170  0.00  0.00    +0.000 C 
BRANCH  21  25
ATOM     22  C   UNL     1       2.267  14.921  20.443  0.00  0.00    +0.000 C 
ATOM     23  N   UNL     1       2.187  13.613  19.837  0.00  0.00    +0.000 N 
ATOM     24  C   UNL     1       1.498  12.527  20.299  0.00  0.00    +0.000 A 
ATOM     25  C   UNL     1       1.476  11.597  19.270  0.00  0.00    +0.000 A 
ATOM     26  C   UNL     1       2.275  12.204  18.271  0.00  0.00    +0.000 A 
ATOM     27  N   UNL     1       2.729  13.411  18.620  0.00  0.00    +0.000 NA
ENDBRANCH  21  25
ENDBRANCH  15  21
ENDBRANCH   1  16
TORSDOF 7
ENDMDL
MODEL 7
REMARK VINA RESULT:      -7.0      4.406      8.389
REMARK  Name = 
REMARK  8 active torsions:
REMARK  status: ('A' for Active; 'I' for Inactive)
REMARK    1  A    between atoms: C_1  and  N_2
REMARK    2  A    between atoms: C_4  and  C_5
REMARK    3  A    between atoms: C_5  and  N_6
REMARK    4  A    between atoms: N_6  and  C_23
REMARK    5  A    between atoms: C_7  and  C_9
REMARK    6  A    between atoms: C_9  and  N_10
REMARK    7  A    between atoms: C_12  and  C_13
REMARK    8  A    between atoms: C_13  and  C_14
REMARK                            x       y       z     vdW  Elec       q    Type
REMARK                         _______ _______ _______ _____ _____    ______ ____
ROOT
ATOM      1  C   UNL     1       1.416   7.367  20.772  0.00  0.00    +0.000 C 
ENDROOT
BRANCH   1   2
ATOM      2  N   UNL     1       1.115   8.799  20.839  0.00  0.00    +0.000 N 
ATOM      3  C   UNL     1       1.389   9.632  19.691  0.00  0.00    +0.000 C 
ATOM      4  C   UNL     1       0.618  10.927  19.923  0.00  0.00    +0.000 C 
ATOM      5  C   UNL     1      -0.503  10.522  20.885  0.00  0.00    +0.000 C 
ATOM      6  C   UNL     1      -0.026   9.227  21.510  0.00  0.00    +0.000 C 
ATOM      7  O   UNL     1      -0.634   8.611  22.366  0.00  0.00    +0.000 OA
BRANCH   4   8
ATOM      8  C   UNL     1       0.076  11.533  18.614  0.00  0.00    +0.000 C 
BRANCH   8   9
ATOM      9  C   UNL     1      -1.359  11.159  18.314  0.00  0.00    +0.000 A 
ATOM     10  C   UNL     1      -1.665   9.981  17.616  0.00  0.00    +0.000 A 
ATOM     11  C   UNL     1      -2.992   9.638  17.347  0.00  0.00    +0.000 A 
ATOM     12  C   UNL     1      -4.028  10.467  17.774  0.00  0.00    +0.000 A 
ATOM     13  C   UNL     1      -3.737  11.633  18.479  0.00  0.00    +0.000 A 
ATOM     14  C   UNL     1      -2.411  11.974  18.751  0.00  0.00    +0.000 A 
ENDBRANCH   8   9
ENDBRANCH   4   8
ENDBRANCH   1   2
BRANCH   1  16
ATOM     15  N   UNL     1       1.890   5.350  19.372  0.00  0.00    +0.000 N 
ATOM     16  C   UNL     1       2.126   6.740  19.541  0.00  0.00    +0.000 C 
ATOM     17  O   UNL     1       2.790   7.408  18.748  0.00  0.00    +0.000 OA
BRANCH  15  18
ATOM     18  C   UNL     1       1.227   4.572  20.400  0.00  0.00    +0.000 C 
ATOM     19  C   UNL     1       1.183   3.070  20.484  0.00  0.00    +0.000 C 
ATOM     20  C   UNL     1       2.079   3.827  21.407  0.00  0.00    +0.000 C 
ENDBRANCH  15  18
BRANCH  15  21
ATOM     21  C   UNL     1       2.537   4.648  18.257  0.00  0.00    +0.000 C 
BRANCH  21  25
ATOM     22  C   UNL     1       7.354   4.521  16.863  0.00  0.00    +0.000 C 
ATOM     23  N   UNL     1       6.159   4.639  17.664  0.00  0.00    +0.000 N 
ATOM     24  C   UNL     1       4.904   4.970  17.236  0.00  0.00    +0.000 A 
ATOM     25  C   UNL     1       4.035   4.689  18.281  0.00  0.00    +0.000 A 
ATOM     26  C   UNL     1       4.905   4.286  19.323  0.00  0.00    +0.000 A 
ATOM     27  N   UNL     1       6.192   4.281  18.963  0.00  0.00    +0.000 NA
ENDBRANCH  21  25
ENDBRANCH  15  21
ENDBRANCH   1  16
TORSDOF 7
ENDMDL
MODEL 8
REMARK VINA RESULT:      -7.0      4.143      6.650
REMARK  Name = 
REMARK  8 active torsions:
REMARK  status: ('A' for Active; 'I' for Inactive)
REMARK    1  A    between atoms: C_1  and  N_2
REMARK    2  A    between atoms: C_4  and  C_5
REMARK    3  A    between atoms: C_5  and  N_6
REMARK    4  A    between atoms: N_6  and  C_23
REMARK    5  A    between atoms: C_7  and  C_9
REMARK    6  A    between atoms: C_9  and  N_10
REMARK    7  A    between atoms: C_12  and  C_13
REMARK    8  A    between atoms: C_13  and  C_14
REMARK                            x       y       z     vdW  Elec       q    Type
REMARK                         _______ _______ _______ _____ _____    ______ ____
ROOT
ATOM      1  C   UNL     1       2.504   7.355  19.442  0.00  0.00    +0.000 C 
ENDROOT
BRANCH   1   2
ATOM      2  N   UNL     1       2.133   5.999  19.031  0.00  0.00    +0.000 N 
ATOM      3  C   UNL     1       2.694   5.452  17.818  0.00  0.00    +0.000 C 
ATOM      4  C   UNL     1       2.446   3.949  17.886  0.00  0.00    +0.000 C 
ATOM      5  C   UNL     1       2.295   3.667  19.383  0.00  0.00    +0.000 C 
ATOM      6  C   UNL     1       1.967   5.013  19.998  0.00  0.00    +0.000 C 
ATOM      7  O   UNL     1       1.733   5.191  21.179  0.00  0.00    +0.000 OA
BRANCH   4   8
ATOM      8  C   UNL     1       3.589   3.133  17.250  0.00  0.00    +0.000 C 
BRANCH   8   9
ATOM      9  C   UNL     1       4.849   3.933  17.003  0.00  0.00    +0.000 A 
ATOM     10  C   UNL     1       5.706   4.273  18.062  0.00  0.00    +0.000 A 
ATOM     11  C   UNL     1       6.872   5.006  17.826  0.00  0.00    +0.000 A 
ATOM     12  C   UNL     1       7.196   5.404  16.530  0.00  0.00    +0.000 A 
ATOM     13  C   UNL     1       6.360   5.061  15.470  0.00  0.00    +0.000 A 
ATOM     14  C   UNL     1       5.197   4.326  15.704  0.00  0.00    +0.000 A 
ENDBRANCH   8   9
ENDBRANCH   4   8
ENDBRANCH   1   2
BRANCH   1  16
ATOM     15  N   UNL     1       1.132   9.400  19.874  0.00  0.00    +0.000 N 
ATOM     16  C   UNL     1       1.770   8.606  18.885  0.00  0.00    +0.000 C 
ATOM     17  O   UNL     1       1.790   8.910  17.693  0.00  0.00    +0.000 OA
BRANCH  15  18
ATOM     18  C   UNL     1       1.006   8.936  21.243  0.00  0.00    +0.000 C 
ATOM     19  C   UNL     1       0.230   9.613  22.340  0.00  0.00    +0.000 C 
ATOM     20  C   UNL     1      -0.330   8.385  21.700  0.00  0.00    +0.000 C 
ENDBRANCH  15  18
BRANCH  15  21
ATOM     21  C   UNL     1       0.381  10.590  19.457  0.00  0.00    +0.000 C 
BRANCH  21  25
ATOM     22  C   UNL     1       3.698  14.202  18.400  0.00  0.00    +0.000 C 
ATOM     23  N   UNL     1       2.626  13.461  19.022  0.00  0.00    +0.000 N 
ATOM     24  C   UNL     1       1.869  12.472  18.460  0.00  0.00    +0.000 A 
ATOM     25  C   UNL     1       1.168  11.866  19.493  0.00  0.00    +0.000 A 
ATOM     26  C   UNL     1       1.516  12.648  20.620  0.00  0.00    +0.000 A 
ATOM     27  N   UNL     1       2.376  13.631  20.335  0.00  0.00    +0.000 NA
ENDBRANCH  21  25
ENDBRANCH  15  21
ENDBRANCH   1  16
TORSDOF 7
ENDMDL
MODEL 9
REMARK VINA RESULT:      -7.0      4.351      7.361
REMARK  Name = 
REMARK  8 active torsions:
REMARK  status: ('A' for Active; 'I' for Inactive)
REMARK    1  A    between atoms: C_1  and  N_2
REMARK    2  A    between atoms: C_4  and  C_5
REMARK    3  A    between atoms: C_5  and  N_6
REMARK    4  A    between atoms: N_6  and  C_23
REMARK    5  A    between atoms: C_7  and  C_9
REMARK    6  A    between atoms: C_9  and  N_10
REMARK    7  A    between atoms: C_12  and  C_13
REMARK    8  A    between atoms: C_13  and  C_14
REMARK                            x       y       z     vdW  Elec       q    Type
REMARK                         _______ _______ _______ _____ _____    ______ ____
ROOT
ATOM      1  C   UNL     1       2.521   6.612  18.130  0.00  0.00    +0.000 C 
ENDROOT
BRANCH   1   2
ATOM      2  N   UNL     1       2.224   7.494  19.262  0.00  0.00    +0.000 N 
ATOM      3  C   UNL     1       1.602   8.773  19.014  0.00  0.00    +0.000 C 
ATOM      4  C   UNL     1       1.074   9.248  20.364  0.00  0.00    +0.000 C 
ATOM      5  C   UNL     1       0.907   7.957  21.169  0.00  0.00    +0.000 C 
ATOM      6  C   UNL     1       1.781   6.943  20.460  0.00  0.00    +0.000 C 
ATOM      7  O   UNL     1       1.944   5.795  20.831  0.00  0.00    +0.000 OA
BRANCH   4   8
ATOM      8  C   UNL     1      -0.245  10.035  20.238  0.00  0.00    +0.000 C 
BRANCH   8   9
ATOM      9  C   UNL     1      -0.061  11.482  19.838  0.00  0.00    +0.000 A 
ATOM     10  C   UNL     1      -0.656  11.988  18.672  0.00  0.00    +0.000 A 
ATOM     11  C   UNL     1      -0.488  13.327  18.312  0.00  0.00    +0.000 A 
ATOM     12  C   UNL     1       0.275  14.176  19.112  0.00  0.00    +0.000 A 
ATOM     13  C   UNL     1       0.861  13.687  20.278  0.00  0.00    +0.000 A 
ATOM     14  C   UNL     1       0.689  12.351  20.641  0.00  0.00    +0.000 A 
ENDBRANCH   8   9
ENDBRANCH   4   8
ENDBRANCH   1   2
BRANCH   1  16
ATOM     15  N   UNL     1       4.063   4.723  17.578  0.00  0.00    +0.000 N 
ATOM     16  C   UNL     1       3.963   6.115  17.840  0.00  0.00    +0.000 C 
ATOM     17  O   UNL     1       4.928   6.877  17.787  0.00  0.00    +0.000 OA
BRANCH  15  18
ATOM     18  C   UNL     1       2.935   3.837  17.792  0.00  0.00    +0.000 C 
ATOM     19  C   UNL     1       2.950   2.337  17.670  0.00  0.00    +0.000 C 
ATOM     20  C   UNL     1       2.928   2.958  19.027  0.00  0.00    +0.000 C 
ENDBRANCH  15  18
BRANCH  15  21
ATOM     21  C   UNL     1       5.384   4.139  17.321  0.00  0.00    +0.000 C 
BRANCH  21  25
ATOM     22  C   UNL     1       6.606   3.735  12.473  0.00  0.00    +0.000 C 
ATOM     23  N   UNL     1       6.467   4.246  13.816  0.00  0.00    +0.000 N 
ATOM     24  C   UNL     1       5.517   3.904  14.737  0.00  0.00    +0.000 A 
ATOM     25  C   UNL     1       5.934   4.422  15.956  0.00  0.00    +0.000 A 
ATOM     26  C   UNL     1       7.104   5.142  15.615  0.00  0.00    +0.000 A 
ATOM     27  N   UNL     1       7.414   5.061  14.318  0.00  0.00    +0.000 NA
ENDBRANCH  21  25
ENDBRANCH  15  21
ENDBRANCH   1  16
TORSDOF 7
ENDMDL
