MODEL 1
REMARK VINA RESULT:      -8.1      0.000      0.000
REMARK  Name = 
REMARK  8 active torsions:
REMARK  status: ('A' for Active; 'I' for Inactive)
REMARK    1  A    between atoms: C_1  and  O_2
REMARK    2  A    between atoms: O_2  and  C_3
REMARK    3  A    between atoms: C_7  and  C_8
REMARK    4  A    between atoms: C_8  and  N_9
REMARK    5  A    between atoms: N_9  and  S_10
REMARK    6  A    between atoms: S_10  and  C_13
REMARK    7  A    between atoms: C_16  and  C_17
REMARK    8  A    between atoms: C_20  and  C_21
REMARK                            x       y       z     vdW  Elec       q    Type
REMARK                         _______ _______ _______ _____ _____    ______ ____
ROOT
ATOM      1  S   UNL     1       1.768   3.671  20.675  0.00  0.00    +0.000 S 
ATOM      2  O   UNL     1       2.488   3.628  21.932  0.00  0.00    +0.000 OA
ATOM      3  O   UNL     1       0.796   2.663  20.316  0.00  0.00    +0.000 OA
ENDROOT
BRANCH   1   4
ATOM      4  C   UNL     1       2.961   3.778  19.368  0.00  0.00    +0.000 A 
ATOM      5  C   UNL     1       4.301   4.039  19.660  0.00  0.00    +0.000 A 
ATOM      6  C   UNL     1       5.217   4.198  18.613  0.00  0.00    +0.000 A 
ATOM      7  C   UNL     1       4.801   4.119  17.274  0.00  0.00    +0.000 A 
ATOM      8  C   UNL     1       3.462   3.804  17.007  0.00  0.00    +0.000 A 
ATOM      9  C   UNL     1       2.553   3.615  18.046  0.00  0.00    +0.000 A 
BRANCH   7  10
ATOM     10  C   UNL     1       5.727   4.376  16.183  0.00  0.00    +0.000 A 
ATOM     11  C   UNL     1       6.912   5.059  16.026  0.00  0.00    +0.000 A 
ATOM     12  N   UNL     1       7.335   4.989  14.721  0.00  0.00    +0.000 NA
ATOM     13  C   UNL     1       6.397   4.283  14.122  0.00  0.00    +0.000 A 
ATOM     14  O   UNL     1       5.390   3.876  14.953  0.00  0.00    +0.000 OA
BRANCH  13  15
ATOM     15  C   UNL     1       6.435   3.966  12.635  0.00  0.00    +0.000 C 
ATOM     16  C   UNL     1       6.214   2.532  12.194  0.00  0.00    +0.000 C 
ATOM     17  C   UNL     1       5.148   3.545  11.954  0.00  0.00    +0.000 C 
ENDBRANCH  13  15
ENDBRANCH   7  10
ENDBRANCH   1   4
BRANCH   1  18
ATOM     18  N   UNL     1       1.030   5.185  20.640  0.00  0.00    +0.000 NA
ATOM     19  H   UNL     1       0.480   5.308  19.789  0.00  0.00    +0.000 HD
BRANCH  18  20
ATOM     20  C   UNL     1       1.852   6.324  21.044  0.00  0.00    +0.000 C 
BRANCH  20  25
ATOM     21  C   UNL     1       1.115   9.627  19.313  0.00  0.00    +0.000 A 
ATOM     22  C   UNL     1       1.738   9.438  18.079  0.00  0.00    +0.000 A 
ATOM     23  C   UNL     1       2.432   8.256  17.806  0.00  0.00    +0.000 A 
ATOM     24  C   UNL     1       2.505   7.252  18.771  0.00  0.00    +0.000 A 
ATOM     25  C   UNL     1       1.886   7.428  20.017  0.00  0.00    +0.000 A 
ATOM     26  C   UNL     1       1.199   8.624  20.278  0.00  0.00    +0.000 A 
BRANCH  21  28
ATOM     27  C   UNL     1      -0.430  10.914  20.576  0.00  0.00    +0.000 C 
ATOM     28  O   UNL     1       0.443  10.811  19.456  0.00  0.00    +0.000 OA
ENDBRANCH  21  28
ENDBRANCH  20  25
ENDBRANCH  18  20
ENDBRANCH   1  18
TORSDOF 7
ENDMDL
MODEL 2
REMARK VINA RESULT:      -7.9      2.719      7.628
REMARK  Name = 
REMARK  8 active torsions:
REMARK  status: ('A' for Active; 'I' for Inactive)
REMARK    1  A    between atoms: C_1  and  O_2
REMARK    2  A    between atoms: O_2  and  C_3
REMARK    3  A    between atoms: C_7  and  C_8
REMARK    4  A    between atoms: C_8  and  N_9
REMARK    5  A    between atoms: N_9  and  S_10
REMARK    6  A    between atoms: S_10  and  C_13
REMARK    7  A    between atoms: C_16  and  C_17
REMARK    8  A    between atoms: C_20  and  C_21
REMARK                            x       y       z     vdW  Elec       q    Type
REMARK                         _______ _______ _______ _____ _____    ______ ____
ROOT
ATOM      1  S   UNL     1       3.338   3.788  17.636  0.00  0.00    +0.000 S 
ATOM      2  O   UNL     1       2.157   3.282  16.964  0.00  0.00    +0.000 OA
ATOM      3  O   UNL     1       4.162   2.944  18.472  0.00  0.00    +0.000 OA
ENDROOT
BRANCH   1   4
ATOM      4  C   UNL     1       2.858   5.206  18.586  0.00  0.00    +0.000 A 
ATOM      5  C   UNL     1       2.363   5.049  19.882  0.00  0.00    +0.000 A 
ATOM      6  C   UNL     1       1.914   6.170  20.590  0.00  0.00    +0.000 A 
ATOM      7  C   UNL     1       1.937   7.447  20.005  0.00  0.00    +0.000 A 
ATOM      8  C   UNL     1       2.486   7.586  18.723  0.00  0.00    +0.000 A 
ATOM      9  C   UNL     1       2.962   6.478  18.026  0.00  0.00    +0.000 A 
BRANCH   7  10
ATOM     10  C   UNL     1       1.386   8.601  20.698  0.00  0.00    +0.000 A 
ATOM     11  C   UNL     1       1.106   8.935  22.004  0.00  0.00    +0.000 A 
ATOM     12  N   UNL     1       0.545  10.187  22.067  0.00  0.00    +0.000 NA
ATOM     13  C   UNL     1       0.486  10.571  20.808  0.00  0.00    +0.000 A 
ATOM     14  O   UNL     1       0.984   9.655  19.922  0.00  0.00    +0.000 OA
BRANCH  13  15
ATOM     15  C   UNL     1      -0.095  11.912  20.388  0.00  0.00    +0.000 C 
ATOM     16  C   UNL     1       0.045  12.342  18.941  0.00  0.00    +0.000 C 
ATOM     17  C   UNL     1      -1.289  11.920  19.454  0.00  0.00    +0.000 C 
ENDBRANCH  13  15
ENDBRANCH   7  10
ENDBRANCH   1   4
BRANCH   1  18
ATOM     18  N   UNL     1       4.291   4.452  16.416  0.00  0.00    +0.000 NA
ATOM     19  H   UNL     1       3.841   4.358  15.504  0.00  0.00    +0.000 HD
BRANCH  18  20
ATOM     20  C   UNL     1       5.720   4.146  16.461  0.00  0.00    +0.000 C 
BRANCH  20  25
ATOM     21  C   UNL     1       7.429   7.353  17.576  0.00  0.00    +0.000 A 
ATOM     22  C   UNL     1       8.119   6.920  18.709  0.00  0.00    +0.000 A 
ATOM     23  C   UNL     1       8.011   5.597  19.146  0.00  0.00    +0.000 A 
ATOM     24  C   UNL     1       7.210   4.696  18.444  0.00  0.00    +0.000 A 
ATOM     25  C   UNL     1       6.509   5.116  17.305  0.00  0.00    +0.000 A 
ATOM     26  C   UNL     1       6.622   6.451  16.884  0.00  0.00    +0.000 A 
BRANCH  21  28
ATOM     27  C   UNL     1       8.403   9.445  18.135  0.00  0.00    +0.000 C 
ATOM     28  O   UNL     1       7.634   8.661  17.229  0.00  0.00    +0.000 OA
ENDBRANCH  21  28
ENDBRANCH  20  25
ENDBRANCH  18  20
ENDBRANCH   1  18
TORSDOF 7
ENDMDL
MODEL 3
REMARK VINA RESULT:      -7.8      2.189      7.553
REMARK  Name = 
REMARK  8 active torsions:
REMARK  status: ('A' for Active; 'I' for Inactive)
REMARK    1  A    between atoms: C_1  and  O_2
REMARK    2  A    between atoms: O_2  and  C_3
REMARK    3  A    between atoms: C_7  and  C_8
REMARK    4  A    between atoms: C_8  and  N_9
REMARK    5  A    between atoms: N_9  and  S_10
REMARK    6  A    between atoms: S_10  and  C_13
REMARK    7  A    between atoms: C_16  and  C_17
REMARK    8  A    between atoms: C_20  and  C_21
REMARK                            x       y       z     vdW  Elec       q    Type
REMARK                         _______ _______ _______ _____ _____    ______ ____
ROOT
ATOM      1  S   UNL     1       2.424   2.920  18.134  0.00  0.00    +0.000 S 
ATOM      2  O   UNL     1       2.254   3.120  16.708  0.00  0.00    +0.000 OA
ATOM      3  O   UNL     1       1.645   1.949  18.868  0.00  0.00    +0.000 OA
ENDROOT
BRANCH   1   4
ATOM      4  C   UNL     1       2.237   4.493  18.929  0.00  0.00    +0.000 A 
ATOM      5  C   UNL     1       1.841   4.562  20.266  0.00  0.00    +0.000 A 
ATOM      6  C   UNL     1       1.620   5.812  20.857  0.00  0.00    +0.000 A 
ATOM      7  C   UNL     1       1.774   6.996  20.117  0.00  0.00    +0.000 A 
ATOM      8  C   UNL     1       2.223   6.903  18.793  0.00  0.00    +0.000 A 
ATOM      9  C   UNL     1       2.472   5.663  18.209  0.00  0.00    +0.000 A 
BRANCH   7  10
ATOM     10  C   UNL     1       1.457   8.291  20.697  0.00  0.00    +0.000 A 
ATOM     11  C   UNL     1       1.278   8.795  21.965  0.00  0.00    +0.000 A 
ATOM     12  N   UNL     1       0.950  10.127  21.909  0.00  0.00    +0.000 NA
ATOM     13  C   UNL     1       0.925  10.392  20.618  0.00  0.00    +0.000 A 
ATOM     14  O   UNL     1       1.227   9.321  19.823  0.00  0.00    +0.000 OA
BRANCH  13  15
ATOM     15  C   UNL     1       0.580  11.769  20.071  0.00  0.00    +0.000 C 
ATOM     16  C   UNL     1       1.424  12.952  20.500  0.00  0.00    +0.000 C 
ATOM     17  C   UNL     1       1.549  12.428  19.110  0.00  0.00    +0.000 C 
ENDBRANCH  13  15
ENDBRANCH   7  10
ENDBRANCH   1   4
BRANCH   1  18
ATOM     18  N   UNL     1       4.062   2.582  18.340  0.00  0.00    +0.000 NA
ATOM     19  H   UNL     1       4.221   1.579  18.442  0.00  0.00    +0.000 HD
BRANCH  18  20
ATOM     20  C   UNL     1       4.798   3.446  19.263  0.00  0.00    +0.000 C 
BRANCH  20  25
ATOM     21  C   UNL     1       6.930   5.030  16.544  0.00  0.00    +0.000 A 
ATOM     22  C   UNL     1       7.572   6.046  17.252  0.00  0.00    +0.000 A 
ATOM     23  C   UNL     1       7.297   6.253  18.607  0.00  0.00    +0.000 A 
ATOM     24  C   UNL     1       6.375   5.437  19.262  0.00  0.00    +0.000 A 
ATOM     25  C   UNL     1       5.720   4.413  18.564  0.00  0.00    +0.000 A 
ATOM     26  C   UNL     1       6.002   4.223  17.202  0.00  0.00    +0.000 A 
BRANCH  21  28
ATOM     27  C   UNL     1       6.310   4.408  14.338  0.00  0.00    +0.000 C 
ATOM     28  O   UNL     1       7.300   4.905  15.232  0.00  0.00    +0.000 OA
ENDBRANCH  21  28
ENDBRANCH  20  25
ENDBRANCH  18  20
ENDBRANCH   1  18
TORSDOF 7
ENDMDL
MODEL 4
REMARK VINA RESULT:      -7.7      0.557      1.081
REMARK  Name = 
REMARK  8 active torsions:
REMARK  status: ('A' for Active; 'I' for Inactive)
REMARK    1  A    between atoms: C_1  and  O_2
REMARK    2  A    between atoms: O_2  and  C_3
REMARK    3  A    between atoms: C_7  and  C_8
REMARK    4  A    between atoms: C_8  and  N_9
REMARK    5  A    between atoms: N_9  and  S_10
REMARK    6  A    between atoms: S_10  and  C_13
REMARK    7  A    between atoms: C_16  and  C_17
REMARK    8  A    between atoms: C_20  and  C_21
REMARK                            x       y       z     vdW  Elec       q    Type
REMARK                         _______ _______ _______ _____ _____    ______ ____
ROOT
ATOM      1  S   UNL     1       1.855   3.292  20.289  0.00  0.00    +0.000 S 
ATOM      2  O   UNL     1       2.644   2.827  21.413  0.00  0.00    +0.000 OA
ATOM      3  O   UNL     1       0.765   2.513  19.747  0.00  0.00    +0.000 OA
ENDROOT
BRANCH   1   4
ATOM      4  C   UNL     1       2.970   3.678  18.965  0.00  0.00    +0.000 A 
ATOM      5  C   UNL     1       2.502   3.747  17.651  0.00  0.00    +0.000 A 
ATOM      6  C   UNL     1       3.408   3.975  16.608  0.00  0.00    +0.000 A 
ATOM      7  C   UNL     1       4.782   4.115  16.864  0.00  0.00    +0.000 A 
ATOM      8  C   UNL     1       5.219   4.093  18.196  0.00  0.00    +0.000 A 
ATOM      9  C   UNL     1       4.318   3.897  19.240  0.00  0.00    +0.000 A 
BRANCH   7  10
ATOM     10  C   UNL     1       5.738   4.257  15.779  0.00  0.00    +0.000 A 
ATOM     11  C   UNL     1       6.973   4.840  15.612  0.00  0.00    +0.000 A 
ATOM     12  N   UNL     1       7.405   4.686  14.318  0.00  0.00    +0.000 NA
ATOM     13  C   UNL     1       6.424   4.030  13.733  0.00  0.00    +0.000 A 
ATOM     14  O   UNL     1       5.378   3.734  14.565  0.00  0.00    +0.000 OA
BRANCH  13  15
ATOM     15  C   UNL     1       6.455   3.650  12.261  0.00  0.00    +0.000 C 
ATOM     16  C   UNL     1       6.114   2.226  11.872  0.00  0.00    +0.000 C 
ATOM     17  C   UNL     1       5.146   3.319  11.572  0.00  0.00    +0.000 C 
ENDBRANCH  13  15
ENDBRANCH   7  10
ENDBRANCH   1   4
BRANCH   1  18
ATOM     18  N   UNL     1       1.275   4.804  20.751  0.00  0.00    +0.000 NA
ATOM     19  H   UNL     1       0.469   5.078  20.189  0.00  0.00    +0.000 HD
BRANCH  18  20
ATOM     20  C   UNL     1       2.275   5.845  20.989  0.00  0.00    +0.000 C 
BRANCH  20  25
ATOM     21  C   UNL     1       1.141   9.306  19.902  0.00  0.00    +0.000 A 
ATOM     22  C   UNL     1       1.492   9.301  18.551  0.00  0.00    +0.000 A 
ATOM     23  C   UNL     1       2.130   8.193  17.986  0.00  0.00    +0.000 A 
ATOM     24  C   UNL     1       2.419   7.079  18.774  0.00  0.00    +0.000 A 
ATOM     25  C   UNL     1       2.075   7.069  20.133  0.00  0.00    +0.000 A 
ATOM     26  C   UNL     1       1.441   8.193  20.687  0.00  0.00    +0.000 A 
BRANCH  21  28
ATOM     27  C   UNL     1      -0.562  10.239  21.268  0.00  0.00    +0.000 C 
ATOM     28  O   UNL     1       0.497  10.432  20.336  0.00  0.00    +0.000 OA
ENDBRANCH  21  28
ENDBRANCH  20  25
ENDBRANCH  18  20
ENDBRANCH   1  18
TORSDOF 7
ENDMDL
MODEL 5
REMARK VINA RESULT:      -7.7      2.580      7.276
REMARK  Name = 
REMARK  8 active torsions:
REMARK  status: ('A' for Active; 'I' for Inactive)
REMARK    1  A    between atoms: C_1  and  O_2
REMARK    2  A    between atoms: O_2  and  C_3
REMARK    3  A    between atoms: C_7  and  C_8
REMARK    4  A    between atoms: C_8  and  N_9
REMARK    5  A    between atoms: N_9  and  S_10
REMARK    6  A    between atoms: S_10  and  C_13
REMARK    7  A    between atoms: C_16  and  C_17
REMARK    8  A    between atoms: C_20  and  C_21
REMARK                            x       y       z     vdW  Elec       q    Type
REMARK                         _______ _______ _______ _____ _____    ______ ____
ROOT
ATOM      1  S   UNL     1       2.474   2.961  18.316  0.00  0.00    +0.000 S 
ATOM      2  O   UNL     1       2.215   3.112  16.898  0.00  0.00    +0.000 OA
ATOM      3  O   UNL     1       1.778   1.981  19.120  0.00  0.00    +0.000 OA
ENDROOT
BRANCH   1   4
ATOM      4  C   UNL     1       2.265   4.548  19.078  0.00  0.00    +0.000 A 
ATOM      5  C   UNL     1       1.861   4.640  20.411  0.00  0.00    +0.000 A 
ATOM      6  C   UNL     1       1.624   5.899  20.975  0.00  0.00    +0.000 A 
ATOM      7  C   UNL     1       1.770   7.070  20.212  0.00  0.00    +0.000 A 
ATOM      8  C   UNL     1       2.227   6.954  18.892  0.00  0.00    +0.000 A 
ATOM      9  C   UNL     1       2.492   5.705  18.335  0.00  0.00    +0.000 A 
BRANCH   7  10
ATOM     10  C   UNL     1       1.435   8.373  20.763  0.00  0.00    +0.000 A 
ATOM     11  C   UNL     1       1.358   8.930  22.019  0.00  0.00    +0.000 A 
ATOM     12  N   UNL     1       0.945  10.237  21.938  0.00  0.00    +0.000 NA
ATOM     13  C   UNL     1       0.771  10.434  20.647  0.00  0.00    +0.000 A 
ATOM     14  O   UNL     1       1.053   9.342  19.874  0.00  0.00    +0.000 OA
BRANCH  13  15
ATOM     15  C   UNL     1       0.287  11.759  20.078  0.00  0.00    +0.000 C 
ATOM     16  C   UNL     1       0.903  12.263  18.789  0.00  0.00    +0.000 C 
ATOM     17  C   UNL     1      -0.495  11.745  18.780  0.00  0.00    +0.000 C 
ENDBRANCH  13  15
ENDBRANCH   7  10
ENDBRANCH   1   4
BRANCH   1  18
ATOM     18  N   UNL     1       4.133   2.696  18.438  0.00  0.00    +0.000 NA
ATOM     19  H   UNL     1       4.335   1.719  18.653  0.00  0.00    +0.000 HD
BRANCH  18  20
ATOM     20  C   UNL     1       4.903   3.691  19.183  0.00  0.00    +0.000 C 
BRANCH  20  25
ATOM     21  C   UNL     1       7.391   6.361  18.125  0.00  0.00    +0.000 A 
ATOM     22  C   UNL     1       7.294   6.295  16.734  0.00  0.00    +0.000 A 
ATOM     23  C   UNL     1       6.450   5.364  16.123  0.00  0.00    +0.000 A 
ATOM     24  C   UNL     1       5.694   4.491  16.906  0.00  0.00    +0.000 A 
ATOM     25  C   UNL     1       5.782   4.543  18.304  0.00  0.00    +0.000 A 
ATOM     26  C   UNL     1       6.641   5.480  18.902  0.00  0.00    +0.000 A 
BRANCH  21  28
ATOM     27  C   UNL     1       8.162   8.602  17.972  0.00  0.00    +0.000 C 
ATOM     28  O   UNL     1       8.228   7.330  18.609  0.00  0.00    +0.000 OA
ENDBRANCH  21  28
ENDBRANCH  20  25
ENDBRANCH  18  20
ENDBRANCH   1  18
TORSDOF 7
ENDMDL
MODEL 6
REMARK VINA RESULT:      -7.5      1.104      1.432
REMARK  Name = 
REMARK  8 active torsions:
REMARK  status: ('A' for Active; 'I' for Inactive)
REMARK    1  A    between atoms: C_1  and  O_2
REMARK    2  A    between atoms: O_2  and  C_3
REMARK    3  A    between atoms: C_7  and  C_8
REMARK    4  A    between atoms: C_8  and  N_9
REMARK    5  A    between atoms: N_9  and  S_10
REMARK    6  A    between atoms: S_10  and  C_13
REMARK    7  A    between atoms: C_16  and  C_17
REMARK    8  A    between atoms: C_20  and  C_21
REMARK                            x       y       z     vdW  Elec       q    Type
REMARK                         _______ _______ _______ _____ _____    ______ ____
ROOT
ATOM      1  S   UNL     1       1.710   3.965  20.702  0.00  0.00    +0.000 S 
ATOM      2  O   UNL     1       2.433   3.673  21.924  0.00  0.00    +0.000 OA
ATOM      3  O   UNL     1       0.576   3.175  20.277  0.00  0.00    +0.000 OA
ENDROOT
BRANCH   1   4
ATOM      4  C   UNL     1       2.883   4.006  19.373  0.00  0.00    +0.000 A 
ATOM      5  C   UNL     1       4.230   3.731  19.617  0.00  0.00    +0.000 A 
ATOM      6  C   UNL     1       5.157   3.844  18.574  0.00  0.00    +0.000 A 
ATOM      7  C   UNL     1       4.752   4.250  17.291  0.00  0.00    +0.000 A 
ATOM      8  C   UNL     1       3.388   4.470  17.059  0.00  0.00    +0.000 A 
ATOM      9  C   UNL     1       2.457   4.329  18.086  0.00  0.00    +0.000 A 
BRANCH   7  10
ATOM     10  C   UNL     1       5.722   4.460  16.229  0.00  0.00    +0.000 A 
ATOM     11  C   UNL     1       7.008   4.944  16.138  0.00  0.00    +0.000 A 
ATOM     12  N   UNL     1       7.429   4.942  14.832  0.00  0.00    +0.000 NA
ATOM     13  C   UNL     1       6.393   4.473  14.166  0.00  0.00    +0.000 A 
ATOM     14  O   UNL     1       5.321   4.157  14.955  0.00  0.00    +0.000 OA
BRANCH  13  15
ATOM     15  C   UNL     1       6.395   4.312  12.654  0.00  0.00    +0.000 C 
ATOM     16  C   UNL     1       7.193   3.175  12.047  0.00  0.00    +0.000 C 
ATOM     17  C   UNL     1       5.705   3.103  12.056  0.00  0.00    +0.000 C 
ENDBRANCH  13  15
ENDBRANCH   7  10
ENDBRANCH   1   4
BRANCH   1  18
ATOM     18  N   UNL     1       1.237   5.575  20.842  0.00  0.00    +0.000 NA
ATOM     19  H   UNL     1       0.259   5.698  20.575  0.00  0.00    +0.000 HD
BRANCH  18  20
ATOM     20  C   UNL     1       2.171   6.579  20.332  0.00  0.00    +0.000 C 
BRANCH  20  25
ATOM     21  C   UNL     1       0.640   9.710  21.851  0.00  0.00    +0.000 A 
ATOM     22  C   UNL     1       0.500  10.523  20.726  0.00  0.00    +0.000 A 
ATOM     23  C   UNL     1       0.930  10.083  19.471  0.00  0.00    +0.000 A 
ATOM     24  C   UNL     1       1.504   8.819  19.336  0.00  0.00    +0.000 A 
ATOM     25  C   UNL     1       1.654   7.990  20.457  0.00  0.00    +0.000 A 
ATOM     26  C   UNL     1       1.224   8.451  21.712  0.00  0.00    +0.000 A 
BRANCH  21  28
ATOM     27  C   UNL     1      -1.151  10.792  22.972  0.00  0.00    +0.000 C 
ATOM     28  O   UNL     1       0.159  10.235  23.019  0.00  0.00    +0.000 OA
ENDBRANCH  21  28
ENDBRANCH  20  25
ENDBRANCH  18  20
ENDBRANCH   1  18
TORSDOF 7
ENDMDL
MODEL 7
REMARK VINA RESULT:      -7.5      1.112      2.111
REMARK  Name = 
REMARK  8 active torsions:
REMARK  status: ('A' for Active; 'I' for Inactive)
REMARK    1  A    between atoms: C_1  and  O_2
REMARK    2  A    between atoms: O_2  and  C_3
REMARK    3  A    between atoms: C_7  and  C_8
REMARK    4  A    between atoms: C_8  and  N_9
REMARK    5  A    between atoms: N_9  and  S_10
REMARK    6  A    between atoms: S_10  and  C_13
REMARK    7  A    between atoms: C_16  and  C_17
REMARK    8  A    between atoms: C_20  and  C_21
REMARK                            x       y       z     vdW  Elec       q    Type
REMARK                         _______ _______ _______ _____ _____    ______ ____
ROOT
ATOM      1  S   UNL     1       2.219   2.879  20.455  0.00  0.00    +0.000 S 
ATOM      2  O   UNL     1       3.084   2.634  21.593  0.00  0.00    +0.000 OA
ATOM      3  O   UNL     1       1.303   1.876  19.962  0.00  0.00    +0.000 OA
ENDROOT
BRANCH   1   4
ATOM      4  C   UNL     1       3.236   3.410  19.104  0.00  0.00    +0.000 A 
ATOM      5  C   UNL     1       2.705   3.496  17.816  0.00  0.00    +0.000 A 
ATOM      6  C   UNL     1       3.540   3.841  16.746  0.00  0.00    +0.000 A 
ATOM      7  C   UNL     1       4.909   4.083  16.950  0.00  0.00    +0.000 A 
ATOM      8  C   UNL     1       5.407   4.041  18.259  0.00  0.00    +0.000 A 
ATOM      9  C   UNL     1       4.574   3.728  19.331  0.00  0.00    +0.000 A 
BRANCH   7  10
ATOM     10  C   UNL     1       5.799   4.349  15.832  0.00  0.00    +0.000 A 
ATOM     11  C   UNL     1       6.895   5.149  15.603  0.00  0.00    +0.000 A 
ATOM     12  N   UNL     1       7.324   5.013  14.306  0.00  0.00    +0.000 NA
ATOM     13  C   UNL     1       6.477   4.151  13.781  0.00  0.00    +0.000 A 
ATOM     14  O   UNL     1       5.525   3.704  14.655  0.00  0.00    +0.000 OA
BRANCH  13  15
ATOM     15  C   UNL     1       6.554   3.707  12.328  0.00  0.00    +0.000 C 
ATOM     16  C   UNL     1       5.995   2.349  11.954  0.00  0.00    +0.000 C 
ATOM     17  C   UNL     1       5.264   3.581  11.543  0.00  0.00    +0.000 C 
ENDBRANCH  13  15
ENDBRANCH   7  10
ENDBRANCH   1   4
BRANCH   1  18
ATOM     18  N   UNL     1       1.353   4.269  20.849  0.00  0.00    +0.000 NA
ATOM     19  H   UNL     1       0.636   4.468  20.151  0.00  0.00    +0.000 HD
BRANCH  18  20
ATOM     20  C   UNL     1       2.132   5.416  21.314  0.00  0.00    +0.000 C 
BRANCH  20  25
ATOM     21  C   UNL     1       2.288   8.025  18.555  0.00  0.00    +0.000 A 
ATOM     22  C   UNL     1       1.552   9.069  19.118  0.00  0.00    +0.000 A 
ATOM     23  C   UNL     1       0.969   8.928  20.380  0.00  0.00    +0.000 A 
ATOM     24  C   UNL     1       1.122   7.736  21.089  0.00  0.00    +0.000 A 
ATOM     25  C   UNL     1       1.856   6.678  20.536  0.00  0.00    +0.000 A 
ATOM     26  C   UNL     1       2.429   6.833  19.263  0.00  0.00    +0.000 A 
BRANCH  21  28
ATOM     27  C   UNL     1       4.014   7.566  16.990  0.00  0.00    +0.000 C 
ATOM     28  O   UNL     1       2.834   8.288  17.328  0.00  0.00    +0.000 OA
ENDBRANCH  21  28
ENDBRANCH  20  25
ENDBRANCH  18  20
ENDBRANCH   1  18
TORSDOF 7
ENDMDL
MODEL 8
REMARK VINA RESULT:      -7.4      2.607      8.507
REMARK  Name = 
REMARK  8 active torsions:
REMARK  status: ('A' for Active; 'I' for Inactive)
REMARK    1  A    between atoms: C_1  and  O_2
REMARK    2  A    between atoms: O_2  and  C_3
REMARK    3  A    between atoms: C_7  and  C_8
REMARK    4  A    between atoms: C_8  and  N_9
REMARK    5  A    between atoms: N_9  and  S_10
REMARK    6  A    between atoms: S_10  and  C_13
REMARK    7  A    between atoms: C_16  and  C_17
REMARK    8  A    between atoms: C_20  and  C_21
REMARK                            x       y       z     vdW  Elec       q    Type
REMARK                         _______ _______ _______ _____ _____    ______ ____
ROOT
ATOM      1  S   UNL     1       5.201   4.844  18.324  0.00  0.00    +0.000 S 
ATOM      2  O   UNL     1       4.649   3.597  18.813  0.00  0.00    +0.000 OA
ATOM      3  O   UNL     1       6.425   5.399  18.856  0.00  0.00    +0.000 OA
ENDROOT
BRANCH   1   4
ATOM      4  C   UNL     1       3.937   6.082  18.440  0.00  0.00    +0.000 A 
ATOM      5  C   UNL     1       3.808   7.050  17.443  0.00  0.00    +0.000 A 
ATOM      6  C   UNL     1       2.857   8.068  17.588  0.00  0.00    +0.000 A 
ATOM      7  C   UNL     1       2.045   8.137  18.732  0.00  0.00    +0.000 A 
ATOM      8  C   UNL     1       2.157   7.123  19.694  0.00  0.00    +0.000 A 
ATOM      9  C   UNL     1       3.082   6.092  19.540  0.00  0.00    +0.000 A 
BRANCH   7  10
ATOM     10  C   UNL     1       1.122   9.242  18.932  0.00  0.00    +0.000 A 
ATOM     11  C   UNL     1       0.901  10.188  19.907  0.00  0.00    +0.000 A 
ATOM     12  N   UNL     1      -0.163  10.986  19.567  0.00  0.00    +0.000 NA
ATOM     13  C   UNL     1      -0.566  10.500  18.411  0.00  0.00    +0.000 A 
ATOM     14  O   UNL     1       0.173   9.439  17.964  0.00  0.00    +0.000 OA
BRANCH  13  15
ATOM     15  C   UNL     1      -1.757  11.068  17.654  0.00  0.00    +0.000 C 
ATOM     16  C   UNL     1      -2.315  10.281  16.485  0.00  0.00    +0.000 C 
ATOM     17  C   UNL     1      -3.088  10.351  17.758  0.00  0.00    +0.000 C 
ENDBRANCH  13  15
ENDBRANCH   7  10
ENDBRANCH   1   4
BRANCH   1  18
ATOM     18  N   UNL     1       5.372   4.630  16.662  0.00  0.00    +0.000 NA
ATOM     19  H   UNL     1       4.793   3.858  16.328  0.00  0.00    +0.000 HD
BRANCH  18  20
ATOM     20  C   UNL     1       6.732   4.688  16.129  0.00  0.00    +0.000 C 
BRANCH  20  25
ATOM     21  C   UNL     1       6.060   3.484  12.587  0.00  0.00    +0.000 A 
ATOM     22  C   UNL     1       6.977   4.242  11.858  0.00  0.00    +0.000 A 
ATOM     23  C   UNL     1       7.798   5.174  12.498  0.00  0.00    +0.000 A 
ATOM     24  C   UNL     1       7.705   5.352  13.878  0.00  0.00    +0.000 A 
ATOM     25  C   UNL     1       6.787   4.600  14.625  0.00  0.00    +0.000 A 
ATOM     26  C   UNL     1       5.964   3.673  13.965  0.00  0.00    +0.000 A 
BRANCH  21  28
ATOM     27  C   UNL     1       6.053   1.502  11.280  0.00  0.00    +0.000 C 
ATOM     28  O   UNL     1       5.331   2.584  11.858  0.00  0.00    +0.000 OA
ENDBRANCH  21  28
ENDBRANCH  20  25
ENDBRANCH  18  20
ENDBRANCH   1  18
TORSDOF 7
ENDMDL
MODEL 9
REMARK VINA RESULT:      -7.4      2.177      7.538
REMARK  Name = 
REMARK  8 active torsions:
REMARK  status: ('A' for Active; 'I' for Inactive)
REMARK    1  A    between atoms: C_1  and  O_2
REMARK    2  A    between atoms: O_2  and  C_3
REMARK    3  A    between atoms: C_7  and  C_8
REMARK    4  A    between atoms: C_8  and  N_9
REMARK    5  A    between atoms: N_9  and  S_10
REMARK    6  A    between atoms: S_10  and  C_13
REMARK    7  A    between atoms: C_16  and  C_17
REMARK    8  A    between atoms: C_20  and  C_21
REMARK                            x       y       z     vdW  Elec       q    Type
REMARK                         _______ _______ _______ _____ _____    ______ ____
ROOT
ATOM      1  S   UNL     1       2.598   2.738  18.299  0.00  0.00    +0.000 S 
ATOM      2  O   UNL     1       2.420   2.786  16.861  0.00  0.00    +0.000 OA
ATOM      3  O   UNL     1       1.955   1.734  19.115  0.00  0.00    +0.000 OA
ENDROOT
BRANCH   1   4
ATOM      4  C   UNL     1       2.179   4.332  18.952  0.00  0.00    +0.000 A 
ATOM      5  C   UNL     1       2.333   5.476  18.166  0.00  0.00    +0.000 A 
ATOM      6  C   UNL     1       2.073   6.735  18.721  0.00  0.00    +0.000 A 
ATOM      7  C   UNL     1       1.679   6.863  20.063  0.00  0.00    +0.000 A 
ATOM      8  C   UNL     1       1.482   5.697  20.816  0.00  0.00    +0.000 A 
ATOM      9  C   UNL     1       1.710   4.441  20.260  0.00  0.00    +0.000 A 
BRANCH   7  10
ATOM     10  C   UNL     1       1.499   8.171  20.672  0.00  0.00    +0.000 A 
ATOM     11  C   UNL     1       1.570   8.694  21.943  0.00  0.00    +0.000 A 
ATOM     12  N   UNL     1       1.262  10.031  21.928  0.00  0.00    +0.000 NA
ATOM     13  C   UNL     1       1.001  10.282  20.661  0.00  0.00    +0.000 A 
ATOM     14  O   UNL     1       1.129   9.195  19.840  0.00  0.00    +0.000 OA
BRANCH  13  15
ATOM     15  C   UNL     1       0.584  11.658  20.167  0.00  0.00    +0.000 C 
ATOM     16  C   UNL     1      -0.184  11.759  18.864  0.00  0.00    +0.000 C 
ATOM     17  C   UNL     1      -0.892  12.004  20.153  0.00  0.00    +0.000 C 
ENDBRANCH  13  15
ENDBRANCH   7  10
ENDBRANCH   1   4
BRANCH   1  18
ATOM     18  N   UNL     1       4.264   2.656  18.535  0.00  0.00    +0.000 NA
ATOM     19  H   UNL     1       4.557   1.706  18.767  0.00  0.00    +0.000 HD
BRANCH  18  20
ATOM     20  C   UNL     1       4.867   3.726  19.329  0.00  0.00    +0.000 C 
BRANCH  20  25
ATOM     21  C   UNL     1       6.961   5.048  16.446  0.00  0.00    +0.000 A 
ATOM     22  C   UNL     1       7.558   6.168  17.027  0.00  0.00    +0.000 A 
ATOM     23  C   UNL     1       7.263   6.528  18.345  0.00  0.00    +0.000 A 
ATOM     24  C   UNL     1       6.367   5.762  19.091  0.00  0.00    +0.000 A 
ATOM     25  C   UNL     1       5.757   4.636  18.521  0.00  0.00    +0.000 A 
ATOM     26  C   UNL     1       6.058   4.293  17.193  0.00  0.00    +0.000 A 
BRANCH  21  28
ATOM     27  C   UNL     1       6.317   4.397  14.255  0.00  0.00    +0.000 C 
ATOM     28  O   UNL     1       7.347   4.779  15.160  0.00  0.00    +0.000 OA
ENDBRANCH  21  28
ENDBRANCH  20  25
ENDBRANCH  18  20
ENDBRANCH   1  18
TORSDOF 7
ENDMDL
