MODEL 1
REMARK VINA RESULT:      -9.3      0.000      0.000
REMARK  Name = 
REMARK  6 active torsions:
REMARK  status: ('A' for Active; 'I' for Inactive)
REMARK    1  A    between atoms: C_1  and  C_2
REMARK    2  A    between atoms: C_7  and  N_8
REMARK    3  A    between atoms: C_9  and  C_10
REMARK    4  A    between atoms: C_10  and  N_11
REMARK    5  A    between atoms: C_13  and  C_14
REMARK    6  A    between atoms: C_33  and  C_34
REMARK                            x       y       z     vdW  Elec       q    Type
REMARK                         _______ _______ _______ _____ _____    ______ ____
ROOT
ATOM      1  C   UNL     1       2.806   7.034  18.015  0.00  0.00    +0.000 C 
ENDROOT
BRANCH   1   3
ATOM      2  N   UNL     1       3.294   4.644  18.270  0.00  0.00    +0.000 N 
ATOM      3  C   UNL     1       3.598   5.953  18.739  0.00  0.00    +0.000 A 
ATOM      4  C   UNL     1       4.895   6.086  19.059  0.00  0.00    +0.000 A 
ATOM      5  C   UNL     1       5.668   6.012  17.811  0.00  0.00    +0.000 A 
ATOM      6  C   UNL     1       6.616   7.006  17.590  0.00  0.00    +0.000 A 
ATOM      7  C   UNL     1       7.341   6.988  16.418  0.00  0.00    +0.000 A 
ATOM      8  C   UNL     1       7.184   5.933  15.525  0.00  0.00    +0.000 A 
ATOM      9  C   UNL     1       6.257   4.880  15.744  0.00  0.00    +0.000 A 
ATOM     10  C   UNL     1       6.357   3.739  14.761  0.00  0.00    +0.000 C 
ATOM     11  C   UNL     1       5.412   4.968  16.876  0.00  0.00    +0.000 A 
ATOM     12  C   UNL     1       4.209   4.074  17.254  0.00  0.00    +0.000 A 
ATOM     13  O   UNL     1       4.105   2.971  16.709  0.00  0.00    +0.000 OA
BRANCH   2  20
ATOM     14  C   UNL     1       4.355   2.243  20.068  0.00  0.00    +0.000 C 
ATOM     15  C   UNL     1       3.197   3.189  20.305  0.00  0.00    +0.000 A 
ATOM     16  C   UNL     1       2.425   2.982  21.464  0.00  0.00    +0.000 A 
ATOM     17  C   UNL     1       1.040   2.948  21.361  0.00  0.00    +0.000 A 
ATOM     18  C   UNL     1       0.455   3.057  20.105  0.00  0.00    +0.000 A 
ATOM     19  C   UNL     1       1.232   3.482  19.019  0.00  0.00    +0.000 A 
ATOM     20  C   UNL     1       2.593   3.751  19.182  0.00  0.00    +0.000 A 
ENDBRANCH   2  20
ENDBRANCH   1   3
BRANCH   1  21
ATOM     21  N   UNL     1       2.209   8.185  18.723  0.00  0.00    +0.000 N 
ATOM     22  N   UNL     1       2.155   9.338  17.997  0.00  0.00    +0.000 NA
ATOM     23  C   UNL     1       1.436  10.188  18.740  0.00  0.00    +0.000 A 
ATOM     24  C   UNL     1       0.861   9.528  19.845  0.00  0.00    +0.000 A 
ATOM     25  C   UNL     1      -0.049   9.845  20.869  0.00  0.00    +0.000 A 
ATOM     26  N   UNL     1      -0.882  10.962  20.838  0.00  0.00    +0.000 N 
ATOM     27  N   UNL     1      -0.102   9.053  21.939  0.00  0.00    +0.000 NA
ATOM     28  C   UNL     1       0.666   7.942  21.944  0.00  0.00    +0.000 A 
ATOM     29  N   UNL     1       1.431   7.435  20.944  0.00  0.00    +0.000 NA
ATOM     30  C   UNL     1       1.502   8.291  19.907  0.00  0.00    +0.000 A 
ATOM     31  H   UNL     1      -1.172  11.255  19.910  0.00  0.00    +0.000 HD
ATOM     32  H   UNL     1      -1.632  10.900  21.530  0.00  0.00    +0.000 HD
BRANCH  23  33
ATOM     33  C   UNL     1       1.470  11.622  18.454  0.00  0.00    +0.000 A 
ATOM     34  C   UNL     1       0.311  12.406  18.611  0.00  0.00    +0.000 A 
ATOM     35  C   UNL     1       0.378  13.800  18.589  0.00  0.00    +0.000 A 
ATOM     36  C   UNL     1       1.603  14.427  18.418  0.00  0.00    +0.000 A 
ATOM     37  C   UNL     1       2.749  13.644  18.218  0.00  0.00    +0.000 A 
ATOM     38  F   UNL     1       3.936  14.254  18.077  0.00  0.00    +0.000 F 
ATOM     39  C   UNL     1       2.691  12.261  18.220  0.00  0.00    +0.000 A 
ENDBRANCH  23  33
ENDBRANCH   1  21
TORSDOF 4
ENDMDL
MODEL 2
REMARK VINA RESULT:      -9.1      6.713     10.249
REMARK  Name = 
REMARK  6 active torsions:
REMARK  status: ('A' for Active; 'I' for Inactive)
REMARK    1  A    between atoms: C_1  and  C_2
REMARK    2  A    between atoms: C_7  and  N_8
REMARK    3  A    between atoms: C_9  and  C_10
REMARK    4  A    between atoms: C_10  and  N_11
REMARK    5  A    between atoms: C_13  and  C_14
REMARK    6  A    between atoms: C_33  and  C_34
REMARK                            x       y       z     vdW  Elec       q    Type
REMARK                         _______ _______ _______ _____ _____    ______ ____
ROOT
ATOM      1  C   UNL     1      -3.374  14.218  21.620  0.00  0.00    +0.000 C 
ENDROOT
BRANCH   1   3
ATOM      2  N   UNL     1      -1.186  13.316  22.265  0.00  0.00    +0.000 N 
ATOM      3  C   UNL     1      -2.517  13.571  22.700  0.00  0.00    +0.000 A 
ATOM      4  C   UNL     1      -2.564  13.939  23.991  0.00  0.00    +0.000 A 
ATOM      5  C   UNL     1      -1.940  15.266  24.095  0.00  0.00    +0.000 A 
ATOM      6  C   UNL     1      -2.642  16.245  24.791  0.00  0.00    +0.000 A 
ATOM      7  C   UNL     1      -2.104  17.511  24.886  0.00  0.00    +0.000 A 
ATOM      8  C   UNL     1      -0.836  17.762  24.372  0.00  0.00    +0.000 A 
ATOM      9  C   UNL     1      -0.075  16.771  23.696  0.00  0.00    +0.000 A 
ATOM     10  C   UNL     1       1.341  17.177  23.372  0.00  0.00    +0.000 C 
ATOM     11  C   UNL     1      -0.683  15.511  23.474  0.00  0.00    +0.000 A 
ATOM     12  C   UNL     1      -0.166  14.330  22.622  0.00  0.00    +0.000 A 
ATOM     13  O   UNL     1       1.031  14.305  22.320  0.00  0.00    +0.000 OA
BRANCH   2  20
ATOM     14  C   UNL     1      -0.164  11.718  19.710  0.00  0.00    +0.000 C 
ATOM     15  C   UNL     1       0.163  11.512  21.174  0.00  0.00    +0.000 A 
ATOM     16  C   UNL     1       1.013  10.437  21.497  0.00  0.00    +0.000 A 
ATOM     17  C   UNL     1       0.646   9.563  22.513  0.00  0.00    +0.000 A 
ATOM     18  C   UNL     1      -0.580   9.738  23.143  0.00  0.00    +0.000 A 
ATOM     19  C   UNL     1      -1.286  10.933  22.954  0.00  0.00    +0.000 A 
ATOM     20  C   UNL     1      -0.787  11.925  22.105  0.00  0.00    +0.000 A 
ENDBRANCH   2  20
ENDBRANCH   1   3
BRANCH   1  21
ATOM     21  N   UNL     1      -4.150  13.424  20.646  0.00  0.00    +0.000 N 
ATOM     22  N   UNL     1      -3.400  12.640  19.820  0.00  0.00    +0.000 NA
ATOM     23  C   UNL     1      -4.283  11.888  19.151  0.00  0.00    +0.000 A 
ATOM     24  C   UNL     1      -5.580  12.042  19.683  0.00  0.00    +0.000 A 
ATOM     25  C   UNL     1      -6.842  11.454  19.492  0.00  0.00    +0.000 A 
ATOM     26  N   UNL     1      -7.035  10.248  18.821  0.00  0.00    +0.000 N 
ATOM     27  N   UNL     1      -7.917  12.095  19.951  0.00  0.00    +0.000 NA
ATOM     28  C   UNL     1      -7.725  13.236  20.647  0.00  0.00    +0.000 A 
ATOM     29  N   UNL     1      -6.558  13.794  21.057  0.00  0.00    +0.000 NA
ATOM     30  C   UNL     1      -5.500  13.150  20.525  0.00  0.00    +0.000 A 
ATOM     31  H   UNL     1      -6.270   9.586  18.902  0.00  0.00    +0.000 HD
ATOM     32  H   UNL     1      -7.966   9.860  18.989  0.00  0.00    +0.000 HD
BRANCH  23  33
ATOM     33  C   UNL     1      -3.877  11.189  17.932  0.00  0.00    +0.000 A 
ATOM     34  C   UNL     1      -4.467  11.513  16.697  0.00  0.00    +0.000 A 
ATOM     35  C   UNL     1      -3.927  11.045  15.497  0.00  0.00    +0.000 A 
ATOM     36  C   UNL     1      -2.785  10.257  15.518  0.00  0.00    +0.000 A 
ATOM     37  C   UNL     1      -2.225   9.900  16.753  0.00  0.00    +0.000 A 
ATOM     38  F   UNL     1      -1.107   9.157  16.768  0.00  0.00    +0.000 F 
ATOM     39  C   UNL     1      -2.763  10.343  17.949  0.00  0.00    +0.000 A 
ENDBRANCH  23  33
ENDBRANCH   1  21
TORSDOF 4
ENDMDL
MODEL 3
REMARK VINA RESULT:      -9.0      7.751     11.242
REMARK  Name = 
REMARK  6 active torsions:
REMARK  status: ('A' for Active; 'I' for Inactive)
REMARK    1  A    between atoms: C_1  and  C_2
REMARK    2  A    between atoms: C_7  and  N_8
REMARK    3  A    between atoms: C_9  and  C_10
REMARK    4  A    between atoms: C_10  and  N_11
REMARK    5  A    between atoms: C_13  and  C_14
REMARK    6  A    between atoms: C_33  and  C_34
REMARK                            x       y       z     vdW  Elec       q    Type
REMARK                         _______ _______ _______ _____ _____    ______ ____
ROOT
ATOM      1  C   UNL     1       5.696  16.544  19.128  0.00  0.00    +0.000 C 
ENDROOT
BRANCH   1   3
ATOM      2  N   UNL     1       4.364  15.638  20.978  0.00  0.00    +0.000 N 
ATOM      3  C   UNL     1       5.208  16.706  20.562  0.00  0.00    +0.000 A 
ATOM      4  C   UNL     1       5.995  17.144  21.558  0.00  0.00    +0.000 A 
ATOM      5  C   UNL     1       6.961  16.078  21.860  0.00  0.00    +0.000 A 
ATOM      6  C   UNL     1       8.303  16.439  21.938  0.00  0.00    +0.000 A 
ATOM      7  C   UNL     1       9.243  15.463  22.189  0.00  0.00    +0.000 A 
ATOM      8  C   UNL     1       8.832  14.161  22.455  0.00  0.00    +0.000 A 
ATOM      9  C   UNL     1       7.467  13.770  22.427  0.00  0.00    +0.000 A 
ATOM     10  C   UNL     1       7.203  12.366  22.915  0.00  0.00    +0.000 C 
ATOM     11  C   UNL     1       6.511  14.737  22.031  0.00  0.00    +0.000 A 
ATOM     12  C   UNL     1       5.005  14.542  21.741  0.00  0.00    +0.000 A 
ATOM     13  O   UNL     1       4.454  13.524  22.168  0.00  0.00    +0.000 OA
BRANCH   2  20
ATOM     14  C   UNL     1       1.966  16.120  18.943  0.00  0.00    +0.000 C 
ATOM     15  C   UNL     1       1.943  15.550  20.345  0.00  0.00    +0.000 A 
ATOM     16  C   UNL     1       0.687  15.206  20.878  0.00  0.00    +0.000 A 
ATOM     17  C   UNL     1       0.348  15.642  22.154  0.00  0.00    +0.000 A 
ATOM     18  C   UNL     1       1.235  16.457  22.845  0.00  0.00    +0.000 A 
ATOM     19  C   UNL     1       2.551  16.590  22.382  0.00  0.00    +0.000 A 
ATOM     20  C   UNL     1       2.960  15.946  21.212  0.00  0.00    +0.000 A 
ENDBRANCH   2  20
ENDBRANCH   1   3
BRANCH   1  21
ATOM     21  N   UNL     1       7.085  16.162  18.804  0.00  0.00    +0.000 N 
ATOM     22  N   UNL     1       7.316  14.819  18.770  0.00  0.00    +0.000 NA
ATOM     23  C   UNL     1       8.560  14.688  18.295  0.00  0.00    +0.000 A 
ATOM     24  C   UNL     1       9.057  15.925  17.837  0.00  0.00    +0.000 A 
ATOM     25  C   UNL     1      10.199  16.383  17.157  0.00  0.00    +0.000 A 
ATOM     26  N   UNL     1      11.075  15.542  16.473  0.00  0.00    +0.000 N 
ATOM     27  N   UNL     1      10.477  17.686  17.188  0.00  0.00    +0.000 NA
ATOM     28  C   UNL     1       9.599  18.507  17.805  0.00  0.00    +0.000 A 
ATOM     29  N   UNL     1       8.380  18.210  18.323  0.00  0.00    +0.000 NA
ATOM     30  C   UNL     1       8.165  16.880  18.323  0.00  0.00    +0.000 A 
ATOM     31  H   UNL     1      10.648  14.715  16.069  0.00  0.00    +0.000 HD
ATOM     32  H   UNL     1      11.695  16.062  15.848  0.00  0.00    +0.000 HD
BRANCH  23  33
ATOM     33  C   UNL     1       9.278  13.423  18.454  0.00  0.00    +0.000 A 
ATOM     34  C   UNL     1      10.400  13.344  19.299  0.00  0.00    +0.000 A 
ATOM     35  C   UNL     1      10.943  12.109  19.660  0.00  0.00    +0.000 A 
ATOM     36  C   UNL     1      10.364  10.940  19.189  0.00  0.00    +0.000 A 
ATOM     37  C   UNL     1       9.272  11.023  18.314  0.00  0.00    +0.000 A 
ATOM     38  F   UNL     1       8.700   9.889  17.879  0.00  0.00    +0.000 F 
ATOM     39  C   UNL     1       8.738  12.242  17.934  0.00  0.00    +0.000 A 
ENDBRANCH  23  33
ENDBRANCH   1  21
TORSDOF 4
ENDMDL
MODEL 4
REMARK VINA RESULT:      -8.9      7.953     11.478
REMARK  Name = 
REMARK  6 active torsions:
REMARK  status: ('A' for Active; 'I' for Inactive)
REMARK    1  A    between atoms: C_1  and  C_2
REMARK    2  A    between atoms: C_7  and  N_8
REMARK    3  A    between atoms: C_9  and  C_10
REMARK    4  A    between atoms: C_10  and  N_11
REMARK    5  A    between atoms: C_13  and  C_14
REMARK    6  A    between atoms: C_33  and  C_34
REMARK                            x       y       z     vdW  Elec       q    Type
REMARK                         _______ _______ _______ _____ _____    ______ ____
ROOT
ATOM      1  C   UNL     1       5.970  16.530  19.529  0.00  0.00    +0.000 C 
ENDROOT
BRANCH   1   3
ATOM      2  N   UNL     1       4.742  15.649  21.461  0.00  0.00    +0.000 N 
ATOM      3  C   UNL     1       5.645  16.653  21.012  0.00  0.00    +0.000 A 
ATOM      4  C   UNL     1       6.568  16.954  21.941  0.00  0.00    +0.000 A 
ATOM      5  C   UNL     1       7.445  15.784  22.088  0.00  0.00    +0.000 A 
ATOM      6  C   UNL     1       8.817  16.009  22.044  0.00  0.00    +0.000 A 
ATOM      7  C   UNL     1       9.673  14.934  22.148  0.00  0.00    +0.000 A 
ATOM      8  C   UNL     1       9.160  13.664  22.391  0.00  0.00    +0.000 A 
ATOM      9  C   UNL     1       7.767  13.409  22.486  0.00  0.00    +0.000 A 
ATOM     10  C   UNL     1       7.411  12.011  22.930  0.00  0.00    +0.000 C 
ATOM     11  C   UNL     1       6.880  14.485  22.240  0.00  0.00    +0.000 A 
ATOM     12  C   UNL     1       5.341  14.453  22.099  0.00  0.00    +0.000 A 
ATOM     13  O   UNL     1       4.734  13.469  22.530  0.00  0.00    +0.000 OA
BRANCH   2  20
ATOM     14  C   UNL     1       3.665  16.887  24.186  0.00  0.00    +0.000 C 
ATOM     15  C   UNL     1       3.179  17.102  22.769  0.00  0.00    +0.000 A 
ATOM     16  C   UNL     1       2.060  17.937  22.593  0.00  0.00    +0.000 A 
ATOM     17  C   UNL     1       1.006  17.503  21.797  0.00  0.00    +0.000 A 
ATOM     18  C   UNL     1       1.059  16.229  21.245  0.00  0.00    +0.000 A 
ATOM     19  C   UNL     1       2.271  15.525  21.255  0.00  0.00    +0.000 A 
ATOM     20  C   UNL     1       3.406  16.076  21.854  0.00  0.00    +0.000 A 
ENDBRANCH   2  20
ENDBRANCH   1   3
BRANCH   1  21
ATOM     21  N   UNL     1       7.320  16.182  19.042  0.00  0.00    +0.000 N 
ATOM     22  N   UNL     1       7.562  14.844  18.932  0.00  0.00    +0.000 NA
ATOM     23  C   UNL     1       8.748  14.750  18.321  0.00  0.00    +0.000 A 
ATOM     24  C   UNL     1       9.178  16.011  17.858  0.00  0.00    +0.000 A 
ATOM     25  C   UNL     1      10.233  16.510  17.076  0.00  0.00    +0.000 A 
ATOM     26  N   UNL     1      11.039  15.708  16.270  0.00  0.00    +0.000 N 
ATOM     27  N   UNL     1      10.498  17.815  17.125  0.00  0.00    +0.000 NA
ATOM     28  C   UNL     1       9.683  18.600  17.864  0.00  0.00    +0.000 A 
ATOM     29  N   UNL     1       8.532  18.265  18.500  0.00  0.00    +0.000 NA
ATOM     30  C   UNL     1       8.333  16.933  18.474  0.00  0.00    +0.000 A 
ATOM     31  H   UNL     1      10.580  14.890  15.884  0.00  0.00    +0.000 HD
ATOM     32  H   UNL     1      11.582  16.259  15.601  0.00  0.00    +0.000 HD
BRANCH  23  33
ATOM     33  C   UNL     1       9.494  13.491  18.354  0.00  0.00    +0.000 A 
ATOM     34  C   UNL     1      10.747  13.424  18.991  0.00  0.00    +0.000 A 
ATOM     35  C   UNL     1      11.354  12.194  19.253  0.00  0.00    +0.000 A 
ATOM     36  C   UNL     1      10.713  11.019  18.891  0.00  0.00    +0.000 A 
ATOM     37  C   UNL     1       9.485  11.091  18.217  0.00  0.00    +0.000 A 
ATOM     38  F   UNL     1       8.857   9.951  17.889  0.00  0.00    +0.000 F 
ATOM     39  C   UNL     1       8.882  12.305  17.936  0.00  0.00    +0.000 A 
ENDBRANCH  23  33
ENDBRANCH   1  21
TORSDOF 4
ENDMDL
MODEL 5
REMARK VINA RESULT:      -8.7      5.363     10.608
REMARK  Name = 
REMARK  6 active torsions:
REMARK  status: ('A' for Active; 'I' for Inactive)
REMARK    1  A    between atoms: C_1  and  C_2
REMARK    2  A    between atoms: C_7  and  N_8
REMARK    3  A    between atoms: C_9  and  C_10
REMARK    4  A    between atoms: C_10  and  N_11
REMARK    5  A    between atoms: C_13  and  C_14
REMARK    6  A    between atoms: C_33  and  C_34
REMARK                            x       y       z     vdW  Elec       q    Type
REMARK                         _______ _______ _______ _____ _____    ______ ____
ROOT
ATOM      1  C   UNL     1      -2.590  12.779  21.038  0.00  0.00    +0.000 C 
ENDROOT
BRANCH   1   3
ATOM      2  N   UNL     1      -4.638  12.015  19.924  0.00  0.00    +0.000 N 
ATOM      3  C   UNL     1      -3.773  13.124  20.141  0.00  0.00    +0.000 A 
ATOM      4  C   UNL     1      -4.448  14.281  20.234  0.00  0.00    +0.000 A 
ATOM      5  C   UNL     1      -5.226  14.240  21.481  0.00  0.00    +0.000 A 
ATOM      6  C   UNL     1      -5.135  15.343  22.324  0.00  0.00    +0.000 A 
ATOM      7  C   UNL     1      -5.825  15.331  23.516  0.00  0.00    +0.000 A 
ATOM      8  C   UNL     1      -6.673  14.268  23.812  0.00  0.00    +0.000 A 
ATOM      9  C   UNL     1      -6.823  13.148  22.951  0.00  0.00    +0.000 A 
ATOM     10  C   UNL     1      -7.916  12.188  23.352  0.00  0.00    +0.000 C 
ATOM     11  C   UNL     1      -6.009  13.092  21.794  0.00  0.00    +0.000 A 
ATOM     12  C   UNL     1      -5.835  11.926  20.794  0.00  0.00    +0.000 A 
ATOM     13  O   UNL     1      -6.688  11.035  20.779  0.00  0.00    +0.000 OA
BRANCH   2  20
ATOM     14  C   UNL     1      -6.846  12.253  17.645  0.00  0.00    +0.000 C 
ATOM     15  C   UNL     1      -5.346  12.083  17.524  0.00  0.00    +0.000 A 
ATOM     16  C   UNL     1      -4.815  11.970  16.225  0.00  0.00    +0.000 A 
ATOM     17  C   UNL     1      -3.922  10.942  15.944  0.00  0.00    +0.000 A 
ATOM     18  C   UNL     1      -3.625  10.018  16.937  0.00  0.00    +0.000 A 
ATOM     19  C   UNL     1      -3.990  10.289  18.262  0.00  0.00    +0.000 A 
ATOM     20  C   UNL     1      -4.687  11.457  18.580  0.00  0.00    +0.000 A 
ENDBRANCH   2  20
ENDBRANCH   1   3
BRANCH   1  21
ATOM     21  N   UNL     1      -1.260  12.439  20.494  0.00  0.00    +0.000 N 
ATOM     22  N   UNL     1      -1.126  11.149  20.074  0.00  0.00    +0.000 NA
ATOM     23  C   UNL     1       0.067  11.099  19.468  0.00  0.00    +0.000 A 
ATOM     24  C   UNL     1       0.612  12.391  19.322  0.00  0.00    +0.000 A 
ATOM     25  C   UNL     1       1.728  12.967  18.690  0.00  0.00    +0.000 A 
ATOM     26  N   UNL     1       2.489  12.310  17.725  0.00  0.00    +0.000 N 
ATOM     27  N   UNL     1       2.097  14.196  19.050  0.00  0.00    +0.000 NA
ATOM     28  C   UNL     1       1.327  14.852  19.945  0.00  0.00    +0.000 A 
ATOM     29  N   UNL     1       0.134  14.478  20.474  0.00  0.00    +0.000 NA
ATOM     30  C   UNL     1      -0.172  13.212  20.130  0.00  0.00    +0.000 A 
ATOM     31  H   UNL     1       1.976  11.648  17.152  0.00  0.00    +0.000 HD
ATOM     32  H   UNL     1       3.094  12.954  17.211  0.00  0.00    +0.000 HD
BRANCH  23  33
ATOM     33  C   UNL     1       0.705   9.808  19.209  0.00  0.00    +0.000 A 
ATOM     34  C   UNL     1       1.256   9.529  17.945  0.00  0.00    +0.000 A 
ATOM     35  C   UNL     1       2.082   8.420  17.750  0.00  0.00    +0.000 A 
ATOM     36  C   UNL     1       2.373   7.583  18.817  0.00  0.00    +0.000 A 
ATOM     37  C   UNL     1       1.787   7.840  20.065  0.00  0.00    +0.000 A 
ATOM     38  F   UNL     1       2.091   7.041  21.101  0.00  0.00    +0.000 F 
ATOM     39  C   UNL     1       0.953   8.926  20.265  0.00  0.00    +0.000 A 
ENDBRANCH  23  33
ENDBRANCH   1  21
TORSDOF 4
ENDMDL
MODEL 6
REMARK VINA RESULT:      -8.7      6.507     10.261
REMARK  Name = 
REMARK  6 active torsions:
REMARK  status: ('A' for Active; 'I' for Inactive)
REMARK    1  A    between atoms: C_1  and  C_2
REMARK    2  A    between atoms: C_7  and  N_8
REMARK    3  A    between atoms: C_9  and  C_10
REMARK    4  A    between atoms: C_10  and  N_11
REMARK    5  A    between atoms: C_13  and  C_14
REMARK    6  A    between atoms: C_33  and  C_34
REMARK                            x       y       z     vdW  Elec       q    Type
REMARK                         _______ _______ _______ _____ _____    ______ ____
ROOT
ATOM      1  C   UNL     1      -3.248  13.981  21.570  0.00  0.00    +0.000 C 
ENDROOT
BRANCH   1   3
ATOM      2  N   UNL     1      -0.891  13.419  21.953  0.00  0.00    +0.000 N 
ATOM      3  C   UNL     1      -2.220  13.266  22.438  0.00  0.00    +0.000 A 
ATOM      4  C   UNL     1      -2.271  13.264  23.780  0.00  0.00    +0.000 A 
ATOM      5  C   UNL     1      -1.923  14.617  24.238  0.00  0.00    +0.000 A 
ATOM      6  C   UNL     1      -2.768  15.210  25.170  0.00  0.00    +0.000 A 
ATOM      7  C   UNL     1      -2.492  16.490  25.602  0.00  0.00    +0.000 A 
ATOM      8  C   UNL     1      -1.329  17.126  25.177  0.00  0.00    +0.000 A 
ATOM      9  C   UNL     1      -0.423  16.529  24.262  0.00  0.00    +0.000 A 
ATOM     10  C   UNL     1       0.863  17.292  24.061  0.00  0.00    +0.000 C 
ATOM     11  C   UNL     1      -0.775  15.274  23.708  0.00  0.00    +0.000 A 
ATOM     12  C   UNL     1      -0.078  14.492  22.571  0.00  0.00    +0.000 A 
ATOM     13  O   UNL     1       1.081  14.797  22.276  0.00  0.00    +0.000 OA
BRANCH   2  20
ATOM     14  C   UNL     1      -0.597  10.487  23.154  0.00  0.00    +0.000 C 
ATOM     15  C   UNL     1      -0.660  10.938  21.710  0.00  0.00    +0.000 A 
ATOM     16  C   UNL     1      -0.532   9.945  20.720  0.00  0.00    +0.000 A 
ATOM     17  C   UNL     1       0.359  10.142  19.672  0.00  0.00    +0.000 A 
ATOM     18  C   UNL     1       1.145  11.287  19.661  0.00  0.00    +0.000 A 
ATOM     19  C   UNL     1       0.834  12.343  20.527  0.00  0.00    +0.000 A 
ATOM     20  C   UNL     1      -0.230  12.233  21.427  0.00  0.00    +0.000 A 
ENDBRANCH   2  20
ENDBRANCH   1   3
BRANCH   1  21
ATOM     21  N   UNL     1      -4.045  13.276  20.546  0.00  0.00    +0.000 N 
ATOM     22  N   UNL     1      -3.328  12.453  19.729  0.00  0.00    +0.000 NA
ATOM     23  C   UNL     1      -4.240  11.791  19.007  0.00  0.00    +0.000 A 
ATOM     24  C   UNL     1      -5.541  12.037  19.493  0.00  0.00    +0.000 A 
ATOM     25  C   UNL     1      -6.838  11.558  19.240  0.00  0.00    +0.000 A 
ATOM     26  N   UNL     1      -7.099  10.387  18.531  0.00  0.00    +0.000 N 
ATOM     27  N   UNL     1      -7.875  12.272  19.675  0.00  0.00    +0.000 NA
ATOM     28  C   UNL     1      -7.620  13.378  20.408  0.00  0.00    +0.000 A 
ATOM     29  N   UNL     1      -6.429  13.829  20.876  0.00  0.00    +0.000 NA
ATOM     30  C   UNL     1      -5.407  13.115  20.368  0.00  0.00    +0.000 A 
ATOM     31  H   UNL     1      -6.394   9.663  18.622  0.00  0.00    +0.000 HD
ATOM     32  H   UNL     1      -8.064  10.072  18.653  0.00  0.00    +0.000 HD
BRANCH  23  33
ATOM     33  C   UNL     1      -3.843  11.090  17.787  0.00  0.00    +0.000 A 
ATOM     34  C   UNL     1      -4.445  11.410  16.555  0.00  0.00    +0.000 A 
ATOM     35  C   UNL     1      -3.914  10.940  15.352  0.00  0.00    +0.000 A 
ATOM     36  C   UNL     1      -2.771  10.155  15.365  0.00  0.00    +0.000 A 
ATOM     37  C   UNL     1      -2.199   9.802  16.596  0.00  0.00    +0.000 A 
ATOM     38  F   UNL     1      -1.080   9.061  16.603  0.00  0.00    +0.000 F 
ATOM     39  C   UNL     1      -2.728  10.246  17.796  0.00  0.00    +0.000 A 
ENDBRANCH  23  33
ENDBRANCH   1  21
TORSDOF 4
ENDMDL
MODEL 7
REMARK VINA RESULT:      -8.6      0.723      1.098
REMARK  Name = 
REMARK  6 active torsions:
REMARK  status: ('A' for Active; 'I' for Inactive)
REMARK    1  A    between atoms: C_1  and  C_2
REMARK    2  A    between atoms: C_7  and  N_8
REMARK    3  A    between atoms: C_9  and  C_10
REMARK    4  A    between atoms: C_10  and  N_11
REMARK    5  A    between atoms: C_13  and  C_14
REMARK    6  A    between atoms: C_33  and  C_34
REMARK                            x       y       z     vdW  Elec       q    Type
REMARK                         _______ _______ _______ _____ _____    ______ ____
ROOT
ATOM      1  C   UNL     1       2.810   7.380  18.107  0.00  0.00    +0.000 C 
ENDROOT
BRANCH   1   3
ATOM      2  N   UNL     1       3.050   4.972  18.510  0.00  0.00    +0.000 N 
ATOM      3  C   UNL     1       3.516   6.267  18.871  0.00  0.00    +0.000 A 
ATOM      4  C   UNL     1       4.834   6.277  19.126  0.00  0.00    +0.000 A 
ATOM      5  C   UNL     1       5.532   6.036  17.855  0.00  0.00    +0.000 A 
ATOM      6  C   UNL     1       6.570   6.902  17.525  0.00  0.00    +0.000 A 
ATOM      7  C   UNL     1       7.229   6.727  16.327  0.00  0.00    +0.000 A 
ATOM      8  C   UNL     1       6.915   5.639  15.519  0.00  0.00    +0.000 A 
ATOM      9  C   UNL     1       5.892   4.711  15.850  0.00  0.00    +0.000 A 
ATOM     10  C   UNL     1       5.820   3.504  14.947  0.00  0.00    +0.000 C 
ATOM     11  C   UNL     1       5.118   4.968  17.008  0.00  0.00    +0.000 A 
ATOM     12  C   UNL     1       3.846   4.239  17.498  0.00  0.00    +0.000 A 
ATOM     13  O   UNL     1       3.598   3.121  17.038  0.00  0.00    +0.000 OA
BRANCH   2  20
ATOM     14  C   UNL     1       0.399   3.230  18.266  0.00  0.00    +0.000 C 
ATOM     15  C   UNL     1       1.572   3.077  19.210  0.00  0.00    +0.000 A 
ATOM     16  C   UNL     1       1.498   2.046  20.165  0.00  0.00    +0.000 A 
ATOM     17  C   UNL     1       1.782   2.329  21.496  0.00  0.00    +0.000 A 
ATOM     18  C   UNL     1       2.073   3.639  21.858  0.00  0.00    +0.000 A 
ATOM     19  C   UNL     1       2.355   4.582  20.861  0.00  0.00    +0.000 A 
ATOM     20  C   UNL     1       2.302   4.225  19.511  0.00  0.00    +0.000 A 
ENDBRANCH   2  20
ENDBRANCH   1   3
BRANCH   1  21
ATOM     21  N   UNL     1       2.171   8.525  18.787  0.00  0.00    +0.000 N 
ATOM     22  N   UNL     1       2.143   9.679  18.061  0.00  0.00    +0.000 NA
ATOM     23  C   UNL     1       1.382  10.522  18.770  0.00  0.00    +0.000 A 
ATOM     24  C   UNL     1       0.759   9.855  19.845  0.00  0.00    +0.000 A 
ATOM     25  C   UNL     1      -0.202  10.162  20.823  0.00  0.00    +0.000 A 
ATOM     26  N   UNL     1      -1.041  11.273  20.754  0.00  0.00    +0.000 N 
ATOM     27  N   UNL     1      -0.300   9.368  21.888  0.00  0.00    +0.000 NA
ATOM     28  C   UNL     1       0.475   8.263  21.929  0.00  0.00    +0.000 A 
ATOM     29  N   UNL     1       1.292   7.764  20.966  0.00  0.00    +0.000 NA
ATOM     30  C   UNL     1       1.406   8.623  19.935  0.00  0.00    +0.000 A 
ATOM     31  H   UNL     1      -1.289  11.565  19.814  0.00  0.00    +0.000 HD
ATOM     32  H   UNL     1      -1.823  11.204  21.409  0.00  0.00    +0.000 HD
BRANCH  23  33
ATOM     33  C   UNL     1       1.418  11.957  18.488  0.00  0.00    +0.000 A 
ATOM     34  C   UNL     1       0.255  12.738  18.627  0.00  0.00    +0.000 A 
ATOM     35  C   UNL     1       0.320  14.132  18.609  0.00  0.00    +0.000 A 
ATOM     36  C   UNL     1       1.547  14.762  18.463  0.00  0.00    +0.000 A 
ATOM     37  C   UNL     1       2.697  13.981  18.281  0.00  0.00    +0.000 A 
ATOM     38  F   UNL     1       3.886  14.594  18.163  0.00  0.00    +0.000 F 
ATOM     39  C   UNL     1       2.643  12.598  18.279  0.00  0.00    +0.000 A 
ENDBRANCH  23  33
ENDBRANCH   1  21
TORSDOF 4
ENDMDL
MODEL 8
REMARK VINA RESULT:      -8.6      8.229     11.543
REMARK  Name = 
REMARK  6 active torsions:
REMARK  status: ('A' for Active; 'I' for Inactive)
REMARK    1  A    between atoms: C_1  and  C_2
REMARK    2  A    between atoms: C_7  and  N_8
REMARK    3  A    between atoms: C_9  and  C_10
REMARK    4  A    between atoms: C_10  and  N_11
REMARK    5  A    between atoms: C_13  and  C_14
REMARK    6  A    between atoms: C_33  and  C_34
REMARK                            x       y       z     vdW  Elec       q    Type
REMARK                         _______ _______ _______ _____ _____    ______ ____
ROOT
ATOM      1  C   UNL     1       5.783  16.189  18.763  0.00  0.00    +0.000 C 
ENDROOT
BRANCH   1   3
ATOM      2  N   UNL     1       4.217  15.613  20.561  0.00  0.00    +0.000 N 
ATOM      3  C   UNL     1       5.180  16.560  20.112  0.00  0.00    +0.000 A 
ATOM      4  C   UNL     1       5.905  17.061  21.125  0.00  0.00    +0.000 A 
ATOM      5  C   UNL     1       6.749  15.975  21.644  0.00  0.00    +0.000 A 
ATOM      6  C   UNL     1       8.103  16.249  21.816  0.00  0.00    +0.000 A 
ATOM      7  C   UNL     1       8.933  15.248  22.272  0.00  0.00    +0.000 A 
ATOM      8  C   UNL     1       8.394  14.021  22.644  0.00  0.00    +0.000 A 
ATOM      9  C   UNL     1       7.010  13.726  22.523  0.00  0.00    +0.000 A 
ATOM     10  C   UNL     1       6.590  12.415  23.141  0.00  0.00    +0.000 C 
ATOM     11  C   UNL     1       6.178  14.701  21.923  0.00  0.00    +0.000 A 
ATOM     12  C   UNL     1       4.694  14.578  21.507  0.00  0.00    +0.000 A 
ATOM     13  O   UNL     1       4.025  13.661  21.990  0.00  0.00    +0.000 OA
BRANCH   2  20
ATOM     14  C   UNL     1       2.560  17.033  22.876  0.00  0.00    +0.000 C 
ATOM     15  C   UNL     1       2.401  17.132  21.374  0.00  0.00    +0.000 A 
ATOM     16  C   UNL     1       1.348  17.932  20.890  0.00  0.00    +0.000 A 
ATOM     17  C   UNL     1       0.498  17.420  19.917  0.00  0.00    +0.000 A 
ATOM     18  C   UNL     1       0.674  16.110  19.490  0.00  0.00    +0.000 A 
ATOM     19  C   UNL     1       1.853  15.430  19.823  0.00  0.00    +0.000 A 
ATOM     20  C   UNL     1       2.827  16.045  20.614  0.00  0.00    +0.000 A 
ENDBRANCH   2  20
ENDBRANCH   1   3
BRANCH   1  21
ATOM     21  N   UNL     1       7.232  15.977  18.577  0.00  0.00    +0.000 N 
ATOM     22  N   UNL     1       7.615  14.670  18.508  0.00  0.00    +0.000 NA
ATOM     23  C   UNL     1       8.909  14.700  18.167  0.00  0.00    +0.000 A 
ATOM     24  C   UNL     1       9.309  16.008  17.822  0.00  0.00    +0.000 A 
ATOM     25  C   UNL     1      10.456  16.624  17.293  0.00  0.00    +0.000 A 
ATOM     26  N   UNL     1      11.488  15.921  16.673  0.00  0.00    +0.000 N 
ATOM     27  N   UNL     1      10.581  17.945  17.413  0.00  0.00    +0.000 NA
ATOM     28  C   UNL     1       9.557  18.630  17.966  0.00  0.00    +0.000 A 
ATOM     29  N   UNL     1       8.332  18.176  18.334  0.00  0.00    +0.000 NA
ATOM     30  C   UNL     1       8.269  16.833  18.250  0.00  0.00    +0.000 A 
ATOM     31  H   UNL     1      11.201  15.077  16.187  0.00  0.00    +0.000 HD
ATOM     32  H   UNL     1      12.108  16.539  16.144  0.00  0.00    +0.000 HD
BRANCH  23  33
ATOM     33  C   UNL     1       9.744  13.513  18.347  0.00  0.00    +0.000 A 
ATOM     34  C   UNL     1      10.369  12.909  17.240  0.00  0.00    +0.000 A 
ATOM     35  C   UNL     1      11.360  11.940  17.415  0.00  0.00    +0.000 A 
ATOM     36  C   UNL     1      11.743  11.571  18.696  0.00  0.00    +0.000 A 
ATOM     37  C   UNL     1      11.087  12.143  19.795  0.00  0.00    +0.000 A 
ATOM     38  F   UNL     1      11.477  11.800  21.033  0.00  0.00    +0.000 F 
ATOM     39  C   UNL     1      10.091  13.091  19.634  0.00  0.00    +0.000 A 
ENDBRANCH  23  33
ENDBRANCH   1  21
TORSDOF 4
ENDMDL
MODEL 9
REMARK VINA RESULT:      -8.6      8.006     11.368
REMARK  Name = 
REMARK  6 active torsions:
REMARK  status: ('A' for Active; 'I' for Inactive)
REMARK    1  A    between atoms: C_1  and  C_2
REMARK    2  A    between atoms: C_7  and  N_8
REMARK    3  A    between atoms: C_9  and  C_10
REMARK    4  A    between atoms: C_10  and  N_11
REMARK    5  A    between atoms: C_13  and  C_14
REMARK    6  A    between atoms: C_33  and  C_34
REMARK                            x       y       z     vdW  Elec       q    Type
REMARK                         _______ _______ _______ _____ _____    ______ ____
ROOT
ATOM      1  C   UNL     1       5.730  16.574  19.054  0.00  0.00    +0.000 C 
ENDROOT
BRANCH   1   3
ATOM      2  N   UNL     1       4.358  15.734  20.905  0.00  0.00    +0.000 N 
ATOM      3  C   UNL     1       5.207  16.789  20.468  0.00  0.00    +0.000 A 
ATOM      4  C   UNL     1       5.969  17.270  21.464  0.00  0.00    +0.000 A 
ATOM      5  C   UNL     1       6.932  16.221  21.830  0.00  0.00    +0.000 A 
ATOM      6  C   UNL     1       8.269  16.592  21.927  0.00  0.00    +0.000 A 
ATOM      7  C   UNL     1       9.207  15.631  22.238  0.00  0.00    +0.000 A 
ATOM      8  C   UNL     1       8.795  14.338  22.545  0.00  0.00    +0.000 A 
ATOM      9  C   UNL     1       7.433  13.940  22.500  0.00  0.00    +0.000 A 
ATOM     10  C   UNL     1       7.163  12.555  23.036  0.00  0.00    +0.000 C 
ATOM     11  C   UNL     1       6.483  14.886  22.044  0.00  0.00    +0.000 A 
ATOM     12  C   UNL     1       4.985  14.673  21.726  0.00  0.00    +0.000 A 
ATOM     13  O   UNL     1       4.428  13.669  22.179  0.00  0.00    +0.000 OA
BRANCH   2  20
ATOM     14  C   UNL     1       1.980  15.991  18.807  0.00  0.00    +0.000 C 
ATOM     15  C   UNL     1       1.947  15.555  20.257  0.00  0.00    +0.000 A 
ATOM     16  C   UNL     1       0.688  15.246  20.806  0.00  0.00    +0.000 A 
ATOM     17  C   UNL     1       0.328  15.796  22.031  0.00  0.00    +0.000 A 
ATOM     18  C   UNL     1       1.197  16.685  22.652  0.00  0.00    +0.000 A 
ATOM     19  C   UNL     1       2.517  16.791  22.193  0.00  0.00    +0.000 A 
ATOM     20  C   UNL     1       2.947  16.044  21.093  0.00  0.00    +0.000 A 
ENDBRANCH   2  20
ENDBRANCH   1   3
BRANCH   1  21
ATOM     21  N   UNL     1       7.123  16.168  18.779  0.00  0.00    +0.000 N 
ATOM     22  N   UNL     1       7.343  14.822  18.810  0.00  0.00    +0.000 NA
ATOM     23  C   UNL     1       8.597  14.661  18.370  0.00  0.00    +0.000 A 
ATOM     24  C   UNL     1       9.114  15.873  17.868  0.00  0.00    +0.000 A 
ATOM     25  C   UNL     1      10.275  16.291  17.195  0.00  0.00    +0.000 A 
ATOM     26  N   UNL     1      11.159  15.414  16.570  0.00  0.00    +0.000 N 
ATOM     27  N   UNL     1      10.563  17.592  17.174  0.00  0.00    +0.000 NA
ATOM     28  C   UNL     1       9.678  18.446  17.733  0.00  0.00    +0.000 A 
ATOM     29  N   UNL     1       8.446  18.182  18.237  0.00  0.00    +0.000 NA
ATOM     30  C   UNL     1       8.220  16.855  18.291  0.00  0.00    +0.000 A 
ATOM     31  H   UNL     1      10.734  14.572  16.193  0.00  0.00    +0.000 HD
ATOM     32  H   UNL     1      11.798  15.900  15.936  0.00  0.00    +0.000 HD
BRANCH  23  33
ATOM     33  C   UNL     1       9.299  13.399  18.602  0.00  0.00    +0.000 A 
ATOM     34  C   UNL     1       9.003  12.266  17.821  0.00  0.00    +0.000 A 
ATOM     35  C   UNL     1       9.824  11.137  17.852  0.00  0.00    +0.000 A 
ATOM     36  C   UNL     1      10.955  11.131  18.655  0.00  0.00    +0.000 A 
ATOM     37  C   UNL     1      11.223  12.244  19.464  0.00  0.00    +0.000 A 
ATOM     38  F   UNL     1      12.331  12.243  20.222  0.00  0.00    +0.000 F 
ATOM     39  C   UNL     1      10.406  13.361  19.455  0.00  0.00    +0.000 A 
ENDBRANCH  23  33
ENDBRANCH   1  21
TORSDOF 4
ENDMDL
