MODEL 1
REMARK VINA RESULT:      -7.6      0.000      0.000
REMARK  Name = 
REMARK  10 active torsions:
REMARK  status: ('A' for Active; 'I' for Inactive)
REMARK    1  A    between atoms: C_1  and  C_2
REMARK    2  A    between atoms: C_2  and  O_3
REMARK    3  A    between atoms: O_3  and  C_4
REMARK    4  A    between atoms: C_6  and  C_7
REMARK    5  A    between atoms: C_20  and  O_21
REMARK    6  A    between atoms: O_21  and  C_22
REMARK    7  A    between atoms: C_22  and  C_23
REMARK    8  A    between atoms: C_24  and  O_25
REMARK    9  A    between atoms: O_25  and  C_26
REMARK   10  A    between atoms: C_26  and  C_27
REMARK                            x       y       z     vdW  Elec       q    Type
REMARK                         _______ _______ _______ _____ _____    ______ ____
ROOT
ATOM      1  C   UNL     1       4.931   6.291  17.100  0.00  0.00    +0.000 A 
ATOM      2  C   UNL     1       4.109   6.992  17.998  0.00  0.00    +0.000 A 
ATOM      3  C   UNL     1       2.994   6.401  18.607  0.00  0.00    +0.000 A 
ATOM      4  C   UNL     1       2.624   5.135  18.160  0.00  0.00    +0.000 A 
ATOM      5  C   UNL     1       3.416   4.406  17.257  0.00  0.00    +0.000 A 
ATOM      6  C   UNL     1       4.603   4.954  16.740  0.00  0.00    +0.000 A 
ENDROOT
BRANCH   3   7
ATOM      7  C   UNL     1       2.218   7.132  19.657  0.00  0.00    +0.000 C 
ATOM      8  O   UNL     1       2.023   6.523  20.706  0.00  0.00    +0.000 OA
ATOM      9  N   UNL     1       1.701   8.422  19.428  0.00  0.00    +0.000 N 
ATOM     10  C   UNL     1       1.082   9.141  20.544  0.00  0.00    +0.000 C 
ATOM     11  C   UNL     1      -0.294   9.688  20.173  0.00  0.00    +0.000 C 
ATOM     12  C   UNL     1      -0.243  10.520  18.893  0.00  0.00    +0.000 C 
ATOM     13  C   UNL     1       0.406   9.725  17.770  0.00  0.00    +0.000 C 
ATOM     14  C   UNL     1       1.765   9.189  18.181  0.00  0.00    +0.000 C 
ATOM     15  O   UNL     1       0.496  11.731  19.136  0.00  0.00    +0.000 OA
ATOM     16  C   UNL     1      -0.304  12.771  18.579  0.00  0.00    +0.000 C 
ATOM     17  C   UNL     1      -1.709  12.256  18.715  0.00  0.00    +0.000 C 
ATOM     18  O   UNL     1      -1.579  10.857  18.478  0.00  0.00    +0.000 OA
ENDBRANCH   3   7
BRANCH   1  19
ATOM     19  O   UNL     1       6.052   6.919  16.586  0.00  0.00    +0.000 OA
BRANCH  19  21
ATOM     20  C   UNL     1       7.850   8.146  17.663  0.00  0.00    +0.000 C 
ATOM     21  C   UNL     1       7.240   6.779  17.397  0.00  0.00    +0.000 C 
ENDBRANCH  19  21
ENDBRANCH   1  19
BRANCH   5  22
ATOM     22  O   UNL     1       2.937   3.121  17.117  0.00  0.00    +0.000 OA
BRANCH  22  23
ATOM     23  C   UNL     1       3.273   2.203  18.158  0.00  0.00    +0.000 C 
ATOM     24  C   UNL     1       2.026   1.898  18.977  0.00  0.00    +0.000 C 
ENDBRANCH  22  23
ENDBRANCH   5  22
BRANCH   6  25
ATOM     25  O   UNL     1       5.396   4.109  15.996  0.00  0.00    +0.000 OA
BRANCH  25  26
ATOM     26  C   UNL     1       5.400   4.343  14.588  0.00  0.00    +0.000 C 
ATOM     27  C   UNL     1       6.798   4.609  14.054  0.00  0.00    +0.000 C 
ENDBRANCH  25  26
ENDBRANCH   6  25
TORSDOF 7
ENDMDL
MODEL 2
REMARK VINA RESULT:      -7.4      0.785      3.344
REMARK  Name = 
REMARK  10 active torsions:
REMARK  status: ('A' for Active; 'I' for Inactive)
REMARK    1  A    between atoms: C_1  and  C_2
REMARK    2  A    between atoms: C_2  and  O_3
REMARK    3  A    between atoms: O_3  and  C_4
REMARK    4  A    between atoms: C_6  and  C_7
REMARK    5  A    between atoms: C_20  and  O_21
REMARK    6  A    between atoms: O_21  and  C_22
REMARK    7  A    between atoms: C_22  and  C_23
REMARK    8  A    between atoms: C_24  and  O_25
REMARK    9  A    between atoms: O_25  and  C_26
REMARK   10  A    between atoms: C_26  and  C_27
REMARK                            x       y       z     vdW  Elec       q    Type
REMARK                         _______ _______ _______ _____ _____    ______ ____
ROOT
ATOM      1  C   UNL     1       3.203   4.148  17.553  0.00  0.00    +0.000 A 
ATOM      2  C   UNL     1       2.447   4.875  18.486  0.00  0.00    +0.000 A 
ATOM      3  C   UNL     1       2.971   5.977  19.175  0.00  0.00    +0.000 A 
ATOM      4  C   UNL     1       4.333   6.228  19.029  0.00  0.00    +0.000 A 
ATOM      5  C   UNL     1       5.124   5.516  18.111  0.00  0.00    +0.000 A 
ATOM      6  C   UNL     1       4.567   4.490  17.328  0.00  0.00    +0.000 A 
ENDROOT
BRANCH   3   7
ATOM      7  C   UNL     1       2.101   6.809  20.064  0.00  0.00    +0.000 C 
ATOM      8  O   UNL     1       1.636   6.241  21.049  0.00  0.00    +0.000 OA
ATOM      9  N   UNL     1       1.796   8.148  19.754  0.00  0.00    +0.000 N 
ATOM     10  C   UNL     1       1.064   8.950  20.738  0.00  0.00    +0.000 C 
ATOM     11  C   UNL     1      -0.140   9.653  20.115  0.00  0.00    +0.000 C 
ATOM     12  C   UNL     1       0.256  10.457  18.878  0.00  0.00    +0.000 C 
ATOM     13  C   UNL     1       1.009   9.576  17.892  0.00  0.00    +0.000 C 
ATOM     14  C   UNL     1       2.189   8.887  18.551  0.00  0.00    +0.000 C 
ATOM     15  O   UNL     1       1.073  11.574  19.272  0.00  0.00    +0.000 OA
ATOM     16  C   UNL     1       0.526  12.695  18.583  0.00  0.00    +0.000 C 
ATOM     17  C   UNL     1      -0.931  12.353  18.441  0.00  0.00    +0.000 C 
ATOM     18  O   UNL     1      -0.926  10.945  18.218  0.00  0.00    +0.000 OA
ENDBRANCH   3   7
BRANCH   1  19
ATOM     19  O   UNL     1       2.600   3.111  16.863  0.00  0.00    +0.000 OA
BRANCH  19  21
ATOM     20  C   UNL     1       3.464   1.391  18.344  0.00  0.00    +0.000 C 
ATOM     21  C   UNL     1       2.228   1.982  17.685  0.00  0.00    +0.000 C 
ENDBRANCH  19  21
ENDBRANCH   1  19
BRANCH   5  22
ATOM     22  O   UNL     1       6.383   6.072  18.020  0.00  0.00    +0.000 OA
BRANCH  22  23
ATOM     23  C   UNL     1       6.491   7.271  17.254  0.00  0.00    +0.000 C 
ATOM     24  C   UNL     1       7.772   7.997  17.642  0.00  0.00    +0.000 C 
ENDBRANCH  22  23
ENDBRANCH   5  22
BRANCH   6  25
ATOM     25  O   UNL     1       5.371   3.963  16.343  0.00  0.00    +0.000 OA
BRANCH  25  26
ATOM     26  C   UNL     1       5.271   4.587  15.063  0.00  0.00    +0.000 C 
ATOM     27  C   UNL     1       6.175   3.931  14.032  0.00  0.00    +0.000 C 
ENDBRANCH  25  26
ENDBRANCH   6  25
TORSDOF 7
ENDMDL
MODEL 3
REMARK VINA RESULT:      -7.2      2.002      4.287
REMARK  Name = 
REMARK  10 active torsions:
REMARK  status: ('A' for Active; 'I' for Inactive)
REMARK    1  A    between atoms: C_1  and  C_2
REMARK    2  A    between atoms: C_2  and  O_3
REMARK    3  A    between atoms: O_3  and  C_4
REMARK    4  A    between atoms: C_6  and  C_7
REMARK    5  A    between atoms: C_20  and  O_21
REMARK    6  A    between atoms: O_21  and  C_22
REMARK    7  A    between atoms: C_22  and  C_23
REMARK    8  A    between atoms: C_24  and  O_25
REMARK    9  A    between atoms: O_25  and  C_26
REMARK   10  A    between atoms: C_26  and  C_27
REMARK                            x       y       z     vdW  Elec       q    Type
REMARK                         _______ _______ _______ _____ _____    ______ ____
ROOT
ATOM      1  C   UNL     1       2.752   5.632  19.925  0.00  0.00    +0.000 A 
ATOM      2  C   UNL     1       2.161   6.881  19.676  0.00  0.00    +0.000 A 
ATOM      3  C   UNL     1       2.515   7.668  18.571  0.00  0.00    +0.000 A 
ATOM      4  C   UNL     1       3.603   7.245  17.814  0.00  0.00    +0.000 A 
ATOM      5  C   UNL     1       4.226   6.005  18.037  0.00  0.00    +0.000 A 
ATOM      6  C   UNL     1       3.789   5.159  19.071  0.00  0.00    +0.000 A 
ENDROOT
BRANCH   3   7
ATOM      7  C   UNL     1       1.774   8.932  18.263  0.00  0.00    +0.000 C 
ATOM      8  O   UNL     1       1.967   9.412  17.148  0.00  0.00    +0.000 OA
ATOM      9  N   UNL     1       0.946   9.553  19.217  0.00  0.00    +0.000 N 
ATOM     10  C   UNL     1       0.134  10.700  18.804  0.00  0.00    +0.000 C 
ATOM     11  C   UNL     1       0.303  11.885  19.752  0.00  0.00    +0.000 C 
ATOM     12  C   UNL     1       0.058  11.484  21.205  0.00  0.00    +0.000 C 
ATOM     13  C   UNL     1       0.926  10.292  21.579  0.00  0.00    +0.000 C 
ATOM     14  C   UNL     1       0.739   9.141  20.608  0.00  0.00    +0.000 C 
ATOM     15  O   UNL     1      -1.333  11.162  21.387  0.00  0.00    +0.000 OA
ATOM     16  C   UNL     1      -1.722  11.853  22.570  0.00  0.00    +0.000 C 
ATOM     17  C   UNL     1      -0.828  13.061  22.591  0.00  0.00    +0.000 C 
ATOM     18  O   UNL     1       0.409  12.573  22.077  0.00  0.00    +0.000 OA
ENDBRANCH   3   7
BRANCH   1  19
ATOM     19  O   UNL     1       2.308   4.881  20.999  0.00  0.00    +0.000 OA
BRANCH  19  21
ATOM     20  C   UNL     1       1.416   2.653  21.372  0.00  0.00    +0.000 C 
ATOM     21  C   UNL     1       1.205   3.998  20.696  0.00  0.00    +0.000 C 
ENDBRANCH  19  21
ENDBRANCH   1  19
BRANCH   5  22
ATOM     22  O   UNL     1       5.146   5.737  17.046  0.00  0.00    +0.000 OA
BRANCH  22  23
ATOM     23  C   UNL     1       6.272   6.612  16.974  0.00  0.00    +0.000 C 
ATOM     24  C   UNL     1       7.352   6.116  17.925  0.00  0.00    +0.000 C 
ENDBRANCH  22  23
ENDBRANCH   5  22
BRANCH   6  25
ATOM     25  O   UNL     1       4.343   3.900  19.111  0.00  0.00    +0.000 OA
BRANCH  25  26
ATOM     26  C   UNL     1       4.157   3.104  17.941  0.00  0.00    +0.000 C 
ATOM     27  C   UNL     1       2.732   2.588  17.818  0.00  0.00    +0.000 C 
ENDBRANCH  25  26
ENDBRANCH   6  25
TORSDOF 7
ENDMDL
MODEL 4
REMARK VINA RESULT:      -7.1      2.060      3.203
REMARK  Name = 
REMARK  10 active torsions:
REMARK  status: ('A' for Active; 'I' for Inactive)
REMARK    1  A    between atoms: C_1  and  C_2
REMARK    2  A    between atoms: C_2  and  O_3
REMARK    3  A    between atoms: O_3  and  C_4
REMARK    4  A    between atoms: C_6  and  C_7
REMARK    5  A    between atoms: C_20  and  O_21
REMARK    6  A    between atoms: O_21  and  C_22
REMARK    7  A    between atoms: C_22  and  C_23
REMARK    8  A    between atoms: C_24  and  O_25
REMARK    9  A    between atoms: O_25  and  C_26
REMARK   10  A    between atoms: C_26  and  C_27
REMARK                            x       y       z     vdW  Elec       q    Type
REMARK                         _______ _______ _______ _____ _____    ______ ____
ROOT
ATOM      1  C   UNL     1       4.592   6.147  18.027  0.00  0.00    +0.000 A 
ATOM      2  C   UNL     1       3.802   7.264  17.709  0.00  0.00    +0.000 A 
ATOM      3  C   UNL     1       2.646   7.590  18.430  0.00  0.00    +0.000 A 
ATOM      4  C   UNL     1       2.206   6.667  19.375  0.00  0.00    +0.000 A 
ATOM      5  C   UNL     1       2.965   5.533  19.714  0.00  0.00    +0.000 A 
ATOM      6  C   UNL     1       4.189   5.272  19.075  0.00  0.00    +0.000 A 
ENDROOT
BRANCH   3   7
ATOM      7  C   UNL     1       1.900   8.857  18.150  0.00  0.00    +0.000 C 
ATOM      8  O   UNL     1       2.097   9.366  17.049  0.00  0.00    +0.000 OA
ATOM      9  N   UNL     1       1.066   9.450  19.115  0.00  0.00    +0.000 N 
ATOM     10  C   UNL     1       0.251  10.604  18.728  0.00  0.00    +0.000 C 
ATOM     11  C   UNL     1       0.410  11.766  19.706  0.00  0.00    +0.000 C 
ATOM     12  C   UNL     1       0.160  11.327  21.147  0.00  0.00    +0.000 C 
ATOM     13  C   UNL     1       1.032  10.130  21.495  0.00  0.00    +0.000 C 
ATOM     14  C   UNL     1       0.854   9.003  20.495  0.00  0.00    +0.000 C 
ATOM     15  O   UNL     1      -1.230  10.994  21.314  0.00  0.00    +0.000 OA
ATOM     16  C   UNL     1      -1.628  11.654  22.513  0.00  0.00    +0.000 C 
ATOM     17  C   UNL     1      -0.739  12.865  22.568  0.00  0.00    +0.000 C 
ATOM     18  O   UNL     1       0.501  12.396  22.048  0.00  0.00    +0.000 OA
ENDBRANCH   3   7
BRANCH   1  19
ATOM     19  O   UNL     1       5.756   5.923  17.312  0.00  0.00    +0.000 OA
BRANCH  19  21
ATOM     20  C   UNL     1       7.791   6.844  18.265  0.00  0.00    +0.000 C 
ATOM     21  C   UNL     1       6.660   7.050  17.271  0.00  0.00    +0.000 C 
ENDBRANCH  19  21
ENDBRANCH   1  19
BRANCH   5  22
ATOM     22  O   UNL     1       2.411   4.883  20.797  0.00  0.00    +0.000 OA
BRANCH  22  23
ATOM     23  C   UNL     1       1.054   4.464  20.658  0.00  0.00    +0.000 C 
ATOM     24  C   UNL     1       1.021   3.086  20.011  0.00  0.00    +0.000 C 
ENDBRANCH  22  23
ENDBRANCH   5  22
BRANCH   6  25
ATOM     25  O   UNL     1       4.940   4.238  19.585  0.00  0.00    +0.000 OA
BRANCH  25  26
ATOM     26  C   UNL     1       4.569   2.930  19.149  0.00  0.00    +0.000 C 
ATOM     27  C   UNL     1       4.561   1.925  20.290  0.00  0.00    +0.000 C 
ENDBRANCH  25  26
ENDBRANCH   6  25
TORSDOF 7
ENDMDL
MODEL 5
REMARK VINA RESULT:      -7.1      2.059      3.255
REMARK  Name = 
REMARK  10 active torsions:
REMARK  status: ('A' for Active; 'I' for Inactive)
REMARK    1  A    between atoms: C_1  and  C_2
REMARK    2  A    between atoms: C_2  and  O_3
REMARK    3  A    between atoms: O_3  and  C_4
REMARK    4  A    between atoms: C_6  and  C_7
REMARK    5  A    between atoms: C_20  and  O_21
REMARK    6  A    between atoms: O_21  and  C_22
REMARK    7  A    between atoms: C_22  and  C_23
REMARK    8  A    between atoms: C_24  and  O_25
REMARK    9  A    between atoms: O_25  and  C_26
REMARK   10  A    between atoms: C_26  and  C_27
REMARK                            x       y       z     vdW  Elec       q    Type
REMARK                         _______ _______ _______ _____ _____    ______ ____
ROOT
ATOM      1  C   UNL     1       4.539   6.137  17.920  0.00  0.00    +0.000 A 
ATOM      2  C   UNL     1       3.723   7.242  17.631  0.00  0.00    +0.000 A 
ATOM      3  C   UNL     1       2.609   7.573  18.413  0.00  0.00    +0.000 A 
ATOM      4  C   UNL     1       2.234   6.665  19.399  0.00  0.00    +0.000 A 
ATOM      5  C   UNL     1       3.020   5.543  19.712  0.00  0.00    +0.000 A 
ATOM      6  C   UNL     1       4.207   5.278  19.006  0.00  0.00    +0.000 A 
ENDROOT
BRANCH   3   7
ATOM      7  C   UNL     1       1.838   8.830  18.156  0.00  0.00    +0.000 C 
ATOM      8  O   UNL     1       1.995   9.341  17.049  0.00  0.00    +0.000 OA
ATOM      9  N   UNL     1       1.026   9.413  19.146  0.00  0.00    +0.000 N 
ATOM     10  C   UNL     1       0.183  10.555  18.784  0.00  0.00    +0.000 C 
ATOM     11  C   UNL     1       0.356  11.720  19.756  0.00  0.00    +0.000 C 
ATOM     12  C   UNL     1       0.156  11.278  21.204  0.00  0.00    +0.000 C 
ATOM     13  C   UNL     1       1.055  10.093  21.526  0.00  0.00    +0.000 C 
ATOM     14  C   UNL     1       0.862   8.963  20.531  0.00  0.00    +0.000 C 
ATOM     15  O   UNL     1      -1.224  10.926  21.414  0.00  0.00    +0.000 OA
ATOM     16  C   UNL     1      -1.594  11.582  22.624  0.00  0.00    +0.000 C 
ATOM     17  C   UNL     1      -0.720  12.805  22.652  0.00  0.00    +0.000 C 
ATOM     18  O   UNL     1       0.510  12.352  22.094  0.00  0.00    +0.000 OA
ENDBRANCH   3   7
BRANCH   1  19
ATOM     19  O   UNL     1       5.660   5.908  17.141  0.00  0.00    +0.000 OA
BRANCH  19  21
ATOM     20  C   UNL     1       6.392   4.186  15.592  0.00  0.00    +0.000 C 
ATOM     21  C   UNL     1       5.384   5.292  15.863  0.00  0.00    +0.000 C 
ENDBRANCH  19  21
ENDBRANCH   1  19
BRANCH   5  22
ATOM     22  O   UNL     1       2.537   4.909  20.838  0.00  0.00    +0.000 OA
BRANCH  22  23
ATOM     23  C   UNL     1       1.365   4.114  20.663  0.00  0.00    +0.000 C 
ATOM     24  C   UNL     1       1.473   2.867  21.530  0.00  0.00    +0.000 C 
ENDBRANCH  22  23
ENDBRANCH   5  22
BRANCH   6  25
ATOM     25  O   UNL     1       4.995   4.259  19.489  0.00  0.00    +0.000 OA
BRANCH  25  26
ATOM     26  C   UNL     1       4.457   2.943  19.352  0.00  0.00    +0.000 C 
ATOM     27  C   UNL     1       3.832   2.717  17.985  0.00  0.00    +0.000 C 
ENDBRANCH  25  26
ENDBRANCH   6  25
TORSDOF 7
ENDMDL
MODEL 6
REMARK VINA RESULT:      -6.8      2.199      8.274
REMARK  Name = 
REMARK  10 active torsions:
REMARK  status: ('A' for Active; 'I' for Inactive)
REMARK    1  A    between atoms: C_1  and  C_2
REMARK    2  A    between atoms: C_2  and  O_3
REMARK    3  A    between atoms: O_3  and  C_4
REMARK    4  A    between atoms: C_6  and  C_7
REMARK    5  A    between atoms: C_20  and  O_21
REMARK    6  A    between atoms: O_21  and  C_22
REMARK    7  A    between atoms: C_22  and  C_23
REMARK    8  A    between atoms: C_24  and  O_25
REMARK    9  A    between atoms: O_25  and  C_26
REMARK   10  A    between atoms: C_26  and  C_27
REMARK                            x       y       z     vdW  Elec       q    Type
REMARK                         _______ _______ _______ _____ _____    ______ ____
ROOT
ATOM      1  C   UNL     1       0.715  10.151  20.568  0.00  0.00    +0.000 A 
ATOM      2  C   UNL     1       1.613   9.273  19.940  0.00  0.00    +0.000 A 
ATOM      3  C   UNL     1       1.528   8.968  18.575  0.00  0.00    +0.000 A 
ATOM      4  C   UNL     1       0.410   9.436  17.889  0.00  0.00    +0.000 A 
ATOM      5  C   UNL     1      -0.515  10.309  18.486  0.00  0.00    +0.000 A 
ATOM      6  C   UNL     1      -0.360  10.714  19.823  0.00  0.00    +0.000 A 
ENDROOT
BRANCH   3   7
ATOM      7  C   UNL     1       2.578   8.134  17.910  0.00  0.00    +0.000 C 
ATOM      8  O   UNL     1       3.082   8.610  16.896  0.00  0.00    +0.000 OA
ATOM      9  N   UNL     1       2.923   6.859  18.396  0.00  0.00    +0.000 N 
ATOM     10  C   UNL     1       4.060   6.159  17.792  0.00  0.00    +0.000 C 
ATOM     11  C   UNL     1       3.699   4.731  17.390  0.00  0.00    +0.000 C 
ATOM     12  C   UNL     1       3.084   3.957  18.555  0.00  0.00    +0.000 C 
ATOM     13  C   UNL     1       1.910   4.727  19.142  0.00  0.00    +0.000 C 
ATOM     14  C   UNL     1       2.305   6.143  19.516  0.00  0.00    +0.000 C 
ATOM     15  O   UNL     1       4.084   3.732  19.564  0.00  0.00    +0.000 OA
ATOM     16  C   UNL     1       3.964   2.353  19.905  0.00  0.00    +0.000 C 
ATOM     17  C   UNL     1       3.469   1.713  18.638  0.00  0.00    +0.000 C 
ATOM     18  O   UNL     1       2.589   2.689  18.089  0.00  0.00    +0.000 OA
ENDBRANCH   3   7
BRANCH   1  19
ATOM     19  O   UNL     1       0.898  10.455  21.906  0.00  0.00    +0.000 OA
BRANCH  19  21
ATOM     20  C   UNL     1      -1.085  10.381  23.307  0.00  0.00    +0.000 C 
ATOM     21  C   UNL     1       0.141   9.627  22.817  0.00  0.00    +0.000 C 
ENDBRANCH  19  21
ENDBRANCH   1  19
BRANCH   5  22
ATOM     22  O   UNL     1      -1.419  10.772  17.553  0.00  0.00    +0.000 OA
BRANCH  22  23
ATOM     23  C   UNL     1      -2.337   9.812  17.030  0.00  0.00    +0.000 C 
ATOM     24  C   UNL     1      -3.514  10.540  16.396  0.00  0.00    +0.000 C 
ENDBRANCH  22  23
ENDBRANCH   5  22
BRANCH   6  25
ATOM     25  O   UNL     1      -1.215  11.695  20.271  0.00  0.00    +0.000 OA
BRANCH  25  26
ATOM     26  C   UNL     1      -0.725  13.032  20.177  0.00  0.00    +0.000 C 
ATOM     27  C   UNL     1      -0.730  13.742  21.522  0.00  0.00    +0.000 C 
ENDBRANCH  25  26
ENDBRANCH   6  25
TORSDOF 7
ENDMDL
MODEL 7
REMARK VINA RESULT:      -6.7      2.285      8.297
REMARK  Name = 
REMARK  10 active torsions:
REMARK  status: ('A' for Active; 'I' for Inactive)
REMARK    1  A    between atoms: C_1  and  C_2
REMARK    2  A    between atoms: C_2  and  O_3
REMARK    3  A    between atoms: O_3  and  C_4
REMARK    4  A    between atoms: C_6  and  C_7
REMARK    5  A    between atoms: C_20  and  O_21
REMARK    6  A    between atoms: O_21  and  C_22
REMARK    7  A    between atoms: C_22  and  C_23
REMARK    8  A    between atoms: C_24  and  O_25
REMARK    9  A    between atoms: O_25  and  C_26
REMARK   10  A    between atoms: C_26  and  C_27
REMARK                            x       y       z     vdW  Elec       q    Type
REMARK                         _______ _______ _______ _____ _____    ______ ____
ROOT
ATOM      1  C   UNL     1      -0.568  10.447  18.459  0.00  0.00    +0.000 A 
ATOM      2  C   UNL     1       0.438   9.685  17.843  0.00  0.00    +0.000 A 
ATOM      3  C   UNL     1       1.537   9.184  18.554  0.00  0.00    +0.000 A 
ATOM      4  C   UNL     1       1.690   9.613  19.869  0.00  0.00    +0.000 A 
ATOM      5  C   UNL     1       0.710  10.384  20.518  0.00  0.00    +0.000 A 
ATOM      6  C   UNL     1      -0.454  10.783  19.839  0.00  0.00    +0.000 A 
ENDROOT
BRANCH   3   7
ATOM      7  C   UNL     1       2.520   8.267  17.896  0.00  0.00    +0.000 C 
ATOM      8  O   UNL     1       2.999   8.661  16.835  0.00  0.00    +0.000 OA
ATOM      9  N   UNL     1       2.832   7.008  18.442  0.00  0.00    +0.000 N 
ATOM     10  C   UNL     1       3.910   6.224  17.833  0.00  0.00    +0.000 C 
ATOM     11  C   UNL     1       3.471   4.793  17.531  0.00  0.00    +0.000 C 
ATOM     12  C   UNL     1       2.875   4.115  18.763  0.00  0.00    +0.000 C 
ATOM     13  C   UNL     1       1.762   4.970  19.352  0.00  0.00    +0.000 C 
ATOM     14  C   UNL     1       2.233   6.386  19.626  0.00  0.00    +0.000 C 
ATOM     15  O   UNL     1       3.908   3.903  19.742  0.00  0.00    +0.000 OA
ATOM     16  C   UNL     1       3.744   2.553  20.168  0.00  0.00    +0.000 C 
ATOM     17  C   UNL     1       3.167   1.864  18.962  0.00  0.00    +0.000 C 
ATOM     18  O   UNL     1       2.306   2.847  18.394  0.00  0.00    +0.000 OA
ENDBRANCH   3   7
BRANCH   1  19
ATOM     19  O   UNL     1      -1.657  10.855  17.709  0.00  0.00    +0.000 OA
BRANCH  19  21
ATOM     20  C   UNL     1      -2.923   9.836  15.904  0.00  0.00    +0.000 C 
ATOM     21  C   UNL     1      -2.590   9.799  17.387  0.00  0.00    +0.000 C 
ENDBRANCH  19  21
ENDBRANCH   1  19
BRANCH   5  22
ATOM     22  O   UNL     1       1.006  10.520  21.858  0.00  0.00    +0.000 OA
BRANCH  22  23
ATOM     23  C   UNL     1       0.815   9.361  22.669  0.00  0.00    +0.000 C 
ATOM     24  C   UNL     1      -0.522   9.469  23.388  0.00  0.00    +0.000 C 
ENDBRANCH  22  23
ENDBRANCH   5  22
BRANCH   6  25
ATOM     25  O   UNL     1      -1.430  11.389  20.596  0.00  0.00    +0.000 OA
BRANCH  25  26
ATOM     26  C   UNL     1      -1.477  12.813  20.521  0.00  0.00    +0.000 C 
ATOM     27  C   UNL     1      -2.189  13.428  21.715  0.00  0.00    +0.000 C 
ENDBRANCH  25  26
ENDBRANCH   6  25
TORSDOF 7
ENDMDL
MODEL 8
REMARK VINA RESULT:      -6.6      1.247      3.390
REMARK  Name = 
REMARK  10 active torsions:
REMARK  status: ('A' for Active; 'I' for Inactive)
REMARK    1  A    between atoms: C_1  and  C_2
REMARK    2  A    between atoms: C_2  and  O_3
REMARK    3  A    between atoms: O_3  and  C_4
REMARK    4  A    between atoms: C_6  and  C_7
REMARK    5  A    between atoms: C_20  and  O_21
REMARK    6  A    between atoms: O_21  and  C_22
REMARK    7  A    between atoms: C_22  and  C_23
REMARK    8  A    between atoms: C_24  and  O_25
REMARK    9  A    between atoms: O_25  and  C_26
REMARK   10  A    between atoms: C_26  and  C_27
REMARK                            x       y       z     vdW  Elec       q    Type
REMARK                         _______ _______ _______ _____ _____    ______ ____
ROOT
ATOM      1  C   UNL     1       2.432   4.201  18.080  0.00  0.00    +0.000 A 
ATOM      2  C   UNL     1       1.785   5.083  18.960  0.00  0.00    +0.000 A 
ATOM      3  C   UNL     1       2.444   6.174  19.543  0.00  0.00    +0.000 A 
ATOM      4  C   UNL     1       3.821   6.258  19.353  0.00  0.00    +0.000 A 
ATOM      5  C   UNL     1       4.505   5.389  18.487  0.00  0.00    +0.000 A 
ATOM      6  C   UNL     1       3.819   4.369  17.805  0.00  0.00    +0.000 A 
ENDROOT
BRANCH   3   7
ATOM      7  C   UNL     1       1.693   7.169  20.372  0.00  0.00    +0.000 C 
ATOM      8  O   UNL     1       1.222   6.747  21.426  0.00  0.00    +0.000 OA
ATOM      9  N   UNL     1       1.499   8.493  19.936  0.00  0.00    +0.000 N 
ATOM     10  C   UNL     1       0.887   9.454  20.857  0.00  0.00    +0.000 C 
ATOM     11  C   UNL     1      -0.273  10.204  20.208  0.00  0.00    +0.000 C 
ATOM     12  C   UNL     1       0.139  10.841  18.883  0.00  0.00    +0.000 C 
ATOM     13  C   UNL     1       0.764   9.799  17.966  0.00  0.00    +0.000 C 
ATOM     14  C   UNL     1       1.904   9.069  18.651  0.00  0.00    +0.000 C 
ATOM     15  O   UNL     1       1.072  11.908  19.131  0.00  0.00    +0.000 OA
ATOM     16  C   UNL     1       0.599  13.002  18.350  0.00  0.00    +0.000 C 
ATOM     17  C   UNL     1      -0.888  12.788  18.294  0.00  0.00    +0.000 C 
ATOM     18  O   UNL     1      -1.021  11.372  18.216  0.00  0.00    +0.000 OA
ENDBRANCH   3   7
BRANCH   1  19
ATOM     19  O   UNL     1       1.701   3.183  17.492  0.00  0.00    +0.000 OA
BRANCH  19  21
ATOM     20  C   UNL     1       1.922   1.719  19.417  0.00  0.00    +0.000 C 
ATOM     21  C   UNL     1       0.966   2.359  18.425  0.00  0.00    +0.000 C 
ENDBRANCH  19  21
ENDBRANCH   1  19
BRANCH   5  22
ATOM     22  O   UNL     1       5.814   5.791  18.327  0.00  0.00    +0.000 OA
BRANCH  22  23
ATOM     23  C   UNL     1       6.698   5.515  19.413  0.00  0.00    +0.000 C 
ATOM     24  C   UNL     1       8.135   5.703  18.947  0.00  0.00    +0.000 C 
ENDBRANCH  22  23
ENDBRANCH   5  22
BRANCH   6  25
ATOM     25  O   UNL     1       4.534   3.676  16.855  0.00  0.00    +0.000 OA
BRANCH  25  26
ATOM     26  C   UNL     1       4.872   4.408  15.678  0.00  0.00    +0.000 C 
ATOM     27  C   UNL     1       6.144   3.891  15.025  0.00  0.00    +0.000 C 
ENDBRANCH  25  26
ENDBRANCH   6  25
TORSDOF 7
ENDMDL
MODEL 9
REMARK VINA RESULT:      -6.5      0.876      1.020
REMARK  Name = 
REMARK  10 active torsions:
REMARK  status: ('A' for Active; 'I' for Inactive)
REMARK    1  A    between atoms: C_1  and  C_2
REMARK    2  A    between atoms: C_2  and  O_3
REMARK    3  A    between atoms: O_3  and  C_4
REMARK    4  A    between atoms: C_6  and  C_7
REMARK    5  A    between atoms: C_20  and  O_21
REMARK    6  A    between atoms: O_21  and  C_22
REMARK    7  A    between atoms: C_22  and  C_23
REMARK    8  A    between atoms: C_24  and  O_25
REMARK    9  A    between atoms: O_25  and  C_26
REMARK   10  A    between atoms: C_26  and  C_27
REMARK                            x       y       z     vdW  Elec       q    Type
REMARK                         _______ _______ _______ _____ _____    ______ ____
ROOT
ATOM      1  C   UNL     1       5.141   6.838  17.042  0.00  0.00    +0.000 A 
ATOM      2  C   UNL     1       4.242   7.335  17.999  0.00  0.00    +0.000 A 
ATOM      3  C   UNL     1       3.191   6.562  18.509  0.00  0.00    +0.000 A 
ATOM      4  C   UNL     1       2.960   5.329  17.906  0.00  0.00    +0.000 A 
ATOM      5  C   UNL     1       3.832   4.801  16.938  0.00  0.00    +0.000 A 
ATOM      6  C   UNL     1       4.959   5.527  16.516  0.00  0.00    +0.000 A 
ENDROOT
BRANCH   3   7
ATOM      7  C   UNL     1       2.332   7.076  19.622  0.00  0.00    +0.000 C 
ATOM      8  O   UNL     1       2.135   6.300  20.554  0.00  0.00    +0.000 OA
ATOM      9  N   UNL     1       1.748   8.356  19.571  0.00  0.00    +0.000 N 
ATOM     10  C   UNL     1       1.044   8.856  20.755  0.00  0.00    +0.000 C 
ATOM     11  C   UNL     1      -0.348   9.379  20.410  0.00  0.00    +0.000 C 
ATOM     12  C   UNL     1      -0.299  10.404  19.278  0.00  0.00    +0.000 C 
ATOM     13  C   UNL     1       0.439   9.832  18.076  0.00  0.00    +0.000 C 
ATOM     14  C   UNL     1       1.811   9.312  18.463  0.00  0.00    +0.000 C 
ATOM     15  O   UNL     1       0.355  11.600  19.740  0.00  0.00    +0.000 OA
ATOM     16  C   UNL     1      -0.485  12.669  19.314  0.00  0.00    +0.000 C 
ATOM     17  C   UNL     1      -1.861  12.064  19.303  0.00  0.00    +0.000 C 
ATOM     18  O   UNL     1      -1.637  10.729  18.858  0.00  0.00    +0.000 OA
ENDBRANCH   3   7
BRANCH   1  19
ATOM     19  O   UNL     1       6.195   7.636  16.631  0.00  0.00    +0.000 OA
BRANCH  19  21
ATOM     20  C   UNL     1       7.923   8.891  17.787  0.00  0.00    +0.000 C 
ATOM     21  C   UNL     1       7.388   7.512  17.436  0.00  0.00    +0.000 C 
ENDBRANCH  19  21
ENDBRANCH   1  19
BRANCH   5  22
ATOM     22  O   UNL     1       3.492   3.499  16.636  0.00  0.00    +0.000 OA
BRANCH  22  23
ATOM     23  C   UNL     1       2.653   2.829  17.576  0.00  0.00    +0.000 C 
ATOM     24  C   UNL     1       3.433   1.689  18.217  0.00  0.00    +0.000 C 
ENDBRANCH  22  23
ENDBRANCH   5  22
BRANCH   6  25
ATOM     25  O   UNL     1       5.843   4.866  15.694  0.00  0.00    +0.000 OA
BRANCH  25  26
ATOM     26  C   UNL     1       6.664   3.886  16.329  0.00  0.00    +0.000 C 
ATOM     27  C   UNL     1       7.452   4.463  17.494  0.00  0.00    +0.000 C 
ENDBRANCH  25  26
ENDBRANCH   6  25
TORSDOF 7
ENDMDL
