MODEL 1
REMARK VINA RESULT:      -7.6      0.000      0.000
REMARK  Name = 
REMARK  13 active torsions:
REMARK  status: ('A' for Active; 'I' for Inactive)
REMARK    1  A    between atoms: C_1  and  O_2
REMARK    2  A    between atoms: O_2  and  C_3
REMARK    3  A    between atoms: C_6  and  O_7
REMARK    4  A    between atoms: O_7  and  C_8
REMARK    5  A    between atoms: C_9  and  C_10
REMARK    6  A    between atoms: C_10  and  C_12
REMARK    7  A    between atoms: C_12  and  S_13
REMARK    8  A    between atoms: S_13  and  C_14
REMARK    9  A    between atoms: C_17  and  C_18
REMARK   10  A    between atoms: C_21  and  O_22
REMARK   11  A    between atoms: O_22  and  C_23
REMARK   12  A    between atoms: C_24  and  O_25
REMARK   13  A    between atoms: O_25  and  C_26
REMARK                            x       y       z     vdW  Elec       q    Type
REMARK                         _______ _______ _______ _____ _____    ______ ____
ROOT
ATOM      1  C   UNL     1       7.741   7.130  18.170  0.00  0.00    +0.000 A 
ATOM      2  N   UNL     1       7.169   7.807  17.198  0.00  0.00    +0.000 NA
ATOM      3  N   UNL     1       7.671   9.092  17.261  0.00  0.00    +0.000 NA
ATOM      4  C   UNL     1       8.517   9.111  18.271  0.00  0.00    +0.000 A 
ATOM      5  O   UNL     1       8.626   7.896  18.888  0.00  0.00    +0.000 OA
ENDROOT
BRANCH   4   6
ATOM      6  C   UNL     1       9.272  10.225  18.839  0.00  0.00    +0.000 A 
ATOM      7  C   UNL     1       9.228  10.535  20.200  0.00  0.00    +0.000 A 
ATOM      8  C   UNL     1       9.923  11.643  20.688  0.00  0.00    +0.000 A 
ATOM      9  C   UNL     1      10.672  12.470  19.838  0.00  0.00    +0.000 A 
ATOM     10  C   UNL     1      10.732  12.168  18.466  0.00  0.00    +0.000 A 
ATOM     11  C   UNL     1      10.042  11.040  17.990  0.00  0.00    +0.000 A 
BRANCH   9  12
ATOM     12  O   UNL     1      11.259  13.506  20.517  0.00  0.00    +0.000 OA
ATOM     13  C   UNL     1      10.437  14.512  21.088  0.00  0.00    +0.000 C 
ENDBRANCH   9  12
BRANCH  10  14
ATOM     14  O   UNL     1      11.450  12.997  17.648  0.00  0.00    +0.000 OA
ATOM     15  C   UNL     1      10.838  14.194  17.183  0.00  0.00    +0.000 C 
ENDBRANCH  10  14
ENDBRANCH   4   6
BRANCH   1  16
ATOM     16  S   UNL     1       7.451   5.472  18.555  0.00  0.00    +0.000 S 
BRANCH  16  17
ATOM     17  C   UNL     1       6.848   4.809  16.957  0.00  0.00    +0.000 C 
BRANCH  17  18
ATOM     18  C   UNL     1       5.397   4.374  17.103  0.00  0.00    +0.000 C 
ATOM     19  O   UNL     1       4.959   3.359  16.551  0.00  0.00    +0.000 OA
BRANCH  18  24
ATOM     20  C   UNL     1       3.178   7.269  18.073  0.00  0.00    +0.000 A 
ATOM     21  C   UNL     1       2.641   6.860  19.286  0.00  0.00    +0.000 A 
ATOM     22  C   UNL     1       2.979   5.617  19.828  0.00  0.00    +0.000 A 
ATOM     23  C   UNL     1       3.890   4.765  19.179  0.00  0.00    +0.000 A 
ATOM     24  C   UNL     1       4.423   5.159  17.942  0.00  0.00    +0.000 A 
ATOM     25  C   UNL     1       4.047   6.414  17.402  0.00  0.00    +0.000 A 
BRANCH  20  27
ATOM     26  C   UNL     1       1.421   8.853  17.855  0.00  0.00    +0.000 C 
ATOM     27  O   UNL     1       2.787   8.509  17.656  0.00  0.00    +0.000 OA
ENDBRANCH  20  27
BRANCH  23  28
ATOM     28  O   UNL     1       4.248   3.550  19.703  0.00  0.00    +0.000 OA
ATOM     29  C   UNL     1       3.177   2.656  20.014  0.00  0.00    +0.000 C 
ENDBRANCH  23  28
ENDBRANCH  18  24
ENDBRANCH  17  18
ENDBRANCH  16  17
ENDBRANCH   1  16
TORSDOF 9
ENDMDL
MODEL 2
REMARK VINA RESULT:      -7.3      1.527      2.929
REMARK  Name = 
REMARK  13 active torsions:
REMARK  status: ('A' for Active; 'I' for Inactive)
REMARK    1  A    between atoms: C_1  and  O_2
REMARK    2  A    between atoms: O_2  and  C_3
REMARK    3  A    between atoms: C_6  and  O_7
REMARK    4  A    between atoms: O_7  and  C_8
REMARK    5  A    between atoms: C_9  and  C_10
REMARK    6  A    between atoms: C_10  and  C_12
REMARK    7  A    between atoms: C_12  and  S_13
REMARK    8  A    between atoms: S_13  and  C_14
REMARK    9  A    between atoms: C_17  and  C_18
REMARK   10  A    between atoms: C_21  and  O_22
REMARK   11  A    between atoms: O_22  and  C_23
REMARK   12  A    between atoms: C_24  and  O_25
REMARK   13  A    between atoms: O_25  and  C_26
REMARK                            x       y       z     vdW  Elec       q    Type
REMARK                         _______ _______ _______ _____ _____    ______ ____
ROOT
ATOM      1  C   UNL     1       7.732   7.137  18.035  0.00  0.00    +0.000 A 
ATOM      2  N   UNL     1       7.099   7.863  17.139  0.00  0.00    +0.000 NA
ATOM      3  N   UNL     1       7.589   9.150  17.255  0.00  0.00    +0.000 NA
ATOM      4  C   UNL     1       8.490   9.119  18.216  0.00  0.00    +0.000 A 
ATOM      5  O   UNL     1       8.647   7.870  18.750  0.00  0.00    +0.000 OA
ENDROOT
BRANCH   4   6
ATOM      6  C   UNL     1       9.262  10.207  18.811  0.00  0.00    +0.000 A 
ATOM      7  C   UNL     1       9.169  10.530  20.167  0.00  0.00    +0.000 A 
ATOM      8  C   UNL     1       9.885  11.613  20.679  0.00  0.00    +0.000 A 
ATOM      9  C   UNL     1      10.703  12.404  19.857  0.00  0.00    +0.000 A 
ATOM     10  C   UNL     1      10.813  12.089  18.492  0.00  0.00    +0.000 A 
ATOM     11  C   UNL     1      10.101  10.984  17.992  0.00  0.00    +0.000 A 
BRANCH   9  12
ATOM     12  O   UNL     1      11.299  13.421  20.556  0.00  0.00    +0.000 OA
ATOM     13  C   UNL     1      10.612  14.654  20.704  0.00  0.00    +0.000 C 
ENDBRANCH   9  12
BRANCH  10  14
ATOM     14  O   UNL     1      11.599  12.882  17.702  0.00  0.00    +0.000 OA
ATOM     15  C   UNL     1      10.994  13.971  17.014  0.00  0.00    +0.000 C 
ENDBRANCH  10  14
ENDBRANCH   4   6
BRANCH   1  16
ATOM     16  S   UNL     1       7.483   5.454  18.331  0.00  0.00    +0.000 S 
BRANCH  16  17
ATOM     17  C   UNL     1       6.048   5.476  19.470  0.00  0.00    +0.000 C 
BRANCH  17  18
ATOM     18  C   UNL     1       4.759   5.552  18.663  0.00  0.00    +0.000 C 
ATOM     19  O   UNL     1       4.352   6.613  18.178  0.00  0.00    +0.000 OA
BRANCH  18  24
ATOM     20  C   UNL     1       2.495   2.645  19.480  0.00  0.00    +0.000 A 
ATOM     21  C   UNL     1       2.313   2.034  18.248  0.00  0.00    +0.000 A 
ATOM     22  C   UNL     1       2.918   2.554  17.101  0.00  0.00    +0.000 A 
ATOM     23  C   UNL     1       3.748   3.687  17.168  0.00  0.00    +0.000 A 
ATOM     24  C   UNL     1       3.922   4.326  18.406  0.00  0.00    +0.000 A 
ATOM     25  C   UNL     1       3.279   3.793  19.550  0.00  0.00    +0.000 A 
BRANCH  20  27
ATOM     26  C   UNL     1       1.337   2.880  21.542  0.00  0.00    +0.000 C 
ATOM     27  O   UNL     1       1.867   2.034  20.528  0.00  0.00    +0.000 OA
ENDBRANCH  20  27
BRANCH  23  28
ATOM     28  O   UNL     1       4.365   4.203  16.059  0.00  0.00    +0.000 OA
ATOM     29  C   UNL     1       5.616   3.610  15.700  0.00  0.00    +0.000 C 
ENDBRANCH  23  28
ENDBRANCH  18  24
ENDBRANCH  17  18
ENDBRANCH  16  17
ENDBRANCH   1  16
TORSDOF 9
ENDMDL
MODEL 3
REMARK VINA RESULT:      -7.1      1.144      2.789
REMARK  Name = 
REMARK  13 active torsions:
REMARK  status: ('A' for Active; 'I' for Inactive)
REMARK    1  A    between atoms: C_1  and  O_2
REMARK    2  A    between atoms: O_2  and  C_3
REMARK    3  A    between atoms: C_6  and  O_7
REMARK    4  A    between atoms: O_7  and  C_8
REMARK    5  A    between atoms: C_9  and  C_10
REMARK    6  A    between atoms: C_10  and  C_12
REMARK    7  A    between atoms: C_12  and  S_13
REMARK    8  A    between atoms: S_13  and  C_14
REMARK    9  A    between atoms: C_17  and  C_18
REMARK   10  A    between atoms: C_21  and  O_22
REMARK   11  A    between atoms: O_22  and  C_23
REMARK   12  A    between atoms: C_24  and  O_25
REMARK   13  A    between atoms: O_25  and  C_26
REMARK                            x       y       z     vdW  Elec       q    Type
REMARK                         _______ _______ _______ _____ _____    ______ ____
ROOT
ATOM      1  C   UNL     1       7.744   7.245  18.107  0.00  0.00    +0.000 A 
ATOM      2  N   UNL     1       7.125   7.857  17.121  0.00  0.00    +0.000 NA
ATOM      3  N   UNL     1       7.541   9.175  17.150  0.00  0.00    +0.000 NA
ATOM      4  C   UNL     1       8.388   9.275  18.155  0.00  0.00    +0.000 A 
ATOM      5  O   UNL     1       8.579   8.086  18.802  0.00  0.00    +0.000 OA
ENDROOT
BRANCH   4   6
ATOM      6  C   UNL     1       9.069  10.450  18.692  0.00  0.00    +0.000 A 
ATOM      7  C   UNL     1       9.784  10.412  19.891  0.00  0.00    +0.000 A 
ATOM      8  C   UNL     1      10.372  11.574  20.393  0.00  0.00    +0.000 A 
ATOM      9  C   UNL     1      10.260  12.799  19.720  0.00  0.00    +0.000 A 
ATOM     10  C   UNL     1       9.550  12.854  18.508  0.00  0.00    +0.000 A 
ATOM     11  C   UNL     1       8.977  11.673  18.005  0.00  0.00    +0.000 A 
BRANCH   9  12
ATOM     12  O   UNL     1      10.895  13.812  20.391  0.00  0.00    +0.000 OA
ATOM     13  C   UNL     1      10.185  14.536  21.384  0.00  0.00    +0.000 C 
ENDBRANCH   9  12
BRANCH  10  14
ATOM     14  O   UNL     1       9.433  14.063  17.876  0.00  0.00    +0.000 OA
ATOM     15  C   UNL     1       8.188  14.748  17.940  0.00  0.00    +0.000 C 
ENDBRANCH  10  14
ENDBRANCH   4   6
BRANCH   1  16
ATOM     16  S   UNL     1       7.565   5.582  18.535  0.00  0.00    +0.000 S 
BRANCH  16  17
ATOM     17  C   UNL     1       7.170   4.813  16.920  0.00  0.00    +0.000 C 
BRANCH  17  18
ATOM     18  C   UNL     1       5.665   4.857  16.691  0.00  0.00    +0.000 C 
ATOM     19  O   UNL     1       5.175   4.852  15.557  0.00  0.00    +0.000 OA
BRANCH  18  24
ATOM     20  C   UNL     1       3.794   3.593  19.716  0.00  0.00    +0.000 A 
ATOM     21  C   UNL     1       2.978   4.665  20.050  0.00  0.00    +0.000 A 
ATOM     22  C   UNL     1       3.015   5.845  19.302  0.00  0.00    +0.000 A 
ATOM     23  C   UNL     1       3.853   5.968  18.179  0.00  0.00    +0.000 A 
ATOM     24  C   UNL     1       4.698   4.898  17.845  0.00  0.00    +0.000 A 
ATOM     25  C   UNL     1       4.659   3.721  18.632  0.00  0.00    +0.000 A 
BRANCH  20  27
ATOM     26  C   UNL     1       4.772   1.613  20.593  0.00  0.00    +0.000 C 
ATOM     27  O   UNL     1       3.655   2.490  20.510  0.00  0.00    +0.000 OA
ENDBRANCH  20  27
BRANCH  23  28
ATOM     28  O   UNL     1       3.891   7.109  17.422  0.00  0.00    +0.000 OA
ATOM     29  C   UNL     1       2.937   8.120  17.756  0.00  0.00    +0.000 C 
ENDBRANCH  23  28
ENDBRANCH  18  24
ENDBRANCH  17  18
ENDBRANCH  16  17
ENDBRANCH   1  16
TORSDOF 9
ENDMDL
MODEL 4
REMARK VINA RESULT:      -7.1      5.018      8.639
REMARK  Name = 
REMARK  13 active torsions:
REMARK  status: ('A' for Active; 'I' for Inactive)
REMARK    1  A    between atoms: C_1  and  O_2
REMARK    2  A    between atoms: O_2  and  C_3
REMARK    3  A    between atoms: C_6  and  O_7
REMARK    4  A    between atoms: O_7  and  C_8
REMARK    5  A    between atoms: C_9  and  C_10
REMARK    6  A    between atoms: C_10  and  C_12
REMARK    7  A    between atoms: C_12  and  S_13
REMARK    8  A    between atoms: S_13  and  C_14
REMARK    9  A    between atoms: C_17  and  C_18
REMARK   10  A    between atoms: C_21  and  O_22
REMARK   11  A    between atoms: O_22  and  C_23
REMARK   12  A    between atoms: C_24  and  O_25
REMARK   13  A    between atoms: O_25  and  C_26
REMARK                            x       y       z     vdW  Elec       q    Type
REMARK                         _______ _______ _______ _____ _____    ______ ____
ROOT
ATOM      1  C   UNL     1       2.151   7.766  18.944  0.00  0.00    +0.000 A 
ATOM      2  N   UNL     1       2.497   8.282  17.785  0.00  0.00    +0.000 NA
ATOM      3  N   UNL     1       1.743   9.428  17.621  0.00  0.00    +0.000 NA
ATOM      4  C   UNL     1       0.987   9.532  18.695  0.00  0.00    +0.000 A 
ATOM      5  O   UNL     1       1.201   8.519  19.588  0.00  0.00    +0.000 OA
ENDROOT
BRANCH   4   6
ATOM      6  C   UNL     1      -0.055  10.504  19.016  0.00  0.00    +0.000 A 
ATOM      7  C   UNL     1      -0.020  11.273  20.182  0.00  0.00    +0.000 A 
ATOM      8  C   UNL     1      -1.066  12.149  20.474  0.00  0.00    +0.000 A 
ATOM      9  C   UNL     1      -2.173  12.277  19.621  0.00  0.00    +0.000 A 
ATOM     10  C   UNL     1      -2.222  11.514  18.442  0.00  0.00    +0.000 A 
ATOM     11  C   UNL     1      -1.153  10.649  18.150  0.00  0.00    +0.000 A 
BRANCH   9  12
ATOM     12  O   UNL     1      -3.089  13.176  20.102  0.00  0.00    +0.000 OA
ATOM     13  C   UNL     1      -3.833  12.849  21.266  0.00  0.00    +0.000 C 
ENDBRANCH   9  12
BRANCH  10  14
ATOM     14  O   UNL     1      -3.318  11.636  17.632  0.00  0.00    +0.000 OA
ATOM     15  C   UNL     1      -4.424  10.768  17.848  0.00  0.00    +0.000 C 
ENDBRANCH  10  14
ENDBRANCH   4   6
BRANCH   1  16
ATOM     16  S   UNL     1       2.776   6.309  19.629  0.00  0.00    +0.000 S 
BRANCH  16  17
ATOM     17  C   UNL     1       2.781   5.180  18.186  0.00  0.00    +0.000 C 
BRANCH  17  18
ATOM     18  C   UNL     1       3.990   4.257  18.267  0.00  0.00    +0.000 C 
ATOM     19  O   UNL     1       4.096   3.393  19.144  0.00  0.00    +0.000 OA
BRANCH  18  24
ATOM     20  C   UNL     1       5.649   4.251  14.877  0.00  0.00    +0.000 A 
ATOM     21  C   UNL     1       6.988   4.453  15.183  0.00  0.00    +0.000 A 
ATOM     22  C   UNL     1       7.397   4.608  16.510  0.00  0.00    +0.000 A 
ATOM     23  C   UNL     1       6.474   4.532  17.568  0.00  0.00    +0.000 A 
ATOM     24  C   UNL     1       5.114   4.349  17.269  0.00  0.00    +0.000 A 
ATOM     25  C   UNL     1       4.721   4.218  15.914  0.00  0.00    +0.000 A 
BRANCH  20  27
ATOM     26  C   UNL     1       6.458   3.706  12.710  0.00  0.00    +0.000 C 
ATOM     27  O   UNL     1       5.376   4.096  13.548  0.00  0.00    +0.000 OA
ENDBRANCH  20  27
BRANCH  23  28
ATOM     28  O   UNL     1       6.856   4.663  18.877  0.00  0.00    +0.000 OA
ATOM     29  C   UNL     1       7.675   5.793  19.186  0.00  0.00    +0.000 C 
ENDBRANCH  23  28
ENDBRANCH  18  24
ENDBRANCH  17  18
ENDBRANCH  16  17
ENDBRANCH   1  16
TORSDOF 9
ENDMDL
MODEL 5
REMARK VINA RESULT:      -7.0      1.327      1.587
REMARK  Name = 
REMARK  13 active torsions:
REMARK  status: ('A' for Active; 'I' for Inactive)
REMARK    1  A    between atoms: C_1  and  O_2
REMARK    2  A    between atoms: O_2  and  C_3
REMARK    3  A    between atoms: C_6  and  O_7
REMARK    4  A    between atoms: O_7  and  C_8
REMARK    5  A    between atoms: C_9  and  C_10
REMARK    6  A    between atoms: C_10  and  C_12
REMARK    7  A    between atoms: C_12  and  S_13
REMARK    8  A    between atoms: S_13  and  C_14
REMARK    9  A    between atoms: C_17  and  C_18
REMARK   10  A    between atoms: C_21  and  O_22
REMARK   11  A    between atoms: O_22  and  C_23
REMARK   12  A    between atoms: C_24  and  O_25
REMARK   13  A    between atoms: O_25  and  C_26
REMARK                            x       y       z     vdW  Elec       q    Type
REMARK                         _______ _______ _______ _____ _____    ______ ____
ROOT
ATOM      1  C   UNL     1       7.625   6.945  18.161  0.00  0.00    +0.000 A 
ATOM      2  N   UNL     1       7.393   7.460  16.974  0.00  0.00    +0.000 NA
ATOM      3  N   UNL     1       7.959   8.720  16.972  0.00  0.00    +0.000 NA
ATOM      4  C   UNL     1       8.500   8.886  18.162  0.00  0.00    +0.000 A 
ATOM      5  O   UNL     1       8.341   7.794  18.968  0.00  0.00    +0.000 OA
ENDROOT
BRANCH   4   6
ATOM      6  C   UNL     1       9.159  10.056  18.736  0.00  0.00    +0.000 A 
ATOM      7  C   UNL     1       9.269  10.246  20.116  0.00  0.00    +0.000 A 
ATOM      8  C   UNL     1       9.858  11.406  20.618  0.00  0.00    +0.000 A 
ATOM      9  C   UNL     1      10.346  12.408  19.765  0.00  0.00    +0.000 A 
ATOM     10  C   UNL     1      10.249  12.231  18.374  0.00  0.00    +0.000 A 
ATOM     11  C   UNL     1       9.669  11.049  17.880  0.00  0.00    +0.000 A 
BRANCH   9  12
ATOM     12  O   UNL     1      10.868  13.466  20.463  0.00  0.00    +0.000 OA
ATOM     13  C   UNL     1      10.017  14.541  20.828  0.00  0.00    +0.000 C 
ENDBRANCH   9  12
BRANCH  10  14
ATOM     14  O   UNL     1      10.711  13.227  17.557  0.00  0.00    +0.000 OA
ATOM     15  C   UNL     1      12.061  13.171  17.111  0.00  0.00    +0.000 C 
ENDBRANCH  10  14
ENDBRANCH   4   6
BRANCH   1  16
ATOM     16  S   UNL     1       7.111   5.388  18.706  0.00  0.00    +0.000 S 
BRANCH  16  17
ATOM     17  C   UNL     1       6.061   4.825  17.314  0.00  0.00    +0.000 C 
BRANCH  17  18
ATOM     18  C   UNL     1       4.729   5.562  17.353  0.00  0.00    +0.000 C 
ATOM     19  O   UNL     1       4.478   6.503  16.592  0.00  0.00    +0.000 OA
BRANCH  18  24
ATOM     20  C   UNL     1       2.176   6.007  20.096  0.00  0.00    +0.000 A 
ATOM     21  C   UNL     1       1.636   4.736  20.231  0.00  0.00    +0.000 A 
ATOM     22  C   UNL     1       2.081   3.686  19.423  0.00  0.00    +0.000 A 
ATOM     23  C   UNL     1       3.104   3.880  18.478  0.00  0.00    +0.000 A 
ATOM     24  C   UNL     1       3.643   5.167  18.319  0.00  0.00    +0.000 A 
ATOM     25  C   UNL     1       3.158   6.220  19.134  0.00  0.00    +0.000 A 
BRANCH  20  27
ATOM     26  C   UNL     1       1.423   8.238  20.417  0.00  0.00    +0.000 C 
ATOM     27  O   UNL     1       1.672   6.944  20.953  0.00  0.00    +0.000 OA
ENDBRANCH  20  27
BRANCH  23  28
ATOM     28  O   UNL     1       3.568   2.861  17.690  0.00  0.00    +0.000 OA
ATOM     29  C   UNL     1       3.636   1.570  18.301  0.00  0.00    +0.000 C 
ENDBRANCH  23  28
ENDBRANCH  18  24
ENDBRANCH  17  18
ENDBRANCH  16  17
ENDBRANCH   1  16
TORSDOF 9
ENDMDL
MODEL 6
REMARK VINA RESULT:      -7.0      5.828      9.853
REMARK  Name = 
REMARK  13 active torsions:
REMARK  status: ('A' for Active; 'I' for Inactive)
REMARK    1  A    between atoms: C_1  and  O_2
REMARK    2  A    between atoms: O_2  and  C_3
REMARK    3  A    between atoms: C_6  and  O_7
REMARK    4  A    between atoms: O_7  and  C_8
REMARK    5  A    between atoms: C_9  and  C_10
REMARK    6  A    between atoms: C_10  and  C_12
REMARK    7  A    between atoms: C_12  and  S_13
REMARK    8  A    between atoms: S_13  and  C_14
REMARK    9  A    between atoms: C_17  and  C_18
REMARK   10  A    between atoms: C_21  and  O_22
REMARK   11  A    between atoms: O_22  and  C_23
REMARK   12  A    between atoms: C_24  and  O_25
REMARK   13  A    between atoms: O_25  and  C_26
REMARK                            x       y       z     vdW  Elec       q    Type
REMARK                         _______ _______ _______ _____ _____    ______ ____
ROOT
ATOM      1  C   UNL     1       1.585   8.363  19.908  0.00  0.00    +0.000 A 
ATOM      2  N   UNL     1       1.469   9.154  18.863  0.00  0.00    +0.000 NA
ATOM      3  N   UNL     1       2.160   8.549  17.831  0.00  0.00    +0.000 NA
ATOM      4  C   UNL     1       2.650   7.427  18.319  0.00  0.00    +0.000 A 
ATOM      5  O   UNL     1       2.314   7.233  19.629  0.00  0.00    +0.000 OA
ENDROOT
BRANCH   4   6
ATOM      6  C   UNL     1       3.525   6.438  17.695  0.00  0.00    +0.000 A 
ATOM      7  C   UNL     1       4.579   6.803  16.854  0.00  0.00    +0.000 A 
ATOM      8  C   UNL     1       5.354   5.820  16.236  0.00  0.00    +0.000 A 
ATOM      9  C   UNL     1       5.097   4.455  16.434  0.00  0.00    +0.000 A 
ATOM     10  C   UNL     1       4.045   4.070  17.282  0.00  0.00    +0.000 A 
ATOM     11  C   UNL     1       3.283   5.070  17.912  0.00  0.00    +0.000 A 
BRANCH   9  12
ATOM     12  O   UNL     1       5.962   3.663  15.724  0.00  0.00    +0.000 OA
ATOM     13  C   UNL     1       6.197   3.949  14.355  0.00  0.00    +0.000 C 
ENDBRANCH   9  12
BRANCH  10  14
ATOM     14  O   UNL     1       3.796   2.735  17.448  0.00  0.00    +0.000 OA
ATOM     15  C   UNL     1       3.391   2.271  18.730  0.00  0.00    +0.000 C 
ENDBRANCH  10  14
ENDBRANCH   4   6
BRANCH   1  16
ATOM     16  S   UNL     1       0.925   8.658  21.476  0.00  0.00    +0.000 S 
BRANCH  16  17
ATOM     17  C   UNL     1      -0.013  10.209  21.210  0.00  0.00    +0.000 C 
BRANCH  17  18
ATOM     18  C   UNL     1      -0.417  10.796  22.556  0.00  0.00    +0.000 C 
ATOM     19  O   UNL     1      -0.141  10.237  23.623  0.00  0.00    +0.000 OA
BRANCH  18  24
ATOM     20  C   UNL     1      -3.381  13.082  23.034  0.00  0.00    +0.000 A 
ATOM     21  C   UNL     1      -2.832  14.346  22.865  0.00  0.00    +0.000 A 
ATOM     22  C   UNL     1      -1.469  14.498  22.597  0.00  0.00    +0.000 A 
ATOM     23  C   UNL     1      -0.627  13.380  22.460  0.00  0.00    +0.000 A 
ATOM     24  C   UNL     1      -1.167  12.098  22.650  0.00  0.00    +0.000 A 
ATOM     25  C   UNL     1      -2.547  11.972  22.944  0.00  0.00    +0.000 A 
BRANCH  20  27
ATOM     26  C   UNL     1      -5.326  14.289  23.673  0.00  0.00    +0.000 C 
ATOM     27  O   UNL     1      -4.726  13.062  23.274  0.00  0.00    +0.000 OA
ENDBRANCH  20  27
BRANCH  23  28
ATOM     28  O   UNL     1       0.708  13.506  22.180  0.00  0.00    +0.000 OA
ATOM     29  C   UNL     1       1.037  13.927  20.853  0.00  0.00    +0.000 C 
ENDBRANCH  23  28
ENDBRANCH  18  24
ENDBRANCH  17  18
ENDBRANCH  16  17
ENDBRANCH   1  16
TORSDOF 9
ENDMDL
MODEL 7
REMARK VINA RESULT:      -6.9      5.216      7.731
REMARK  Name = 
REMARK  13 active torsions:
REMARK  status: ('A' for Active; 'I' for Inactive)
REMARK    1  A    between atoms: C_1  and  O_2
REMARK    2  A    between atoms: O_2  and  C_3
REMARK    3  A    between atoms: C_6  and  O_7
REMARK    4  A    between atoms: O_7  and  C_8
REMARK    5  A    between atoms: C_9  and  C_10
REMARK    6  A    between atoms: C_10  and  C_12
REMARK    7  A    between atoms: C_12  and  S_13
REMARK    8  A    between atoms: S_13  and  C_14
REMARK    9  A    between atoms: C_17  and  C_18
REMARK   10  A    between atoms: C_21  and  O_22
REMARK   11  A    between atoms: O_22  and  C_23
REMARK   12  A    between atoms: C_24  and  O_25
REMARK   13  A    between atoms: O_25  and  C_26
REMARK                            x       y       z     vdW  Elec       q    Type
REMARK                         _______ _______ _______ _____ _____    ______ ____
ROOT
ATOM      1  C   UNL     1       2.177   5.875  20.047  0.00  0.00    +0.000 A 
ATOM      2  N   UNL     1       2.637   6.562  19.025  0.00  0.00    +0.000 NA
ATOM      3  N   UNL     1       2.280   7.879  19.240  0.00  0.00    +0.000 NA
ATOM      4  C   UNL     1       1.624   7.904  20.382  0.00  0.00    +0.000 A 
ATOM      5  O   UNL     1       1.531   6.670  20.962  0.00  0.00    +0.000 OA
ENDROOT
BRANCH   4   6
ATOM      6  C   UNL     1       0.952   9.014  21.051  0.00  0.00    +0.000 A 
ATOM      7  C   UNL     1       0.471   8.913  22.359  0.00  0.00    +0.000 A 
ATOM      8  C   UNL     1      -0.214   9.982  22.938  0.00  0.00    +0.000 A 
ATOM      9  C   UNL     1      -0.444  11.172  22.231  0.00  0.00    +0.000 A 
ATOM     10  C   UNL     1       0.038  11.294  20.917  0.00  0.00    +0.000 A 
ATOM     11  C   UNL     1       0.743  10.216  20.351  0.00  0.00    +0.000 A 
BRANCH   9  12
ATOM     12  O   UNL     1      -1.146  12.083  22.977  0.00  0.00    +0.000 OA
ATOM     13  C   UNL     1      -2.550  11.929  23.114  0.00  0.00    +0.000 C 
ENDBRANCH   9  12
BRANCH  10  14
ATOM     14  O   UNL     1      -0.213  12.454  20.235  0.00  0.00    +0.000 OA
ATOM     15  C   UNL     1       0.873  13.331  19.960  0.00  0.00    +0.000 C 
ENDBRANCH  10  14
ENDBRANCH   4   6
BRANCH   1  16
ATOM     16  S   UNL     1       2.328   4.169  20.269  0.00  0.00    +0.000 S 
BRANCH  16  17
ATOM     17  C   UNL     1       4.062   3.870  19.760  0.00  0.00    +0.000 C 
BRANCH  17  18
ATOM     18  C   UNL     1       4.094   3.424  18.305  0.00  0.00    +0.000 C 
ATOM     19  O   UNL     1       3.296   2.595  17.856  0.00  0.00    +0.000 OA
BRANCH  18  24
ATOM     20  C   UNL     1       5.578   4.324  14.953  0.00  0.00    +0.000 A 
ATOM     21  C   UNL     1       6.784   4.922  15.295  0.00  0.00    +0.000 A 
ATOM     22  C   UNL     1       7.153   5.060  16.635  0.00  0.00    +0.000 A 
ATOM     23  C   UNL     1       6.332   4.573  17.668  0.00  0.00    +0.000 A 
ATOM     24  C   UNL     1       5.101   3.986  17.335  0.00  0.00    +0.000 A 
ATOM     25  C   UNL     1       4.739   3.878  15.970  0.00  0.00    +0.000 A 
BRANCH  20  27
ATOM     26  C   UNL     1       6.348   3.620  12.818  0.00  0.00    +0.000 C 
ATOM     27  O   UNL     1       5.338   4.231  13.612  0.00  0.00    +0.000 OA
ENDBRANCH  20  27
BRANCH  23  28
ATOM     28  O   UNL     1       6.684   4.682  18.988  0.00  0.00    +0.000 OA
ATOM     29  C   UNL     1       7.711   5.629  19.291  0.00  0.00    +0.000 C 
ENDBRANCH  23  28
ENDBRANCH  18  24
ENDBRANCH  17  18
ENDBRANCH  16  17
ENDBRANCH   1  16
TORSDOF 9
ENDMDL
MODEL 8
REMARK VINA RESULT:      -6.9      5.901      9.583
REMARK  Name = 
REMARK  13 active torsions:
REMARK  status: ('A' for Active; 'I' for Inactive)
REMARK    1  A    between atoms: C_1  and  O_2
REMARK    2  A    between atoms: O_2  and  C_3
REMARK    3  A    between atoms: C_6  and  O_7
REMARK    4  A    between atoms: O_7  and  C_8
REMARK    5  A    between atoms: C_9  and  C_10
REMARK    6  A    between atoms: C_10  and  C_12
REMARK    7  A    between atoms: C_12  and  S_13
REMARK    8  A    between atoms: S_13  and  C_14
REMARK    9  A    between atoms: C_17  and  C_18
REMARK   10  A    between atoms: C_21  and  O_22
REMARK   11  A    between atoms: O_22  and  C_23
REMARK   12  A    between atoms: C_24  and  O_25
REMARK   13  A    between atoms: O_25  and  C_26
REMARK                            x       y       z     vdW  Elec       q    Type
REMARK                         _______ _______ _______ _____ _____    ______ ____
ROOT
ATOM      1  C   UNL     1       1.541  10.078  18.881  0.00  0.00    +0.000 A 
ATOM      2  N   UNL     1       1.829  10.100  17.598  0.00  0.00    +0.000 NA
ATOM      3  N   UNL     1       2.310   8.845  17.278  0.00  0.00    +0.000 NA
ATOM      4  C   UNL     1       2.282   8.142  18.392  0.00  0.00    +0.000 A 
ATOM      5  O   UNL     1       1.792   8.853  19.451  0.00  0.00    +0.000 OA
ENDROOT
BRANCH   4   6
ATOM      6  C   UNL     1       2.749   6.783  18.653  0.00  0.00    +0.000 A 
ATOM      7  C   UNL     1       2.303   6.041  19.749  0.00  0.00    +0.000 A 
ATOM      8  C   UNL     1       2.819   4.767  19.989  0.00  0.00    +0.000 A 
ATOM      9  C   UNL     1       3.793   4.203  19.152  0.00  0.00    +0.000 A 
ATOM     10  C   UNL     1       4.249   4.933  18.041  0.00  0.00    +0.000 A 
ATOM     11  C   UNL     1       3.708   6.208  17.800  0.00  0.00    +0.000 A 
BRANCH   9  12
ATOM     12  O   UNL     1       4.173   2.955  19.575  0.00  0.00    +0.000 OA
ATOM     13  C   UNL     1       3.658   1.813  18.910  0.00  0.00    +0.000 C 
ENDBRANCH   9  12
BRANCH  10  14
ATOM     14  O   UNL     1       5.215   4.376  17.247  0.00  0.00    +0.000 OA
ATOM     15  C   UNL     1       6.579   4.672  17.523  0.00  0.00    +0.000 C 
ENDBRANCH  10  14
ENDBRANCH   4   6
BRANCH   1  16
ATOM     16  S   UNL     1       0.924  11.401  19.803  0.00  0.00    +0.000 S 
BRANCH  16  17
ATOM     17  C   UNL     1      -0.816  10.897  20.076  0.00  0.00    +0.000 C 
BRANCH  17  18
ATOM     18  C   UNL     1      -1.748  11.943  19.480  0.00  0.00    +0.000 C 
ATOM     19  O   UNL     1      -1.709  13.129  19.826  0.00  0.00    +0.000 OA
BRANCH  18  24
ATOM     20  C   UNL     1      -3.017  10.703  16.149  0.00  0.00    +0.000 A 
ATOM     21  C   UNL     1      -4.394  10.836  16.269  0.00  0.00    +0.000 A 
ATOM     22  C   UNL     1      -4.959  11.329  17.449  0.00  0.00    +0.000 A 
ATOM     23  C   UNL     1      -4.152  11.731  18.528  0.00  0.00    +0.000 A 
ATOM     24  C   UNL     1      -2.760  11.581  18.425  0.00  0.00    +0.000 A 
ATOM     25  C   UNL     1      -2.213  11.057  17.228  0.00  0.00    +0.000 A 
BRANCH  20  27
ATOM     26  C   UNL     1      -3.557  10.115  13.911  0.00  0.00    +0.000 C 
ATOM     27  O   UNL     1      -2.585  10.227  14.944  0.00  0.00    +0.000 OA
ENDBRANCH  20  27
BRANCH  23  28
ATOM     28  O   UNL     1      -4.685  12.234  19.686  0.00  0.00    +0.000 OA
ATOM     29  C   UNL     1      -5.786  13.133  19.535  0.00  0.00    +0.000 C 
ENDBRANCH  23  28
ENDBRANCH  18  24
ENDBRANCH  17  18
ENDBRANCH  16  17
ENDBRANCH   1  16
TORSDOF 9
ENDMDL
MODEL 9
REMARK VINA RESULT:      -6.8      6.166      9.777
REMARK  Name = 
REMARK  13 active torsions:
REMARK  status: ('A' for Active; 'I' for Inactive)
REMARK    1  A    between atoms: C_1  and  O_2
REMARK    2  A    between atoms: O_2  and  C_3
REMARK    3  A    between atoms: C_6  and  O_7
REMARK    4  A    between atoms: O_7  and  C_8
REMARK    5  A    between atoms: C_9  and  C_10
REMARK    6  A    between atoms: C_10  and  C_12
REMARK    7  A    between atoms: C_12  and  S_13
REMARK    8  A    between atoms: S_13  and  C_14
REMARK    9  A    between atoms: C_17  and  C_18
REMARK   10  A    between atoms: C_21  and  O_22
REMARK   11  A    between atoms: O_22  and  C_23
REMARK   12  A    between atoms: C_24  and  O_25
REMARK   13  A    between atoms: O_25  and  C_26
REMARK                            x       y       z     vdW  Elec       q    Type
REMARK                         _______ _______ _______ _____ _____    ______ ____
ROOT
ATOM      1  C   UNL     1       1.515   9.780  18.975  0.00  0.00    +0.000 A 
ATOM      2  N   UNL     1       1.889   9.921  17.722  0.00  0.00    +0.000 NA
ATOM      3  N   UNL     1       2.405   8.703  17.324  0.00  0.00    +0.000 NA
ATOM      4  C   UNL     1       2.310   7.901  18.364  0.00  0.00    +0.000 A 
ATOM      5  O   UNL     1       1.741   8.511  19.447  0.00  0.00    +0.000 OA
ENDROOT
BRANCH   4   6
ATOM      6  C   UNL     1       2.774   6.527  18.533  0.00  0.00    +0.000 A 
ATOM      7  C   UNL     1       2.304   5.704  19.559  0.00  0.00    +0.000 A 
ATOM      8  C   UNL     1       2.818   4.415  19.714  0.00  0.00    +0.000 A 
ATOM      9  C   UNL     1       3.813   3.917  18.860  0.00  0.00    +0.000 A 
ATOM     10  C   UNL     1       4.293   4.729  17.818  0.00  0.00    +0.000 A 
ATOM     11  C   UNL     1       3.754   6.019  17.662  0.00  0.00    +0.000 A 
BRANCH   9  12
ATOM     12  O   UNL     1       4.185   2.641  19.197  0.00  0.00    +0.000 OA
ATOM     13  C   UNL     1       3.545   1.544  18.565  0.00  0.00    +0.000 C 
ENDBRANCH   9  12
BRANCH  10  14
ATOM     14  O   UNL     1       5.277   4.234  17.007  0.00  0.00    +0.000 OA
ATOM     15  C   UNL     1       5.363   4.712  15.670  0.00  0.00    +0.000 C 
ENDBRANCH  10  14
ENDBRANCH   4   6
BRANCH   1  16
ATOM     16  S   UNL     1       0.821  11.011  19.968  0.00  0.00    +0.000 S 
BRANCH  16  17
ATOM     17  C   UNL     1      -0.971  10.671  19.801  0.00  0.00    +0.000 C 
BRANCH  17  18
ATOM     18  C   UNL     1      -1.581  11.640  18.797  0.00  0.00    +0.000 C 
ATOM     19  O   UNL     1      -0.891  12.441  18.158  0.00  0.00    +0.000 OA
BRANCH  18  24
ATOM     20  C   UNL     1      -5.218  12.467  19.371  0.00  0.00    +0.000 A 
ATOM     21  C   UNL     1      -5.852  11.853  18.300  0.00  0.00    +0.000 A 
ATOM     22  C   UNL     1      -5.112  11.151  17.345  0.00  0.00    +0.000 A 
ATOM     23  C   UNL     1      -3.716  11.023  17.458  0.00  0.00    +0.000 A 
ATOM     24  C   UNL     1      -3.062  11.658  18.526  0.00  0.00    +0.000 A 
ATOM     25  C   UNL     1      -3.832  12.382  19.468  0.00  0.00    +0.000 A 
BRANCH  20  27
ATOM     26  C   UNL     1      -6.469  12.370  21.390  0.00  0.00    +0.000 C 
ATOM     27  O   UNL     1      -6.049  13.106  20.247  0.00  0.00    +0.000 OA
ENDBRANCH  20  27
BRANCH  23  28
ATOM     28  O   UNL     1      -2.974  10.324  16.542  0.00  0.00    +0.000 OA
ATOM     29  C   UNL     1      -3.136  10.708  15.174  0.00  0.00    +0.000 C 
ENDBRANCH  23  28
ENDBRANCH  18  24
ENDBRANCH  17  18
ENDBRANCH  16  17
ENDBRANCH   1  16
TORSDOF 9
ENDMDL
