MODEL 1
REMARK VINA RESULT:      -6.3      0.000      0.000
REMARK  Name = 
REMARK  12 active torsions:
REMARK  status: ('A' for Active; 'I' for Inactive)
REMARK    1  A    between atoms: C_2  and  C_3
REMARK    2  A    between atoms: C_3  and  S_4
REMARK    3  A    between atoms: S_4  and  C_5
REMARK    4  A    between atoms: C_7  and  C_8
REMARK    5  A    between atoms: C_9  and  C_10
REMARK    6  A    between atoms: C_10  and  C_11
REMARK    7  A    between atoms: C_11  and  O_13
REMARK    8  A    between atoms: O_13  and  C_14
REMARK    9  A    between atoms: C_14  and  C_15
REMARK   10  A    between atoms: C_15  and  C_16
REMARK   11  A    between atoms: C_15  and  C_17
REMARK   12  A    between atoms: C_18  and  O_19
REMARK                            x       y       z     vdW  Elec       q    Type
REMARK                         _______ _______ _______ _____ _____    ______ ____
ROOT
ATOM      1  C   UNL     1       5.044   4.097  17.568  0.00  0.00    +0.000 A 
ATOM      2  N   UNL     1       3.786   4.287  17.149  0.00  0.00    +0.000 NA
ATOM      3  C   UNL     1       2.789   3.732  17.871  0.00  0.00    +0.000 A 
ATOM      4  C   UNL     1       1.409   4.052  17.381  0.00  0.00    +0.000 C 
ATOM      5  C   UNL     1       3.024   2.950  18.997  0.00  0.00    +0.000 A 
ATOM      6  C   UNL     1       4.359   2.877  19.351  0.00  0.00    +0.000 A 
ATOM      7  N   UNL     1       5.375   3.417  18.670  0.00  0.00    +0.000 NA
ENDROOT
BRANCH   6   8
ATOM      8  O   UNL     1       4.739   2.244  20.500  0.00  0.00    +0.000 OA
ATOM      9  H   UNL     1       4.066   2.502  21.162  0.00  0.00    +0.000 HD
ENDBRANCH   6   8
BRANCH   1  10
ATOM     10  S   UNL     1       6.374   4.735  16.579  0.00  0.00    +0.000 S 
BRANCH  10  11
ATOM     11  C   UNL     1       7.637   4.915  17.869  0.00  0.00    +0.000 C 
BRANCH  11  13
ATOM     12  C   UNL     1       7.654   7.420  17.668  0.00  0.00    +0.000 C 
ATOM     13  C   UNL     1       7.599   6.312  18.420  0.00  0.00    +0.000 C 
ENDBRANCH  11  13
ENDBRANCH  10  11
ENDBRANCH   1  10
BRANCH   5  14
ATOM     14  C   UNL     1       1.909   2.320  19.796  0.00  0.00    +0.000 C 
BRANCH  14  15
ATOM     15  C   UNL     1       1.518   3.056  21.062  0.00  0.00    +0.000 C 
ATOM     16  O   UNL     1       1.577   2.594  22.197  0.00  0.00    +0.000 OA
BRANCH  15  17
ATOM     17  O   UNL     1       1.028   4.291  20.751  0.00  0.00    +0.000 OA
BRANCH  17  18
ATOM     18  C   UNL     1       1.910   5.392  21.033  0.00  0.00    +0.000 C 
BRANCH  18  19
ATOM     19  C   UNL     1       1.608   6.661  20.222  0.00  0.00    +0.000 C 
ATOM     20  C   UNL     1       1.316   7.859  21.124  0.00  0.00    +0.000 C 
ATOM     21  C   UNL     1       2.788   6.963  19.298  0.00  0.00    +0.000 C 
ENDBRANCH  18  19
ENDBRANCH  17  18
ENDBRANCH  15  17
ENDBRANCH  14  15
ENDBRANCH   5  14
TORSDOF 9
ENDMDL
MODEL 2
REMARK VINA RESULT:      -6.3      3.250      4.820
REMARK  Name = 
REMARK  12 active torsions:
REMARK  status: ('A' for Active; 'I' for Inactive)
REMARK    1  A    between atoms: C_2  and  C_3
REMARK    2  A    between atoms: C_3  and  S_4
REMARK    3  A    between atoms: S_4  and  C_5
REMARK    4  A    between atoms: C_7  and  C_8
REMARK    5  A    between atoms: C_9  and  C_10
REMARK    6  A    between atoms: C_10  and  C_11
REMARK    7  A    between atoms: C_11  and  O_13
REMARK    8  A    between atoms: O_13  and  C_14
REMARK    9  A    between atoms: C_14  and  C_15
REMARK   10  A    between atoms: C_15  and  C_16
REMARK   11  A    between atoms: C_15  and  C_17
REMARK   12  A    between atoms: C_18  and  O_19
REMARK                            x       y       z     vdW  Elec       q    Type
REMARK                         _______ _______ _______ _____ _____    ______ ____
ROOT
ATOM      1  C   UNL     1       6.557   4.800  14.819  0.00  0.00    +0.000 A 
ATOM      2  N   UNL     1       7.162   5.673  15.637  0.00  0.00    +0.000 NA
ATOM      3  C   UNL     1       6.574   5.939  16.823  0.00  0.00    +0.000 A 
ATOM      4  C   UNL     1       7.348   6.867  17.710  0.00  0.00    +0.000 C 
ATOM      5  C   UNL     1       5.361   5.375  17.201  0.00  0.00    +0.000 A 
ATOM      6  C   UNL     1       4.871   4.454  16.294  0.00  0.00    +0.000 A 
ATOM      7  N   UNL     1       5.424   4.155  15.114  0.00  0.00    +0.000 NA
ENDROOT
BRANCH   6   8
ATOM      8  O   UNL     1       3.750   3.728  16.576  0.00  0.00    +0.000 OA
ATOM      9  H   UNL     1       3.552   3.242  15.749  0.00  0.00    +0.000 HD
ENDBRANCH   6   8
BRANCH   1  10
ATOM     10  S   UNL     1       7.263   4.511  13.216  0.00  0.00    +0.000 S 
BRANCH  10  11
ATOM     11  C   UNL     1       6.016   3.375  12.549  0.00  0.00    +0.000 C 
BRANCH  11  13
ATOM     12  C   UNL     1       6.307   1.264  11.214  0.00  0.00    +0.000 C 
ATOM     13  C   UNL     1       6.624   2.545  11.454  0.00  0.00    +0.000 C 
ENDBRANCH  11  13
ENDBRANCH  10  11
ENDBRANCH   1  10
BRANCH   5  14
ATOM     14  C   UNL     1       4.698   5.683  18.523  0.00  0.00    +0.000 C 
BRANCH  14  15
ATOM     15  C   UNL     1       4.477   4.492  19.434  0.00  0.00    +0.000 C 
ATOM     16  O   UNL     1       5.153   3.469  19.437  0.00  0.00    +0.000 OA
BRANCH  15  17
ATOM     17  O   UNL     1       3.374   4.696  20.210  0.00  0.00    +0.000 OA
BRANCH  17  18
ATOM     18  C   UNL     1       2.125   4.763  19.499  0.00  0.00    +0.000 C 
BRANCH  18  19
ATOM     19  C   UNL     1       1.098   3.709  19.937  0.00  0.00    +0.000 C 
ATOM     20  C   UNL     1       0.950   2.591  18.905  0.00  0.00    +0.000 C 
ATOM     21  C   UNL     1       1.511   3.132  21.292  0.00  0.00    +0.000 C 
ENDBRANCH  18  19
ENDBRANCH  17  18
ENDBRANCH  15  17
ENDBRANCH  14  15
ENDBRANCH   5  14
TORSDOF 9
ENDMDL
MODEL 3
REMARK VINA RESULT:      -6.3      2.674      5.167
REMARK  Name = 
REMARK  12 active torsions:
REMARK  status: ('A' for Active; 'I' for Inactive)
REMARK    1  A    between atoms: C_2  and  C_3
REMARK    2  A    between atoms: C_3  and  S_4
REMARK    3  A    between atoms: S_4  and  C_5
REMARK    4  A    between atoms: C_7  and  C_8
REMARK    5  A    between atoms: C_9  and  C_10
REMARK    6  A    between atoms: C_10  and  C_11
REMARK    7  A    between atoms: C_11  and  O_13
REMARK    8  A    between atoms: O_13  and  C_14
REMARK    9  A    between atoms: C_14  and  C_15
REMARK   10  A    between atoms: C_15  and  C_16
REMARK   11  A    between atoms: C_15  and  C_17
REMARK   12  A    between atoms: C_18  and  O_19
REMARK                            x       y       z     vdW  Elec       q    Type
REMARK                         _______ _______ _______ _____ _____    ______ ____
ROOT
ATOM      1  C   UNL     1       2.605   7.773  18.264  0.00  0.00    +0.000 A 
ATOM      2  N   UNL     1       3.561   7.458  17.379  0.00  0.00    +0.000 NA
ATOM      3  C   UNL     1       4.382   6.428  17.676  0.00  0.00    +0.000 A 
ATOM      4  C   UNL     1       5.375   6.090  16.605  0.00  0.00    +0.000 C 
ATOM      5  C   UNL     1       4.293   5.718  18.869  0.00  0.00    +0.000 A 
ATOM      6  C   UNL     1       3.234   6.108  19.668  0.00  0.00    +0.000 A 
ATOM      7  N   UNL     1       2.394   7.116  19.409  0.00  0.00    +0.000 NA
ENDROOT
BRANCH   6   8
ATOM      8  O   UNL     1       2.943   5.430  20.817  0.00  0.00    +0.000 OA
ATOM      9  H   UNL     1       3.783   4.993  21.068  0.00  0.00    +0.000 HD
ENDBRANCH   6   8
BRANCH   1  10
ATOM     10  S   UNL     1       1.579   9.184  17.938  0.00  0.00    +0.000 S 
BRANCH  10  11
ATOM     11  C   UNL     1       0.943   9.477  19.612  0.00  0.00    +0.000 C 
BRANCH  11  13
ATOM     12  C   UNL     1      -1.115  10.299  18.425  0.00  0.00    +0.000 C 
ATOM     13  C   UNL     1      -0.364  10.213  19.533  0.00  0.00    +0.000 C 
ENDBRANCH  11  13
ENDBRANCH  10  11
ENDBRANCH   1  10
BRANCH   5  14
ATOM     14  C   UNL     1       5.220   4.575  19.206  0.00  0.00    +0.000 C 
BRANCH  14  15
ATOM     15  C   UNL     1       4.577   3.203  19.237  0.00  0.00    +0.000 C 
ATOM     16  O   UNL     1       4.765   2.352  20.101  0.00  0.00    +0.000 OA
BRANCH  15  17
ATOM     17  O   UNL     1       3.804   3.024  18.127  0.00  0.00    +0.000 OA
BRANCH  17  18
ATOM     18  C   UNL     1       2.718   2.092  18.276  0.00  0.00    +0.000 C 
BRANCH  18  19
ATOM     19  C   UNL     1       1.335   2.751  18.368  0.00  0.00    +0.000 C 
ATOM     20  C   UNL     1       0.903   2.974  19.817  0.00  0.00    +0.000 C 
ATOM     21  C   UNL     1       1.355   4.078  17.607  0.00  0.00    +0.000 C 
ENDBRANCH  18  19
ENDBRANCH  17  18
ENDBRANCH  15  17
ENDBRANCH  14  15
ENDBRANCH   5  14
TORSDOF 9
ENDMDL
MODEL 4
REMARK VINA RESULT:      -6.3      3.710      6.696
REMARK  Name = 
REMARK  12 active torsions:
REMARK  status: ('A' for Active; 'I' for Inactive)
REMARK    1  A    between atoms: C_2  and  C_3
REMARK    2  A    between atoms: C_3  and  S_4
REMARK    3  A    between atoms: S_4  and  C_5
REMARK    4  A    between atoms: C_7  and  C_8
REMARK    5  A    between atoms: C_9  and  C_10
REMARK    6  A    between atoms: C_10  and  C_11
REMARK    7  A    between atoms: C_11  and  O_13
REMARK    8  A    between atoms: O_13  and  C_14
REMARK    9  A    between atoms: C_14  and  C_15
REMARK   10  A    between atoms: C_15  and  C_16
REMARK   11  A    between atoms: C_15  and  C_17
REMARK   12  A    between atoms: C_18  and  O_19
REMARK                            x       y       z     vdW  Elec       q    Type
REMARK                         _______ _______ _______ _____ _____    ______ ____
ROOT
ATOM      1  C   UNL     1       3.376   4.709  19.522  0.00  0.00    +0.000 A 
ATOM      2  N   UNL     1       3.255   5.970  19.085  0.00  0.00    +0.000 NA
ATOM      3  C   UNL     1       3.829   6.287  17.905  0.00  0.00    +0.000 A 
ATOM      4  C   UNL     1       3.585   7.695  17.450  0.00  0.00    +0.000 C 
ATOM      5  C   UNL     1       4.564   5.372  17.158  0.00  0.00    +0.000 A 
ATOM      6  C   UNL     1       4.567   4.097  17.693  0.00  0.00    +0.000 A 
ATOM      7  N   UNL     1       4.006   3.738  18.852  0.00  0.00    +0.000 NA
ENDROOT
BRANCH   6   8
ATOM      8  O   UNL     1       5.147   3.062  17.017  0.00  0.00    +0.000 OA
ATOM      9  H   UNL     1       4.489   2.337  17.059  0.00  0.00    +0.000 HD
ENDBRANCH   6   8
BRANCH   1  10
ATOM     10  S   UNL     1       2.712   4.296  21.116  0.00  0.00    +0.000 S 
BRANCH  10  11
ATOM     11  C   UNL     1       0.975   4.050  20.654  0.00  0.00    +0.000 C 
BRANCH  11  13
ATOM     12  C   UNL     1       0.614   2.542  18.675  0.00  0.00    +0.000 C 
ATOM     13  C   UNL     1       0.815   2.712  19.990  0.00  0.00    +0.000 C 
ENDBRANCH  11  13
ENDBRANCH  10  11
ENDBRANCH   1  10
BRANCH   5  14
ATOM     14  C   UNL     1       5.216   5.732  15.845  0.00  0.00    +0.000 C 
BRANCH  14  15
ATOM     15  C   UNL     1       6.699   5.432  15.751  0.00  0.00    +0.000 C 
ATOM     16  O   UNL     1       7.583   6.042  16.344  0.00  0.00    +0.000 OA
BRANCH  15  17
ATOM     17  O   UNL     1       6.916   4.424  14.859  0.00  0.00    +0.000 OA
BRANCH  17  18
ATOM     18  C   UNL     1       5.780   4.057  14.056  0.00  0.00    +0.000 C 
BRANCH  18  19
ATOM     19  C   UNL     1       6.145   3.481  12.680  0.00  0.00    +0.000 C 
ATOM     20  C   UNL     1       4.922   3.349  11.773  0.00  0.00    +0.000 C 
ATOM     21  C   UNL     1       7.203   4.371  12.024  0.00  0.00    +0.000 C 
ENDBRANCH  18  19
ENDBRANCH  17  18
ENDBRANCH  15  17
ENDBRANCH  14  15
ENDBRANCH   5  14
TORSDOF 9
ENDMDL
MODEL 5
REMARK VINA RESULT:      -6.2      3.224      4.855
REMARK  Name = 
REMARK  12 active torsions:
REMARK  status: ('A' for Active; 'I' for Inactive)
REMARK    1  A    between atoms: C_2  and  C_3
REMARK    2  A    between atoms: C_3  and  S_4
REMARK    3  A    between atoms: S_4  and  C_5
REMARK    4  A    between atoms: C_7  and  C_8
REMARK    5  A    between atoms: C_9  and  C_10
REMARK    6  A    between atoms: C_10  and  C_11
REMARK    7  A    between atoms: C_11  and  O_13
REMARK    8  A    between atoms: O_13  and  C_14
REMARK    9  A    between atoms: C_14  and  C_15
REMARK   10  A    between atoms: C_15  and  C_16
REMARK   11  A    between atoms: C_15  and  C_17
REMARK   12  A    between atoms: C_18  and  O_19
REMARK                            x       y       z     vdW  Elec       q    Type
REMARK                         _______ _______ _______ _____ _____    ______ ____
ROOT
ATOM      1  C   UNL     1       6.538   4.837  14.852  0.00  0.00    +0.000 A 
ATOM      2  N   UNL     1       7.137   5.738  15.642  0.00  0.00    +0.000 NA
ATOM      3  C   UNL     1       6.623   5.940  16.874  0.00  0.00    +0.000 A 
ATOM      4  C   UNL     1       7.392   6.908  17.722  0.00  0.00    +0.000 C 
ATOM      5  C   UNL     1       5.486   5.281  17.328  0.00  0.00    +0.000 A 
ATOM      6  C   UNL     1       4.997   4.342  16.439  0.00  0.00    +0.000 A 
ATOM      7  N   UNL     1       5.480   4.104  15.215  0.00  0.00    +0.000 NA
ENDROOT
BRANCH   6   8
ATOM      8  O   UNL     1       3.956   3.530  16.788  0.00  0.00    +0.000 OA
ATOM      9  H   UNL     1       4.374   2.764  17.231  0.00  0.00    +0.000 HD
ENDBRANCH   6   8
BRANCH   1  10
ATOM     10  S   UNL     1       7.140   4.626  13.195  0.00  0.00    +0.000 S 
BRANCH  10  11
ATOM     11  C   UNL     1       6.069   3.260  12.666  0.00  0.00    +0.000 C 
BRANCH  11  13
ATOM     12  C   UNL     1       4.068   3.035  11.162  0.00  0.00    +0.000 C 
ATOM     13  C   UNL     1       4.937   3.799  11.839  0.00  0.00    +0.000 C 
ENDBRANCH  11  13
ENDBRANCH  10  11
ENDBRANCH   1  10
BRANCH   5  14
ATOM     14  C   UNL     1       4.904   5.518  18.701  0.00  0.00    +0.000 C 
BRANCH  14  15
ATOM     15  C   UNL     1       3.617   6.318  18.734  0.00  0.00    +0.000 C 
ATOM     16  O   UNL     1       3.370   7.290  18.028  0.00  0.00    +0.000 OA
BRANCH  15  17
ATOM     17  O   UNL     1       2.794   5.839  19.710  0.00  0.00    +0.000 OA
BRANCH  17  18
ATOM     18  C   UNL     1       2.901   4.428  19.969  0.00  0.00    +0.000 C 
BRANCH  18  19
ATOM     19  C   UNL     1       1.598   3.779  20.456  0.00  0.00    +0.000 C 
ATOM     20  C   UNL     1       0.939   2.932  19.367  0.00  0.00    +0.000 C 
ATOM     21  C   UNL     1       1.889   2.925  21.692  0.00  0.00    +0.000 C 
ENDBRANCH  18  19
ENDBRANCH  17  18
ENDBRANCH  15  17
ENDBRANCH  14  15
ENDBRANCH   5  14
TORSDOF 9
ENDMDL
MODEL 6
REMARK VINA RESULT:      -6.1      4.107      7.098
REMARK  Name = 
REMARK  12 active torsions:
REMARK  status: ('A' for Active; 'I' for Inactive)
REMARK    1  A    between atoms: C_2  and  C_3
REMARK    2  A    between atoms: C_3  and  S_4
REMARK    3  A    between atoms: S_4  and  C_5
REMARK    4  A    between atoms: C_7  and  C_8
REMARK    5  A    between atoms: C_9  and  C_10
REMARK    6  A    between atoms: C_10  and  C_11
REMARK    7  A    between atoms: C_11  and  O_13
REMARK    8  A    between atoms: O_13  and  C_14
REMARK    9  A    between atoms: C_14  and  C_15
REMARK   10  A    between atoms: C_15  and  C_16
REMARK   11  A    between atoms: C_15  and  C_17
REMARK   12  A    between atoms: C_18  and  O_19
REMARK                            x       y       z     vdW  Elec       q    Type
REMARK                         _______ _______ _______ _____ _____    ______ ____
ROOT
ATOM      1  C   UNL     1       3.811   5.674  18.627  0.00  0.00    +0.000 A 
ATOM      2  N   UNL     1       5.044   6.194  18.707  0.00  0.00    +0.000 NA
ATOM      3  C   UNL     1       5.994   5.696  17.887  0.00  0.00    +0.000 A 
ATOM      4  C   UNL     1       7.325   6.379  17.985  0.00  0.00    +0.000 C 
ATOM      5  C   UNL     1       5.748   4.652  17.001  0.00  0.00    +0.000 A 
ATOM      6  C   UNL     1       4.427   4.245  16.979  0.00  0.00    +0.000 A 
ATOM      7  N   UNL     1       3.455   4.715  17.767  0.00  0.00    +0.000 NA
ENDROOT
BRANCH   6   8
ATOM      8  O   UNL     1       4.003   3.309  16.079  0.00  0.00    +0.000 OA
ATOM      9  H   UNL     1       3.076   3.557  15.880  0.00  0.00    +0.000 HD
ENDBRANCH   6   8
BRANCH   1  10
ATOM     10  S   UNL     1       2.573   6.247  19.763  0.00  0.00    +0.000 S 
BRANCH  10  11
ATOM     11  C   UNL     1       1.681   4.690  20.033  0.00  0.00    +0.000 C 
BRANCH  11  13
ATOM     12  C   UNL     1       2.255   2.754  21.529  0.00  0.00    +0.000 C 
ATOM     13  C   UNL     1       2.125   4.073  21.328  0.00  0.00    +0.000 C 
ENDBRANCH  11  13
ENDBRANCH  10  11
ENDBRANCH   1  10
BRANCH   5  14
ATOM     14  C   UNL     1       6.815   4.088  16.094  0.00  0.00    +0.000 C 
BRANCH  14  15
ATOM     15  C   UNL     1       6.908   4.726  14.723  0.00  0.00    +0.000 C 
ATOM     16  O   UNL     1       7.705   5.602  14.402  0.00  0.00    +0.000 OA
BRANCH  15  17
ATOM     17  O   UNL     1       5.931   4.232  13.910  0.00  0.00    +0.000 OA
BRANCH  17  18
ATOM     18  C   UNL     1       6.390   3.671  12.666  0.00  0.00    +0.000 C 
BRANCH  18  19
ATOM     19  C   UNL     1       5.452   2.611  12.073  0.00  0.00    +0.000 C 
ATOM     20  C   UNL     1       4.286   3.240  11.312  0.00  0.00    +0.000 C 
ATOM     21  C   UNL     1       6.252   1.686  11.153  0.00  0.00    +0.000 C 
ENDBRANCH  18  19
ENDBRANCH  17  18
ENDBRANCH  15  17
ENDBRANCH  14  15
ENDBRANCH   5  14
TORSDOF 9
ENDMDL
MODEL 7
REMARK VINA RESULT:      -6.1      3.791      6.733
REMARK  Name = 
REMARK  12 active torsions:
REMARK  status: ('A' for Active; 'I' for Inactive)
REMARK    1  A    between atoms: C_2  and  C_3
REMARK    2  A    between atoms: C_3  and  S_4
REMARK    3  A    between atoms: S_4  and  C_5
REMARK    4  A    between atoms: C_7  and  C_8
REMARK    5  A    between atoms: C_9  and  C_10
REMARK    6  A    between atoms: C_10  and  C_11
REMARK    7  A    between atoms: C_11  and  O_13
REMARK    8  A    between atoms: O_13  and  C_14
REMARK    9  A    between atoms: C_14  and  C_15
REMARK   10  A    between atoms: C_15  and  C_16
REMARK   11  A    between atoms: C_15  and  C_17
REMARK   12  A    between atoms: C_18  and  O_19
REMARK                            x       y       z     vdW  Elec       q    Type
REMARK                         _______ _______ _______ _____ _____    ______ ____
ROOT
ATOM      1  C   UNL     1       4.459   3.154  19.467  0.00  0.00    +0.000 A 
ATOM      2  N   UNL     1       5.514   3.966  19.621  0.00  0.00    +0.000 NA
ATOM      3  C   UNL     1       5.877   4.737  18.573  0.00  0.00    +0.000 A 
ATOM      4  C   UNL     1       7.018   5.669  18.848  0.00  0.00    +0.000 C 
ATOM      5  C   UNL     1       5.224   4.688  17.346  0.00  0.00    +0.000 A 
ATOM      6  C   UNL     1       4.123   3.852  17.336  0.00  0.00    +0.000 A 
ATOM      7  N   UNL     1       3.725   3.079  18.352  0.00  0.00    +0.000 NA
ENDROOT
BRANCH   6   8
ATOM      8  O   UNL     1       3.310   3.785  16.241  0.00  0.00    +0.000 OA
ATOM      9  H   UNL     1       3.660   3.036  15.716  0.00  0.00    +0.000 HD
ENDBRANCH   6   8
BRANCH   1  10
ATOM     10  S   UNL     1       4.026   2.063  20.799  0.00  0.00    +0.000 S 
BRANCH  10  11
ATOM     11  C   UNL     1       2.316   2.606  21.077  0.00  0.00    +0.000 C 
BRANCH  11  13
ATOM     12  C   UNL     1       1.488   4.931  20.602  0.00  0.00    +0.000 C 
ATOM     13  C   UNL     1       2.287   4.093  21.280  0.00  0.00    +0.000 C 
ENDBRANCH  11  13
ENDBRANCH  10  11
ENDBRANCH   1  10
BRANCH   5  14
ATOM     14  C   UNL     1       5.639   5.541  16.171  0.00  0.00    +0.000 C 
BRANCH  14  15
ATOM     15  C   UNL     1       6.670   4.921  15.249  0.00  0.00    +0.000 C 
ATOM     16  O   UNL     1       7.775   5.396  15.002  0.00  0.00    +0.000 OA
BRANCH  15  17
ATOM     17  O   UNL     1       6.168   3.788  14.680  0.00  0.00    +0.000 OA
BRANCH  17  18
ATOM     18  C   UNL     1       5.273   3.999  13.573  0.00  0.00    +0.000 C 
BRANCH  18  19
ATOM     19  C   UNL     1       5.589   3.140  12.340  0.00  0.00    +0.000 C 
ATOM     20  C   UNL     1       4.458   3.178  11.313  0.00  0.00    +0.000 C 
ATOM     21  C   UNL     1       6.898   3.622  11.711  0.00  0.00    +0.000 C 
ENDBRANCH  18  19
ENDBRANCH  17  18
ENDBRANCH  15  17
ENDBRANCH  14  15
ENDBRANCH   5  14
TORSDOF 9
ENDMDL
MODEL 8
REMARK VINA RESULT:      -6.1      3.430      4.713
REMARK  Name = 
REMARK  12 active torsions:
REMARK  status: ('A' for Active; 'I' for Inactive)
REMARK    1  A    between atoms: C_2  and  C_3
REMARK    2  A    between atoms: C_3  and  S_4
REMARK    3  A    between atoms: S_4  and  C_5
REMARK    4  A    between atoms: C_7  and  C_8
REMARK    5  A    between atoms: C_9  and  C_10
REMARK    6  A    between atoms: C_10  and  C_11
REMARK    7  A    between atoms: C_11  and  O_13
REMARK    8  A    between atoms: O_13  and  C_14
REMARK    9  A    between atoms: C_14  and  C_15
REMARK   10  A    between atoms: C_15  and  C_16
REMARK   11  A    between atoms: C_15  and  C_17
REMARK   12  A    between atoms: C_18  and  O_19
REMARK                            x       y       z     vdW  Elec       q    Type
REMARK                         _______ _______ _______ _____ _____    ______ ____
ROOT
ATOM      1  C   UNL     1       6.566   4.644  14.645  0.00  0.00    +0.000 A 
ATOM      2  N   UNL     1       5.497   3.972  15.094  0.00  0.00    +0.000 NA
ATOM      3  C   UNL     1       5.158   4.120  16.393  0.00  0.00    +0.000 A 
ATOM      4  C   UNL     1       3.910   3.396  16.799  0.00  0.00    +0.000 C 
ATOM      5  C   UNL     1       5.893   4.905  17.275  0.00  0.00    +0.000 A 
ATOM      6  C   UNL     1       6.937   5.583  16.674  0.00  0.00    +0.000 A 
ATOM      7  N   UNL     1       7.302   5.473  15.393  0.00  0.00    +0.000 NA
ENDROOT
BRANCH   6   8
ATOM      8  O   UNL     1       7.679   6.484  17.383  0.00  0.00    +0.000 OA
ATOM      9  H   UNL     1       8.560   6.065  17.473  0.00  0.00    +0.000 HD
ENDBRANCH   6   8
BRANCH   1  10
ATOM     10  S   UNL     1       7.085   4.388  12.967  0.00  0.00    +0.000 S 
BRANCH  10  11
ATOM     11  C   UNL     1       5.911   3.088  12.492  0.00  0.00    +0.000 C 
BRANCH  11  13
ATOM     12  C   UNL     1       3.908   3.089  10.974  0.00  0.00    +0.000 C 
ATOM     13  C   UNL     1       4.699   3.711  11.860  0.00  0.00    +0.000 C 
ENDBRANCH  11  13
ENDBRANCH  10  11
ENDBRANCH   1  10
BRANCH   5  14
ATOM     14  C   UNL     1       5.520   5.058  18.730  0.00  0.00    +0.000 C 
BRANCH  14  15
ATOM     15  C   UNL     1       4.164   5.682  18.992  0.00  0.00    +0.000 C 
ATOM     16  O   UNL     1       3.691   6.632  18.376  0.00  0.00    +0.000 OA
BRANCH  15  17
ATOM     17  O   UNL     1       3.569   5.075  20.059  0.00  0.00    +0.000 OA
BRANCH  17  18
ATOM     18  C   UNL     1       2.157   5.317  20.196  0.00  0.00    +0.000 C 
BRANCH  18  19
ATOM     19  C   UNL     1       1.340   4.069  20.562  0.00  0.00    +0.000 C 
ATOM     20  C   UNL     1       1.069   3.186  19.345  0.00  0.00    +0.000 C 
ATOM     21  C   UNL     1       2.082   3.278  21.641  0.00  0.00    +0.000 C 
ENDBRANCH  18  19
ENDBRANCH  17  18
ENDBRANCH  15  17
ENDBRANCH  14  15
ENDBRANCH   5  14
TORSDOF 9
ENDMDL
MODEL 9
REMARK VINA RESULT:      -6.1      2.174      2.722
REMARK  Name = 
REMARK  12 active torsions:
REMARK  status: ('A' for Active; 'I' for Inactive)
REMARK    1  A    between atoms: C_2  and  C_3
REMARK    2  A    between atoms: C_3  and  S_4
REMARK    3  A    between atoms: S_4  and  C_5
REMARK    4  A    between atoms: C_7  and  C_8
REMARK    5  A    between atoms: C_9  and  C_10
REMARK    6  A    between atoms: C_10  and  C_11
REMARK    7  A    between atoms: C_11  and  O_13
REMARK    8  A    between atoms: O_13  and  C_14
REMARK    9  A    between atoms: C_14  and  C_15
REMARK   10  A    between atoms: C_15  and  C_16
REMARK   11  A    between atoms: C_15  and  C_17
REMARK   12  A    between atoms: C_18  and  O_19
REMARK                            x       y       z     vdW  Elec       q    Type
REMARK                         _______ _______ _______ _____ _____    ______ ____
ROOT
ATOM      1  C   UNL     1       5.110   4.787  16.661  0.00  0.00    +0.000 A 
ATOM      2  N   UNL     1       4.155   3.858  16.513  0.00  0.00    +0.000 NA
ATOM      3  C   UNL     1       3.781   3.157  17.604  0.00  0.00    +0.000 A 
ATOM      4  C   UNL     1       2.658   2.191  17.372  0.00  0.00    +0.000 C 
ATOM      5  C   UNL     1       4.372   3.337  18.850  0.00  0.00    +0.000 A 
ATOM      6  C   UNL     1       5.303   4.359  18.878  0.00  0.00    +0.000 A 
ATOM      7  N   UNL     1       5.697   5.083  17.825  0.00  0.00    +0.000 NA
ENDROOT
BRANCH   6   8
ATOM      8  O   UNL     1       5.886   4.737  20.054  0.00  0.00    +0.000 OA
ATOM      9  H   UNL     1       5.250   4.464  20.747  0.00  0.00    +0.000 HD
ENDBRANCH   6   8
BRANCH   1  10
ATOM     10  S   UNL     1       5.684   5.651  15.220  0.00  0.00    +0.000 S 
BRANCH  10  11
ATOM     11  C   UNL     1       6.668   4.330  14.459  0.00  0.00    +0.000 C 
BRANCH  11  13
ATOM     12  C   UNL     1       6.434   3.419  12.128  0.00  0.00    +0.000 C 
ATOM     13  C   UNL     1       5.900   3.722  13.321  0.00  0.00    +0.000 C 
ENDBRANCH  11  13
ENDBRANCH  10  11
ENDBRANCH   1  10
BRANCH   5  14
ATOM     14  C   UNL     1       3.963   2.543  20.067  0.00  0.00    +0.000 C 
BRANCH  14  15
ATOM     15  C   UNL     1       2.839   3.143  20.888  0.00  0.00    +0.000 C 
ATOM     16  O   UNL     1       2.629   2.914  22.075  0.00  0.00    +0.000 OA
BRANCH  15  17
ATOM     17  O   UNL     1       2.052   3.930  20.099  0.00  0.00    +0.000 OA
BRANCH  17  18
ATOM     18  C   UNL     1       1.706   5.210  20.657  0.00  0.00    +0.000 C 
BRANCH  18  19
ATOM     19  C   UNL     1       2.361   6.403  19.945  0.00  0.00    +0.000 C 
ATOM     20  C   UNL     1       2.196   6.323  18.427  0.00  0.00    +0.000 C 
ATOM     21  C   UNL     1       1.759   7.704  20.479  0.00  0.00    +0.000 C 
ENDBRANCH  18  19
ENDBRANCH  17  18
ENDBRANCH  15  17
ENDBRANCH  14  15
ENDBRANCH   5  14
TORSDOF 9
ENDMDL
