MODEL 1
REMARK VINA RESULT:      -5.1      0.000      0.000
REMARK  Name = 
REMARK  13 active torsions:
REMARK  status: ('A' for Active; 'I' for Inactive)
REMARK    1  A    between atoms: C_1  and  C_2
REMARK    2  A    between atoms: C_2  and  C_3
REMARK    3  A    between atoms: C_3  and  C_4
REMARK    4  A    between atoms: C_4  and  N_5
REMARK    5  A    between atoms: N_5  and  C_6
REMARK    6  A    between atoms: N_5  and  C_8
REMARK    7  A    between atoms: C_6  and  C_7
REMARK    8  A    between atoms: N_13  and  C_14
REMARK    9  A    between atoms: C_15  and  C_16
REMARK   10  A    between atoms: C_18  and  C_19
REMARK   11  A    between atoms: C_21  and  C_22
REMARK   12  A    between atoms: C_23  and  S_24
REMARK   13  A    between atoms: S_24  and  C_25
REMARK                            x       y       z     vdW  Elec       q    Type
REMARK                         _______ _______ _______ _____ _____    ______ ____
ROOT
ATOM      1  C   UNL     1      -0.853  14.368  23.033  0.00  0.00    +0.000 A 
ATOM      2  N   UNL     1       0.299  14.856  22.533  0.00  0.00    +0.000 NA
ATOM      3  C   UNL     1       0.914  14.137  21.593  0.00  0.00    +0.000 A 
ATOM      4  N   UNL     1       0.478  12.985  21.092  0.00  0.00    +0.000 NA
ATOM      5  C   UNL     1      -0.654  12.473  21.612  0.00  0.00    +0.000 A 
ATOM      6  N   UNL     1      -1.080  11.193  21.158  0.00  0.00    +0.000 N 
ATOM      7  C   UNL     1      -1.371  13.127  22.622  0.00  0.00    +0.000 A 
ATOM      8  H   UNL     1      -2.061  11.238  20.902  0.00  0.00    +0.000 HD
ENDROOT
BRANCH   6   9
ATOM      9  C   UNL     1      -0.299  10.342  20.335  0.00  0.00    +0.000 A 
ATOM     10  C   UNL     1       0.634   9.448  20.917  0.00  0.00    +0.000 A 
ATOM     11  C   UNL     1       0.754   9.222  22.401  0.00  0.00    +0.000 C 
ATOM     12  C   UNL     1       1.542   8.753  20.099  0.00  0.00    +0.000 A 
ATOM     13  C   UNL     1       1.527   8.909  18.716  0.00  0.00    +0.000 A 
ATOM     14  C   UNL     1       2.557   8.232  17.863  0.00  0.00    +0.000 C 
ATOM     15  C   UNL     1       0.551   9.724  18.135  0.00  0.00    +0.000 A 
ATOM     16  C   UNL     1      -0.364  10.446  18.924  0.00  0.00    +0.000 A 
ATOM     17  C   UNL     1      -1.341  11.356  18.232  0.00  0.00    +0.000 C 
ENDBRANCH   6   9
BRANCH   7  18
ATOM     18  S   UNL     1      -2.832  12.371  23.371  0.00  0.00    +0.000 S 
ATOM     19  C   UNL     1      -4.102  12.833  22.157  0.00  0.00    +0.000 C 
ENDBRANCH   7  18
BRANCH   1  20
ATOM     20  N   UNL     1      -1.523  15.170  23.988  0.00  0.00    +0.000 N 
BRANCH  20  21
ATOM     21  C   UNL     1      -2.643  15.927  23.386  0.00  0.00    +0.000 C 
ATOM     22  C   UNL     1      -2.270  17.320  22.887  0.00  0.00    +0.000 C 
ENDBRANCH  20  21
BRANCH  20  23
ATOM     23  C   UNL     1      -0.606  15.935  24.854  0.00  0.00    +0.000 C 
BRANCH  23  24
ATOM     24  C   UNL     1      -0.983  15.794  26.333  0.00  0.00    +0.000 C 
BRANCH  24  26
ATOM     25  C   UNL     1       0.751  15.939  28.149  0.00  0.00    +0.000 C 
ATOM     26  C   UNL     1      -0.178  16.729  27.240  0.00  0.00    +0.000 C 
ENDBRANCH  24  26
ENDBRANCH  23  24
ENDBRANCH  20  23
ENDBRANCH   1  20
TORSDOF 7
ENDMDL
MODEL 2
REMARK VINA RESULT:      -5.0      1.265      2.236
REMARK  Name = 
REMARK  13 active torsions:
REMARK  status: ('A' for Active; 'I' for Inactive)
REMARK    1  A    between atoms: C_1  and  C_2
REMARK    2  A    between atoms: C_2  and  C_3
REMARK    3  A    between atoms: C_3  and  C_4
REMARK    4  A    between atoms: C_4  and  N_5
REMARK    5  A    between atoms: N_5  and  C_6
REMARK    6  A    between atoms: N_5  and  C_8
REMARK    7  A    between atoms: C_6  and  C_7
REMARK    8  A    between atoms: N_13  and  C_14
REMARK    9  A    between atoms: C_15  and  C_16
REMARK   10  A    between atoms: C_18  and  C_19
REMARK   11  A    between atoms: C_21  and  C_22
REMARK   12  A    between atoms: C_23  and  S_24
REMARK   13  A    between atoms: S_24  and  C_25
REMARK                            x       y       z     vdW  Elec       q    Type
REMARK                         _______ _______ _______ _____ _____    ______ ____
ROOT
ATOM      1  C   UNL     1      -1.850  14.858  22.845  0.00  0.00    +0.000 A 
ATOM      2  N   UNL     1      -0.574  15.294  22.858  0.00  0.00    +0.000 NA
ATOM      3  C   UNL     1       0.353  14.493  22.332  0.00  0.00    +0.000 A 
ATOM      4  N   UNL     1       0.126  13.306  21.779  0.00  0.00    +0.000 NA
ATOM      5  C   UNL     1      -1.141  12.847  21.795  0.00  0.00    +0.000 A 
ATOM      6  N   UNL     1      -1.385  11.537  21.297  0.00  0.00    +0.000 N 
ATOM      7  C   UNL     1      -2.193  13.590  22.344  0.00  0.00    +0.000 A 
ATOM      8  H   UNL     1      -2.158  11.566  20.641  0.00  0.00    +0.000 HD
ENDROOT
BRANCH   6   9
ATOM      9  C   UNL     1      -0.364  10.612  20.959  0.00  0.00    +0.000 A 
ATOM     10  C   UNL     1       0.116  10.534  19.628  0.00  0.00    +0.000 A 
ATOM     11  C   UNL     1      -0.288  11.497  18.542  0.00  0.00    +0.000 C 
ATOM     12  C   UNL     1       0.978   9.490  19.254  0.00  0.00    +0.000 A 
ATOM     13  C   UNL     1       1.394   8.537  20.178  0.00  0.00    +0.000 A 
ATOM     14  C   UNL     1       2.242   7.377  19.747  0.00  0.00    +0.000 C 
ATOM     15  C   UNL     1       0.990   8.661  21.511  0.00  0.00    +0.000 A 
ATOM     16  C   UNL     1       0.115   9.686  21.917  0.00  0.00    +0.000 A 
ATOM     17  C   UNL     1      -0.329   9.717  23.353  0.00  0.00    +0.000 C 
ENDBRANCH   6   9
BRANCH   7  18
ATOM     18  S   UNL     1      -3.865  12.911  22.443  0.00  0.00    +0.000 S 
ATOM     19  C   UNL     1      -3.892  12.348  24.170  0.00  0.00    +0.000 C 
ENDBRANCH   7  18
BRANCH   1  20
ATOM     20  N   UNL     1      -2.830  15.744  23.355  0.00  0.00    +0.000 N 
BRANCH  20  21
ATOM     21  C   UNL     1      -2.823  17.043  22.648  0.00  0.00    +0.000 C 
ATOM     22  C   UNL     1      -4.064  17.311  21.801  0.00  0.00    +0.000 C 
ENDBRANCH  20  21
BRANCH  20  23
ATOM     23  C   UNL     1      -2.856  15.801  24.829  0.00  0.00    +0.000 C 
BRANCH  23  24
ATOM     24  C   UNL     1      -2.615  17.225  25.339  0.00  0.00    +0.000 C 
BRANCH  24  26
ATOM     25  C   UNL     1      -0.740  15.991  26.474  0.00  0.00    +0.000 C 
ATOM     26  C   UNL     1      -1.311  17.358  26.131  0.00  0.00    +0.000 C 
ENDBRANCH  24  26
ENDBRANCH  23  24
ENDBRANCH  20  23
ENDBRANCH   1  20
TORSDOF 7
ENDMDL
MODEL 3
REMARK VINA RESULT:      -4.8      2.009      3.049
REMARK  Name = 
REMARK  13 active torsions:
REMARK  status: ('A' for Active; 'I' for Inactive)
REMARK    1  A    between atoms: C_1  and  C_2
REMARK    2  A    between atoms: C_2  and  C_3
REMARK    3  A    between atoms: C_3  and  C_4
REMARK    4  A    between atoms: C_4  and  N_5
REMARK    5  A    between atoms: N_5  and  C_6
REMARK    6  A    between atoms: N_5  and  C_8
REMARK    7  A    between atoms: C_6  and  C_7
REMARK    8  A    between atoms: N_13  and  C_14
REMARK    9  A    between atoms: C_15  and  C_16
REMARK   10  A    between atoms: C_18  and  C_19
REMARK   11  A    between atoms: C_21  and  C_22
REMARK   12  A    between atoms: C_23  and  S_24
REMARK   13  A    between atoms: S_24  and  C_25
REMARK                            x       y       z     vdW  Elec       q    Type
REMARK                         _______ _______ _______ _____ _____    ______ ____
ROOT
ATOM      1  C   UNL     1      -0.048  14.401  20.651  0.00  0.00    +0.000 A 
ATOM      2  N   UNL     1       1.272  14.565  20.868  0.00  0.00    +0.000 NA
ATOM      3  C   UNL     1       2.052  13.490  20.750  0.00  0.00    +0.000 A 
ATOM      4  N   UNL     1       1.642  12.271  20.415  0.00  0.00    +0.000 NA
ATOM      5  C   UNL     1       0.320  12.091  20.231  0.00  0.00    +0.000 A 
ATOM      6  N   UNL     1      -0.147  10.772  19.971  0.00  0.00    +0.000 N 
ATOM      7  C   UNL     1      -0.598  13.141  20.356  0.00  0.00    +0.000 A 
ATOM      8  H   UNL     1      -0.758  10.786  19.161  0.00  0.00    +0.000 HD
ENDROOT
BRANCH   6   9
ATOM      9  C   UNL     1       0.659   9.609  20.076  0.00  0.00    +0.000 A 
ATOM     10  C   UNL     1       1.442   9.181  18.976  0.00  0.00    +0.000 A 
ATOM     11  C   UNL     1       1.602   9.981  17.709  0.00  0.00    +0.000 C 
ATOM     12  C   UNL     1       2.079   7.929  19.014  0.00  0.00    +0.000 A 
ATOM     13  C   UNL     1       1.975   7.105  20.130  0.00  0.00    +0.000 A 
ATOM     14  C   UNL     1       2.584   5.735  20.124  0.00  0.00    +0.000 C 
ATOM     15  C   UNL     1       1.273   7.562  21.250  0.00  0.00    +0.000 A 
ATOM     16  C   UNL     1       0.611   8.804  21.240  0.00  0.00    +0.000 A 
ATOM     17  C   UNL     1      -0.180   9.199  22.457  0.00  0.00    +0.000 C 
ENDBRANCH   6   9
BRANCH   7  18
ATOM     18  S   UNL     1      -2.375  12.854  20.201  0.00  0.00    +0.000 S 
ATOM     19  C   UNL     1      -2.799  12.469  21.925  0.00  0.00    +0.000 C 
ENDBRANCH   7  18
BRANCH   1  20
ATOM     20  N   UNL     1      -0.855  15.563  20.725  0.00  0.00    +0.000 N 
BRANCH  20  21
ATOM     21  C   UNL     1      -0.678  16.435  19.544  0.00  0.00    +0.000 C 
ATOM     22  C   UNL     1      -1.795  17.454  19.335  0.00  0.00    +0.000 C 
ENDBRANCH  20  21
BRANCH  20  23
ATOM     23  C   UNL     1      -0.803  16.226  22.042  0.00  0.00    +0.000 C 
BRANCH  23  24
ATOM     24  C   UNL     1      -2.032  15.884  22.890  0.00  0.00    +0.000 C 
BRANCH  24  26
ATOM     25  C   UNL     1      -2.755  14.937  25.106  0.00  0.00    +0.000 C 
ATOM     26  C   UNL     1      -1.710  15.774  24.383  0.00  0.00    +0.000 C 
ENDBRANCH  24  26
ENDBRANCH  23  24
ENDBRANCH  20  23
ENDBRANCH   1  20
TORSDOF 7
ENDMDL
MODEL 4
REMARK VINA RESULT:      -4.8      1.268      2.321
REMARK  Name = 
REMARK  13 active torsions:
REMARK  status: ('A' for Active; 'I' for Inactive)
REMARK    1  A    between atoms: C_1  and  C_2
REMARK    2  A    between atoms: C_2  and  C_3
REMARK    3  A    between atoms: C_3  and  C_4
REMARK    4  A    between atoms: C_4  and  N_5
REMARK    5  A    between atoms: N_5  and  C_6
REMARK    6  A    between atoms: N_5  and  C_8
REMARK    7  A    between atoms: C_6  and  C_7
REMARK    8  A    between atoms: N_13  and  C_14
REMARK    9  A    between atoms: C_15  and  C_16
REMARK   10  A    between atoms: C_18  and  C_19
REMARK   11  A    between atoms: C_21  and  C_22
REMARK   12  A    between atoms: C_23  and  S_24
REMARK   13  A    between atoms: S_24  and  C_25
REMARK                            x       y       z     vdW  Elec       q    Type
REMARK                         _______ _______ _______ _____ _____    ______ ____
ROOT
ATOM      1  C   UNL     1      -1.511  14.886  22.139  0.00  0.00    +0.000 A 
ATOM      2  N   UNL     1      -0.226  15.286  22.072  0.00  0.00    +0.000 NA
ATOM      3  C   UNL     1       0.671  14.399  21.642  0.00  0.00    +0.000 A 
ATOM      4  N   UNL     1       0.405  13.155  21.254  0.00  0.00    +0.000 NA
ATOM      5  C   UNL     1      -0.872  12.737  21.351  0.00  0.00    +0.000 A 
ATOM      6  N   UNL     1      -1.158  11.379  21.035  0.00  0.00    +0.000 N 
ATOM      7  C   UNL     1      -1.895  13.573  21.815  0.00  0.00    +0.000 A 
ATOM      8  H   UNL     1      -1.943  11.342  20.393  0.00  0.00    +0.000 HD
ENDROOT
BRANCH   6   9
ATOM      9  C   UNL     1      -0.166  10.392  20.804  0.00  0.00    +0.000 A 
ATOM     10  C   UNL     1       0.358  10.197  19.502  0.00  0.00    +0.000 A 
ATOM     11  C   UNL     1       0.038  11.094  18.335  0.00  0.00    +0.000 C 
ATOM     12  C   UNL     1       1.188   9.094  19.239  0.00  0.00    +0.000 A 
ATOM     13  C   UNL     1       1.527   8.194  20.244  0.00  0.00    +0.000 A 
ATOM     14  C   UNL     1       2.338   6.973  19.931  0.00  0.00    +0.000 C 
ATOM     15  C   UNL     1       1.079   8.432  21.548  0.00  0.00    +0.000 A 
ATOM     16  C   UNL     1       0.235   9.518  21.844  0.00  0.00    +0.000 A 
ATOM     17  C   UNL     1      -0.261   9.672  23.256  0.00  0.00    +0.000 C 
ENDBRANCH   6   9
BRANCH   7  18
ATOM     18  S   UNL     1      -3.581  12.958  22.030  0.00  0.00    +0.000 S 
ATOM     19  C   UNL     1      -4.194  13.071  20.324  0.00  0.00    +0.000 C 
ENDBRANCH   7  18
BRANCH   1  20
ATOM     20  N   UNL     1      -2.460  15.857  22.543  0.00  0.00    +0.000 N 
BRANCH  20  21
ATOM     21  C   UNL     1      -2.886  16.716  21.417  0.00  0.00    +0.000 C 
ATOM     22  C   UNL     1      -4.388  16.708  21.147  0.00  0.00    +0.000 C 
ENDBRANCH  20  21
BRANCH  20  23
ATOM     23  C   UNL     1      -2.089  16.550  23.792  0.00  0.00    +0.000 C 
BRANCH  23  24
ATOM     24  C   UNL     1      -2.948  16.079  24.970  0.00  0.00    +0.000 C 
BRANCH  24  26
ATOM     25  C   UNL     1      -0.849  15.882  26.342  0.00  0.00    +0.000 C 
ATOM     26  C   UNL     1      -2.165  15.219  25.967  0.00  0.00    +0.000 C 
ENDBRANCH  24  26
ENDBRANCH  23  24
ENDBRANCH  20  23
ENDBRANCH   1  20
TORSDOF 7
ENDMDL
MODEL 5
REMARK VINA RESULT:      -4.7      4.115      7.709
REMARK  Name = 
REMARK  13 active torsions:
REMARK  status: ('A' for Active; 'I' for Inactive)
REMARK    1  A    between atoms: C_1  and  C_2
REMARK    2  A    between atoms: C_2  and  C_3
REMARK    3  A    between atoms: C_3  and  C_4
REMARK    4  A    between atoms: C_4  and  N_5
REMARK    5  A    between atoms: N_5  and  C_6
REMARK    6  A    between atoms: N_5  and  C_8
REMARK    7  A    between atoms: C_6  and  C_7
REMARK    8  A    between atoms: N_13  and  C_14
REMARK    9  A    between atoms: C_15  and  C_16
REMARK   10  A    between atoms: C_18  and  C_19
REMARK   11  A    between atoms: C_21  and  C_22
REMARK   12  A    between atoms: C_23  and  S_24
REMARK   13  A    between atoms: S_24  and  C_25
REMARK                            x       y       z     vdW  Elec       q    Type
REMARK                         _______ _______ _______ _____ _____    ______ ____
ROOT
ATOM      1  C   UNL     1       0.913   9.050  20.126  0.00  0.00    +0.000 A 
ATOM      2  N   UNL     1       0.645   8.352  21.247  0.00  0.00    +0.000 NA
ATOM      3  C   UNL     1       1.177   7.134  21.353  0.00  0.00    +0.000 A 
ATOM      4  N   UNL     1       1.968   6.554  20.456  0.00  0.00    +0.000 NA
ATOM      5  C   UNL     1       2.212   7.232  19.317  0.00  0.00    +0.000 A 
ATOM      6  N   UNL     1       2.975   6.585  18.304  0.00  0.00    +0.000 N 
ATOM      7  C   UNL     1       1.685   8.507  19.083  0.00  0.00    +0.000 A 
ATOM      8  H   UNL     1       3.715   7.206  17.993  0.00  0.00    +0.000 HD
ENDROOT
BRANCH   6   9
ATOM      9  C   UNL     1       3.335   5.214  18.334  0.00  0.00    +0.000 A 
ATOM     10  C   UNL     1       2.397   4.221  17.959  0.00  0.00    +0.000 A 
ATOM     11  C   UNL     1       1.048   4.534  17.366  0.00  0.00    +0.000 C 
ATOM     12  C   UNL     1       2.688   2.863  18.178  0.00  0.00    +0.000 A 
ATOM     13  C   UNL     1       3.899   2.470  18.739  0.00  0.00    +0.000 A 
ATOM     14  C   UNL     1       4.161   1.028  19.051  0.00  0.00    +0.000 C 
ATOM     15  C   UNL     1       4.860   3.443  19.032  0.00  0.00    +0.000 A 
ATOM     16  C   UNL     1       4.597   4.812  18.838  0.00  0.00    +0.000 A 
ATOM     17  C   UNL     1       5.652   5.805  19.239  0.00  0.00    +0.000 C 
ENDBRANCH   6   9
BRANCH   7  18
ATOM     18  S   UNL     1       1.946   9.353  17.507  0.00  0.00    +0.000 S 
ATOM     19  C   UNL     1       2.485  10.986  18.094  0.00  0.00    +0.000 C 
ENDBRANCH   7  18
BRANCH   1  20
ATOM     20  N   UNL     1       0.388  10.363  20.053  0.00  0.00    +0.000 N 
BRANCH  20  21
ATOM     21  C   UNL     1       0.824  11.197  21.193  0.00  0.00    +0.000 C 
ATOM     22  C   UNL     1      -0.316  11.811  22.002  0.00  0.00    +0.000 C 
ENDBRANCH  20  21
BRANCH  20  23
ATOM     23  C   UNL     1      -1.051  10.399  19.728  0.00  0.00    +0.000 C 
BRANCH  23  24
ATOM     24  C   UNL     1      -1.299  11.018  18.349  0.00  0.00    +0.000 C 
BRANCH  24  26
ATOM     25  C   UNL     1      -3.233  10.091  17.035  0.00  0.00    +0.000 C 
ATOM     26  C   UNL     1      -1.740   9.987  17.307  0.00  0.00    +0.000 C 
ENDBRANCH  24  26
ENDBRANCH  23  24
ENDBRANCH  20  23
ENDBRANCH   1  20
TORSDOF 7
ENDMDL
MODEL 6
REMARK VINA RESULT:      -4.7      4.089      9.273
REMARK  Name = 
REMARK  13 active torsions:
REMARK  status: ('A' for Active; 'I' for Inactive)
REMARK    1  A    between atoms: C_1  and  C_2
REMARK    2  A    between atoms: C_2  and  C_3
REMARK    3  A    between atoms: C_3  and  C_4
REMARK    4  A    between atoms: C_4  and  N_5
REMARK    5  A    between atoms: N_5  and  C_6
REMARK    6  A    between atoms: N_5  and  C_8
REMARK    7  A    between atoms: C_6  and  C_7
REMARK    8  A    between atoms: N_13  and  C_14
REMARK    9  A    between atoms: C_15  and  C_16
REMARK   10  A    between atoms: C_18  and  C_19
REMARK   11  A    between atoms: C_21  and  C_22
REMARK   12  A    between atoms: C_23  and  S_24
REMARK   13  A    between atoms: S_24  and  C_25
REMARK                            x       y       z     vdW  Elec       q    Type
REMARK                         _______ _______ _______ _____ _____    ______ ____
ROOT
ATOM      1  C   UNL     1      -3.282  11.873  18.945  0.00  0.00    +0.000 A 
ATOM      2  N   UNL     1      -2.212  12.492  19.480  0.00  0.00    +0.000 NA
ATOM      3  C   UNL     1      -2.440  13.403  20.427  0.00  0.00    +0.000 A 
ATOM      4  N   UNL     1      -3.635  13.741  20.904  0.00  0.00    +0.000 NA
ATOM      5  C   UNL     1      -4.712  13.151  20.348  0.00  0.00    +0.000 A 
ATOM      6  N   UNL     1      -6.002  13.574  20.776  0.00  0.00    +0.000 N 
ATOM      7  C   UNL     1      -4.595  12.200  19.328  0.00  0.00    +0.000 A 
ATOM      8  H   UNL     1      -6.562  12.760  21.006  0.00  0.00    +0.000 HD
ENDROOT
BRANCH   6   9
ATOM      9  C   UNL     1      -6.233  14.699  21.609  0.00  0.00    +0.000 A 
ATOM     10  C   UNL     1      -6.322  15.996  21.047  0.00  0.00    +0.000 A 
ATOM     11  C   UNL     1      -6.338  16.260  19.564  0.00  0.00    +0.000 C 
ATOM     12  C   UNL     1      -6.352  17.123  21.887  0.00  0.00    +0.000 A 
ATOM     13  C   UNL     1      -6.320  16.987  23.271  0.00  0.00    +0.000 A 
ATOM     14  C   UNL     1      -6.261  18.198  24.153  0.00  0.00    +0.000 C 
ATOM     15  C   UNL     1      -6.318  15.705  23.828  0.00  0.00    +0.000 A 
ATOM     16  C   UNL     1      -6.273  14.555  23.018  0.00  0.00    +0.000 A 
ATOM     17  C   UNL     1      -6.205  13.211  23.689  0.00  0.00    +0.000 C 
ENDBRANCH   6   9
BRANCH   7  18
ATOM     18  S   UNL     1      -6.057  11.497  18.531  0.00  0.00    +0.000 S 
ATOM     19  C   UNL     1      -6.388  12.764  17.272  0.00  0.00    +0.000 C 
ENDBRANCH   7  18
BRANCH   1  20
ATOM     20  N   UNL     1      -3.020  10.868  17.981  0.00  0.00    +0.000 N 
BRANCH  20  21
ATOM     21  C   UNL     1      -2.004   9.903  18.453  0.00  0.00    +0.000 C 
ATOM     22  C   UNL     1      -0.680   9.953  17.693  0.00  0.00    +0.000 C 
ENDBRANCH  20  21
BRANCH  20  23
ATOM     23  C   UNL     1      -2.835  11.401  16.618  0.00  0.00    +0.000 C 
BRANCH  23  24
ATOM     24  C   UNL     1      -3.739  10.686  15.609  0.00  0.00    +0.000 C 
BRANCH  24  26
ATOM     25  C   UNL     1      -3.788   9.877  13.228  0.00  0.00    +0.000 C 
ATOM     26  C   UNL     1      -2.951   9.995  14.493  0.00  0.00    +0.000 C 
ENDBRANCH  24  26
ENDBRANCH  23  24
ENDBRANCH  20  23
ENDBRANCH   1  20
TORSDOF 7
ENDMDL
MODEL 7
REMARK VINA RESULT:      -4.7      7.759     10.226
REMARK  Name = 
REMARK  13 active torsions:
REMARK  status: ('A' for Active; 'I' for Inactive)
REMARK    1  A    between atoms: C_1  and  C_2
REMARK    2  A    between atoms: C_2  and  C_3
REMARK    3  A    between atoms: C_3  and  C_4
REMARK    4  A    between atoms: C_4  and  N_5
REMARK    5  A    between atoms: N_5  and  C_6
REMARK    6  A    between atoms: N_5  and  C_8
REMARK    7  A    between atoms: C_6  and  C_7
REMARK    8  A    between atoms: N_13  and  C_14
REMARK    9  A    between atoms: C_15  and  C_16
REMARK   10  A    between atoms: C_18  and  C_19
REMARK   11  A    between atoms: C_21  and  C_22
REMARK   12  A    between atoms: C_23  and  S_24
REMARK   13  A    between atoms: S_24  and  C_25
REMARK                            x       y       z     vdW  Elec       q    Type
REMARK                         _______ _______ _______ _____ _____    ______ ____
ROOT
ATOM      1  C   UNL     1       9.033  14.884  18.778  0.00  0.00    +0.000 A 
ATOM      2  N   UNL     1       8.763  13.870  17.932  0.00  0.00    +0.000 NA
ATOM      3  C   UNL     1       7.481  13.574  17.718  0.00  0.00    +0.000 A 
ATOM      4  N   UNL     1       6.441  14.205  18.254  0.00  0.00    +0.000 NA
ATOM      5  C   UNL     1       6.703  15.197  19.128  0.00  0.00    +0.000 A 
ATOM      6  N   UNL     1       5.603  15.816  19.786  0.00  0.00    +0.000 N 
ATOM      7  C   UNL     1       8.011  15.578  19.451  0.00  0.00    +0.000 A 
ATOM      8  H   UNL     1       5.691  16.824  19.710  0.00  0.00    +0.000 HD
ENDROOT
BRANCH   6   9
ATOM      9  C   UNL     1       4.269  15.339  19.725  0.00  0.00    +0.000 A 
ATOM     10  C   UNL     1       3.791  14.431  20.702  0.00  0.00    +0.000 A 
ATOM     11  C   UNL     1       4.576  14.039  21.927  0.00  0.00    +0.000 C 
ATOM     12  C   UNL     1       2.543  13.809  20.529  0.00  0.00    +0.000 A 
ATOM     13  C   UNL     1       1.749  14.087  19.420  0.00  0.00    +0.000 A 
ATOM     14  C   UNL     1       0.462  13.351  19.201  0.00  0.00    +0.000 C 
ATOM     15  C   UNL     1       2.182  15.046  18.499  0.00  0.00    +0.000 A 
ATOM     16  C   UNL     1       3.432  15.678  18.634  0.00  0.00    +0.000 A 
ATOM     17  C   UNL     1       3.860  16.649  17.568  0.00  0.00    +0.000 C 
ENDBRANCH   6   9
BRANCH   7  18
ATOM     18  S   UNL     1       8.336  16.843  20.700  0.00  0.00    +0.000 S 
ATOM     19  C   UNL     1       8.601  18.293  19.639  0.00  0.00    +0.000 C 
ENDBRANCH   7  18
BRANCH   1  20
ATOM     20  N   UNL     1      10.396  15.224  18.951  0.00  0.00    +0.000 N 
BRANCH  20  21
ATOM     21  C   UNL     1      11.110  15.319  17.659  0.00  0.00    +0.000 C 
ATOM     22  C   UNL     1      10.900  16.635  16.914  0.00  0.00    +0.000 C 
ENDBRANCH  20  21
BRANCH  20  23
ATOM     23  C   UNL     1      11.062  14.443  20.011  0.00  0.00    +0.000 C 
BRANCH  23  24
ATOM     24  C   UNL     1      12.111  13.490  19.430  0.00  0.00    +0.000 C 
BRANCH  24  26
ATOM     25  C   UNL     1      10.603  11.886  20.646  0.00  0.00    +0.000 C 
ATOM     26  C   UNL     1      11.789  12.018  19.704  0.00  0.00    +0.000 C 
ENDBRANCH  24  26
ENDBRANCH  23  24
ENDBRANCH  20  23
ENDBRANCH   1  20
TORSDOF 7
ENDMDL
MODEL 8
REMARK VINA RESULT:      -4.7      7.598      9.896
REMARK  Name = 
REMARK  13 active torsions:
REMARK  status: ('A' for Active; 'I' for Inactive)
REMARK    1  A    between atoms: C_1  and  C_2
REMARK    2  A    between atoms: C_2  and  C_3
REMARK    3  A    between atoms: C_3  and  C_4
REMARK    4  A    between atoms: C_4  and  N_5
REMARK    5  A    between atoms: N_5  and  C_6
REMARK    6  A    between atoms: N_5  and  C_8
REMARK    7  A    between atoms: C_6  and  C_7
REMARK    8  A    between atoms: N_13  and  C_14
REMARK    9  A    between atoms: C_15  and  C_16
REMARK   10  A    between atoms: C_18  and  C_19
REMARK   11  A    between atoms: C_21  and  C_22
REMARK   12  A    between atoms: C_23  and  S_24
REMARK   13  A    between atoms: S_24  and  C_25
REMARK                            x       y       z     vdW  Elec       q    Type
REMARK                         _______ _______ _______ _____ _____    ______ ____
ROOT
ATOM      1  C   UNL     1       8.675  15.454  18.395  0.00  0.00    +0.000 A 
ATOM      2  N   UNL     1       8.494  14.312  17.702  0.00  0.00    +0.000 NA
ATOM      3  C   UNL     1       7.251  13.838  17.613  0.00  0.00    +0.000 A 
ATOM      4  N   UNL     1       6.168  14.406  18.136  0.00  0.00    +0.000 NA
ATOM      5  C   UNL     1       6.346  15.528  18.860  0.00  0.00    +0.000 A 
ATOM      6  N   UNL     1       5.212  16.092  19.509  0.00  0.00    +0.000 N 
ATOM      7  C   UNL     1       7.609  16.102  19.044  0.00  0.00    +0.000 A 
ATOM      8  H   UNL     1       5.166  17.084  19.302  0.00  0.00    +0.000 HD
ENDROOT
BRANCH   6   9
ATOM      9  C   UNL     1       3.948  15.454  19.598  0.00  0.00    +0.000 A 
ATOM     10  C   UNL     1       3.683  14.538  20.646  0.00  0.00    +0.000 A 
ATOM     11  C   UNL     1       4.625  14.298  21.797  0.00  0.00    +0.000 C 
ATOM     12  C   UNL     1       2.512  13.762  20.620  0.00  0.00    +0.000 A 
ATOM     13  C   UNL     1       1.587  13.893  19.588  0.00  0.00    +0.000 A 
ATOM     14  C   UNL     1       0.386  12.998  19.523  0.00  0.00    +0.000 C 
ATOM     15  C   UNL     1       1.806  14.857  18.598  0.00  0.00    +0.000 A 
ATOM     16  C   UNL     1       2.975  15.640  18.586  0.00  0.00    +0.000 A 
ATOM     17  C   UNL     1       3.173  16.609  17.453  0.00  0.00    +0.000 C 
ENDBRANCH   6   9
BRANCH   7  18
ATOM     18  S   UNL     1       7.834  17.550  20.102  0.00  0.00    +0.000 S 
ATOM     19  C   UNL     1       7.998  16.751  21.725  0.00  0.00    +0.000 C 
ENDBRANCH   7  18
BRANCH   1  20
ATOM     20  N   UNL     1       9.992  15.974  18.432  0.00  0.00    +0.000 N 
BRANCH  20  21
ATOM     21  C   UNL     1      10.318  16.740  17.210  0.00  0.00    +0.000 C 
ATOM     22  C   UNL     1      10.612  18.219  17.448  0.00  0.00    +0.000 C 
ENDBRANCH  20  21
BRANCH  20  23
ATOM     23  C   UNL     1      10.997  14.989  18.875  0.00  0.00    +0.000 C 
BRANCH  23  24
ATOM     24  C   UNL     1      10.908  14.737  20.384  0.00  0.00    +0.000 C 
BRANCH  24  26
ATOM     25  C   UNL     1      11.443  12.307  20.018  0.00  0.00    +0.000 C 
ATOM     26  C   UNL     1      10.523  13.294  20.721  0.00  0.00    +0.000 C 
ENDBRANCH  24  26
ENDBRANCH  23  24
ENDBRANCH  20  23
ENDBRANCH   1  20
TORSDOF 7
ENDMDL
MODEL 9
REMARK VINA RESULT:      -4.6      1.754      2.163
REMARK  Name = 
REMARK  13 active torsions:
REMARK  status: ('A' for Active; 'I' for Inactive)
REMARK    1  A    between atoms: C_1  and  C_2
REMARK    2  A    between atoms: C_2  and  C_3
REMARK    3  A    between atoms: C_3  and  C_4
REMARK    4  A    between atoms: C_4  and  N_5
REMARK    5  A    between atoms: N_5  and  C_6
REMARK    6  A    between atoms: N_5  and  C_8
REMARK    7  A    between atoms: C_6  and  C_7
REMARK    8  A    between atoms: N_13  and  C_14
REMARK    9  A    between atoms: C_15  and  C_16
REMARK   10  A    between atoms: C_18  and  C_19
REMARK   11  A    between atoms: C_21  and  C_22
REMARK   12  A    between atoms: C_23  and  S_24
REMARK   13  A    between atoms: S_24  and  C_25
REMARK                            x       y       z     vdW  Elec       q    Type
REMARK                         _______ _______ _______ _____ _____    ______ ____
ROOT
ATOM      1  C   UNL     1      -2.440  15.337  21.440  0.00  0.00    +0.000 A 
ATOM      2  N   UNL     1      -1.322  15.866  20.905  0.00  0.00    +0.000 NA
ATOM      3  C   UNL     1      -0.551  15.061  20.173  0.00  0.00    +0.000 A 
ATOM      4  N   UNL     1      -0.800  13.782  19.909  0.00  0.00    +0.000 NA
ATOM      5  C   UNL     1      -1.898  13.237  20.469  0.00  0.00    +0.000 A 
ATOM      6  N   UNL     1      -2.126  11.845  20.278  0.00  0.00    +0.000 N 
ATOM      7  C   UNL     1      -2.766  13.979  21.278  0.00  0.00    +0.000 A 
ATOM      8  H   UNL     1      -3.082  11.701  19.970  0.00  0.00    +0.000 HD
ENDROOT
BRANCH   6   9
ATOM      9  C   UNL     1      -1.183  10.958  19.697  0.00  0.00    +0.000 A 
ATOM     10  C   UNL     1      -0.148  10.400  20.486  0.00  0.00    +0.000 A 
ATOM     11  C   UNL     1      -0.061  10.567  21.981  0.00  0.00    +0.000 C 
ATOM     12  C   UNL     1       0.894   9.685  19.871  0.00  0.00    +0.000 A 
ATOM     13  C   UNL     1       0.918   9.493  18.493  0.00  0.00    +0.000 A 
ATOM     14  C   UNL     1       2.079   8.807  17.839  0.00  0.00    +0.000 C 
ATOM     15  C   UNL     1      -0.148   9.970  17.723  0.00  0.00    +0.000 A 
ATOM     16  C   UNL     1      -1.200  10.702  18.304  0.00  0.00    +0.000 A 
ATOM     17  C   UNL     1      -2.276  11.241  17.403  0.00  0.00    +0.000 C 
ENDBRANCH   6   9
BRANCH   7  18
ATOM     18  S   UNL     1      -4.176  13.200  22.098  0.00  0.00    +0.000 S 
ATOM     19  C   UNL     1      -3.368  12.532  23.581  0.00  0.00    +0.000 C 
ENDBRANCH   7  18
BRANCH   1  20
ATOM     20  N   UNL     1      -3.277  16.219  22.167  0.00  0.00    +0.000 N 
BRANCH  20  21
ATOM     21  C   UNL     1      -4.309  16.836  21.306  0.00  0.00    +0.000 C 
ATOM     22  C   UNL     1      -4.012  18.276  20.895  0.00  0.00    +0.000 C 
ENDBRANCH  20  21
BRANCH  20  23
ATOM     23  C   UNL     1      -2.532  17.132  23.055  0.00  0.00    +0.000 C 
BRANCH  23  24
ATOM     24  C   UNL     1      -3.093  17.110  24.480  0.00  0.00    +0.000 C 
BRANCH  24  26
ATOM     25  C   UNL     1      -1.809  15.506  25.932  0.00  0.00    +0.000 C 
ATOM     26  C   UNL     1      -3.069  15.712  25.104  0.00  0.00    +0.000 C 
ENDBRANCH  24  26
ENDBRANCH  23  24
ENDBRANCH  20  23
ENDBRANCH   1  20
TORSDOF 7
ENDMDL
