MODEL 1
REMARK VINA RESULT:      -6.1      0.000      0.000
REMARK  Name = 
REMARK  5 active torsions:
REMARK  status: ('A' for Active; 'I' for Inactive)
REMARK    1  A    between atoms: C_1  and  C_2
REMARK    2  A    between atoms: C_4  and  C_5
REMARK    3  A    between atoms: C_6  and  C_7
REMARK    4  A    between atoms: C_7  and  C_8
REMARK    5  A    between atoms: C_7  and  C_9
REMARK                            x       y       z     vdW  Elec       q    Type
REMARK                         _______ _______ _______ _____ _____    ______ ____
ROOT
ATOM      1  C   UNL     1       4.726   4.288  18.972  0.00  0.00    +0.000 C 
ATOM      2  C   UNL     1       4.145   5.603  19.503  0.00  0.00    +0.000 C 
ENDROOT
BRANCH   1   8
ATOM      3  C   UNL     1       6.842   4.531  14.067  0.00  0.00    +0.000 C 
ATOM      4  C   UNL     1       6.578   4.631  15.527  0.00  0.00    +0.000 A 
ATOM      5  N   UNL     1       7.447   5.060  16.412  0.00  0.00    +0.000 NA
ATOM      6  C   UNL     1       6.909   4.992  17.689  0.00  0.00    +0.000 A 
ATOM      7  C   UNL     1       7.766   5.443  18.818  0.00  0.00    +0.000 C 
ATOM      8  C   UNL     1       5.608   4.504  17.755  0.00  0.00    +0.000 A 
ATOM      9  S   UNL     1       5.057   4.167  16.157  0.00  0.00    +0.000 S 
ENDBRANCH   1   8
BRANCH   1  10
ATOM     10  C   UNL     1       3.651   3.252  18.755  0.00  0.00    +0.000 A 
ATOM     11  C   UNL     1       3.736   1.874  18.715  0.00  0.00    +0.000 A 
ATOM     12  N   UNL     1       2.464   1.434  18.470  0.00  0.00    +0.000 N 
ATOM     13  C   UNL     1       1.667   2.533  18.339  0.00  0.00    +0.000 A 
ATOM     14  N   UNL     1       2.350   3.642  18.502  0.00  0.00    +0.000 NA
ATOM     15  H   UNL     1       2.166   0.471  18.393  0.00  0.00    +0.000 HD
ENDBRANCH   1  10
TORSDOF 2
ENDMDL
MODEL 2
REMARK VINA RESULT:      -6.1      1.447      1.786
REMARK  Name = 
REMARK  5 active torsions:
REMARK  status: ('A' for Active; 'I' for Inactive)
REMARK    1  A    between atoms: C_1  and  C_2
REMARK    2  A    between atoms: C_4  and  C_5
REMARK    3  A    between atoms: C_6  and  C_7
REMARK    4  A    between atoms: C_7  and  C_8
REMARK    5  A    between atoms: C_7  and  C_9
REMARK                            x       y       z     vdW  Elec       q    Type
REMARK                         _______ _______ _______ _____ _____    ______ ____
ROOT
ATOM      1  C   UNL     1       4.627   5.709  18.467  0.00  0.00    +0.000 C 
ATOM      2  C   UNL     1       3.443   6.644  18.199  0.00  0.00    +0.000 C 
ENDROOT
BRANCH   1   8
ATOM      3  C   UNL     1       6.726   4.182  13.792  0.00  0.00    +0.000 C 
ATOM      4  C   UNL     1       6.447   4.830  15.101  0.00  0.00    +0.000 A 
ATOM      5  N   UNL     1       7.262   5.661  15.708  0.00  0.00    +0.000 NA
ATOM      6  C   UNL     1       6.728   6.054  16.927  0.00  0.00    +0.000 A 
ATOM      7  C   UNL     1       7.528   7.001  17.750  0.00  0.00    +0.000 C 
ATOM      8  C   UNL     1       5.486   5.507  17.232  0.00  0.00    +0.000 A 
ATOM      9  S   UNL     1       4.981   4.508  15.921  0.00  0.00    +0.000 S 
ENDBRANCH   1   8
BRANCH   1  10
ATOM     10  C   UNL     1       4.181   4.415  19.103  0.00  0.00    +0.000 A 
ATOM     11  C   UNL     1       2.925   4.009  19.509  0.00  0.00    +0.000 A 
ATOM     12  N   UNL     1       3.095   2.757  20.035  0.00  0.00    +0.000 N 
ATOM     13  C   UNL     1       4.424   2.460  19.966  0.00  0.00    +0.000 A 
ATOM     14  N   UNL     1       5.105   3.437  19.414  0.00  0.00    +0.000 NA
ATOM     15  H   UNL     1       2.372   2.161  20.414  0.00  0.00    +0.000 HD
ENDBRANCH   1  10
TORSDOF 2
ENDMDL
MODEL 3
REMARK VINA RESULT:      -6.0      1.863      5.112
REMARK  Name = 
REMARK  5 active torsions:
REMARK  status: ('A' for Active; 'I' for Inactive)
REMARK    1  A    between atoms: C_1  and  C_2
REMARK    2  A    between atoms: C_4  and  C_5
REMARK    3  A    between atoms: C_6  and  C_7
REMARK    4  A    between atoms: C_7  and  C_8
REMARK    5  A    between atoms: C_7  and  C_9
REMARK                            x       y       z     vdW  Elec       q    Type
REMARK                         _______ _______ _______ _____ _____    ______ ____
ROOT
ATOM      1  C   UNL     1       5.531   4.430  16.818  0.00  0.00    +0.000 C 
ATOM      2  C   UNL     1       5.451   4.970  15.386  0.00  0.00    +0.000 C 
ENDROOT
BRANCH   1   8
ATOM      3  C   UNL     1       0.925   2.605  18.828  0.00  0.00    +0.000 C 
ATOM      4  C   UNL     1       2.063   3.446  18.373  0.00  0.00    +0.000 A 
ATOM      5  N   UNL     1       2.071   4.759  18.390  0.00  0.00    +0.000 NA
ATOM      6  C   UNL     1       3.260   5.241  17.861  0.00  0.00    +0.000 A 
ATOM      7  C   UNL     1       3.436   6.717  17.806  0.00  0.00    +0.000 C 
ATOM      8  C   UNL     1       4.159   4.265  17.444  0.00  0.00    +0.000 A 
ATOM      9  S   UNL     1       3.485   2.712  17.771  0.00  0.00    +0.000 S 
ENDBRANCH   1   8
BRANCH   1  10
ATOM     10  C   UNL     1       6.482   5.241  17.665  0.00  0.00    +0.000 A 
ATOM     11  C   UNL     1       7.180   6.394  17.366  0.00  0.00    +0.000 A 
ATOM     12  N   UNL     1       7.905   6.688  18.489  0.00  0.00    +0.000 N 
ATOM     13  C   UNL     1       7.658   5.707  19.404  0.00  0.00    +0.000 A 
ATOM     14  N   UNL     1       6.809   4.820  18.940  0.00  0.00    +0.000 NA
ATOM     15  H   UNL     1       8.518   7.481  18.618  0.00  0.00    +0.000 HD
ENDBRANCH   1  10
TORSDOF 2
ENDMDL
MODEL 4
REMARK VINA RESULT:      -5.9      2.261      3.162
REMARK  Name = 
REMARK  5 active torsions:
REMARK  status: ('A' for Active; 'I' for Inactive)
REMARK    1  A    between atoms: C_1  and  C_2
REMARK    2  A    between atoms: C_4  and  C_5
REMARK    3  A    between atoms: C_6  and  C_7
REMARK    4  A    between atoms: C_7  and  C_8
REMARK    5  A    between atoms: C_7  and  C_9
REMARK                            x       y       z     vdW  Elec       q    Type
REMARK                         _______ _______ _______ _____ _____    ______ ____
ROOT
ATOM      1  C   UNL     1       2.180   4.836  18.725  0.00  0.00    +0.000 C 
ATOM      2  C   UNL     1       1.408   4.156  17.589  0.00  0.00    +0.000 C 
ENDROOT
BRANCH   1   8
ATOM      3  C   UNL     1       7.436   4.760  17.749  0.00  0.00    +0.000 C 
ATOM      4  C   UNL     1       6.000   5.128  17.872  0.00  0.00    +0.000 A 
ATOM      5  N   UNL     1       5.510   6.313  17.594  0.00  0.00    +0.000 NA
ATOM      6  C   UNL     1       4.147   6.344  17.853  0.00  0.00    +0.000 A 
ATOM      7  C   UNL     1       3.429   7.619  17.591  0.00  0.00    +0.000 C 
ATOM      8  C   UNL     1       3.611   5.153  18.333  0.00  0.00    +0.000 A 
ATOM      9  S   UNL     1       4.863   3.971  18.413  0.00  0.00    +0.000 S 
ENDBRANCH   1   8
BRANCH   1  10
ATOM     10  C   UNL     1       2.070   4.059  20.014  0.00  0.00    +0.000 A 
ATOM     11  C   UNL     1       2.378   4.432  21.308  0.00  0.00    +0.000 A 
ATOM     12  N   UNL     1       2.105   3.338  22.081  0.00  0.00    +0.000 N 
ATOM     13  C   UNL     1       1.681   2.343  21.250  0.00  0.00    +0.000 A 
ATOM     14  N   UNL     1       1.651   2.743  20.000  0.00  0.00    +0.000 NA
ATOM     15  H   UNL     1       2.204   3.271  23.085  0.00  0.00    +0.000 HD
ENDBRANCH   1  10
TORSDOF 2
ENDMDL
MODEL 5
REMARK VINA RESULT:      -5.8      1.250      1.334
REMARK  Name = 
REMARK  5 active torsions:
REMARK  status: ('A' for Active; 'I' for Inactive)
REMARK    1  A    between atoms: C_1  and  C_2
REMARK    2  A    between atoms: C_4  and  C_5
REMARK    3  A    between atoms: C_6  and  C_7
REMARK    4  A    between atoms: C_7  and  C_8
REMARK    5  A    between atoms: C_7  and  C_9
REMARK                            x       y       z     vdW  Elec       q    Type
REMARK                         _______ _______ _______ _____ _____    ______ ____
ROOT
ATOM      1  C   UNL     1       4.590   5.619  18.289  0.00  0.00    +0.000 C 
ATOM      2  C   UNL     1       3.535   6.713  18.093  0.00  0.00    +0.000 C 
ENDROOT
BRANCH   1   8
ATOM      3  C   UNL     1       6.736   4.091  13.637  0.00  0.00    +0.000 C 
ATOM      4  C   UNL     1       6.434   4.753  14.934  0.00  0.00    +0.000 A 
ATOM      5  N   UNL     1       7.216   5.628  15.522  0.00  0.00    +0.000 NA
ATOM      6  C   UNL     1       6.670   6.023  16.735  0.00  0.00    +0.000 A 
ATOM      7  C   UNL     1       7.431   7.017  17.537  0.00  0.00    +0.000 C 
ATOM      8  C   UNL     1       5.453   5.430  17.056  0.00  0.00    +0.000 A 
ATOM      9  S   UNL     1       4.986   4.385  15.766  0.00  0.00    +0.000 S 
ENDBRANCH   1   8
BRANCH   1  10
ATOM     10  C   UNL     1       3.974   4.336  18.792  0.00  0.00    +0.000 A 
ATOM     11  C   UNL     1       4.564   3.238  19.386  0.00  0.00    +0.000 A 
ATOM     12  N   UNL     1       3.546   2.356  19.623  0.00  0.00    +0.000 N 
ATOM     13  C   UNL     1       2.398   2.917  19.146  0.00  0.00    +0.000 A 
ATOM     14  N   UNL     1       2.621   4.107  18.638  0.00  0.00    +0.000 NA
ATOM     15  H   UNL     1       3.625   1.450  20.064  0.00  0.00    +0.000 HD
ENDBRANCH   1  10
TORSDOF 2
ENDMDL
MODEL 6
REMARK VINA RESULT:      -5.8      1.335      1.516
REMARK  Name = 
REMARK  5 active torsions:
REMARK  status: ('A' for Active; 'I' for Inactive)
REMARK    1  A    between atoms: C_1  and  C_2
REMARK    2  A    between atoms: C_4  and  C_5
REMARK    3  A    between atoms: C_6  and  C_7
REMARK    4  A    between atoms: C_7  and  C_8
REMARK    5  A    between atoms: C_7  and  C_9
REMARK                            x       y       z     vdW  Elec       q    Type
REMARK                         _______ _______ _______ _____ _____    ______ ____
ROOT
ATOM      1  C   UNL     1       4.457   5.353  17.930  0.00  0.00    +0.000 C 
ATOM      2  C   UNL     1       3.590   6.615  17.892  0.00  0.00    +0.000 C 
ENDROOT
BRANCH   1   8
ATOM      3  C   UNL     1       7.218   4.532  13.425  0.00  0.00    +0.000 C 
ATOM      4  C   UNL     1       6.747   4.977  14.763  0.00  0.00    +0.000 A 
ATOM      5  N   UNL     1       7.457   5.699  15.598  0.00  0.00    +0.000 NA
ATOM      6  C   UNL     1       6.751   5.909  16.774  0.00  0.00    +0.000 A 
ATOM      7  C   UNL     1       7.413   6.713  17.836  0.00  0.00    +0.000 C 
ATOM      8  C   UNL     1       5.485   5.333  16.814  0.00  0.00    +0.000 A 
ATOM      9  S   UNL     1       5.185   4.547  15.309  0.00  0.00    +0.000 S 
ENDBRANCH   1   8
BRANCH   1  10
ATOM     10  C   UNL     1       3.615   4.101  17.991  0.00  0.00    +0.000 A 
ATOM     11  C   UNL     1       2.289   3.903  17.661  0.00  0.00    +0.000 A 
ATOM     12  N   UNL     1       2.037   2.585  17.927  0.00  0.00    +0.000 N 
ATOM     13  C   UNL     1       3.182   2.042  18.432  0.00  0.00    +0.000 A 
ATOM     14  N   UNL     1       4.149   2.927  18.486  0.00  0.00    +0.000 NA
ATOM     15  H   UNL     1       1.162   2.100  17.785  0.00  0.00    +0.000 HD
ENDBRANCH   1  10
TORSDOF 2
ENDMDL
MODEL 7
REMARK VINA RESULT:      -5.8      2.096      5.439
REMARK  Name = 
REMARK  5 active torsions:
REMARK  status: ('A' for Active; 'I' for Inactive)
REMARK    1  A    between atoms: C_1  and  C_2
REMARK    2  A    between atoms: C_4  and  C_5
REMARK    3  A    between atoms: C_6  and  C_7
REMARK    4  A    between atoms: C_7  and  C_8
REMARK    5  A    between atoms: C_7  and  C_9
REMARK                            x       y       z     vdW  Elec       q    Type
REMARK                         _______ _______ _______ _____ _____    ______ ____
ROOT
ATOM      1  C   UNL     1       5.658   4.552  17.529  0.00  0.00    +0.000 C 
ATOM      2  C   UNL     1       5.160   4.661  16.084  0.00  0.00    +0.000 C 
ENDROOT
BRANCH   1   8
ATOM      3  C   UNL     1       2.111   3.053  21.238  0.00  0.00    +0.000 C 
ATOM      4  C   UNL     1       2.902   3.792  20.218  0.00  0.00    +0.000 A 
ATOM      5  N   UNL     1       2.594   4.983  19.760  0.00  0.00    +0.000 NA
ATOM      6  C   UNL     1       3.505   5.375  18.789  0.00  0.00    +0.000 A 
ATOM      7  C   UNL     1       3.303   6.708  18.161  0.00  0.00    +0.000 C 
ATOM      8  C   UNL     1       4.515   4.457  18.522  0.00  0.00    +0.000 A 
ATOM      9  S   UNL     1       4.315   3.093  19.556  0.00  0.00    +0.000 S 
ENDBRANCH   1   8
BRANCH   1  10
ATOM     10  C   UNL     1       6.649   5.642  17.858  0.00  0.00    +0.000 A 
ATOM     11  C   UNL     1       7.503   5.773  18.936  0.00  0.00    +0.000 A 
ATOM     12  N   UNL     1       8.161   6.957  18.742  0.00  0.00    +0.000 N 
ATOM     13  C   UNL     1       7.674   7.514  17.596  0.00  0.00    +0.000 A 
ATOM     14  N   UNL     1       6.762   6.750  17.042  0.00  0.00    +0.000 NA
ATOM     15  H   UNL     1       8.873   7.353  19.339  0.00  0.00    +0.000 HD
ENDBRANCH   1  10
TORSDOF 2
ENDMDL
MODEL 8
REMARK VINA RESULT:      -5.8      2.285      5.465
REMARK  Name = 
REMARK  5 active torsions:
REMARK  status: ('A' for Active; 'I' for Inactive)
REMARK    1  A    between atoms: C_1  and  C_2
REMARK    2  A    between atoms: C_4  and  C_5
REMARK    3  A    between atoms: C_6  and  C_7
REMARK    4  A    between atoms: C_7  and  C_8
REMARK    5  A    between atoms: C_7  and  C_9
REMARK                            x       y       z     vdW  Elec       q    Type
REMARK                         _______ _______ _______ _____ _____    ______ ____
ROOT
ATOM      1  C   UNL     1       5.171   4.109  17.841  0.00  0.00    +0.000 C 
ATOM      2  C   UNL     1       4.608   4.285  16.427  0.00  0.00    +0.000 C 
ENDROOT
BRANCH   1   8
ATOM      3  C   UNL     1       1.677   2.757  21.655  0.00  0.00    +0.000 C 
ATOM      4  C   UNL     1       2.490   3.473  20.636  0.00  0.00    +0.000 A 
ATOM      5  N   UNL     1       2.291   4.717  20.267  0.00  0.00    +0.000 NA
ATOM      6  C   UNL     1       3.188   5.073  19.270  0.00  0.00    +0.000 A 
ATOM      7  C   UNL     1       3.102   6.457  18.734  0.00  0.00    +0.000 C 
ATOM      8  C   UNL     1       4.077   4.071  18.891  0.00  0.00    +0.000 A 
ATOM      9  S   UNL     1       3.782   2.672  19.854  0.00  0.00    +0.000 S 
ENDBRANCH   1   8
BRANCH   1  10
ATOM     10  C   UNL     1       6.253   5.119  18.138  0.00  0.00    +0.000 A 
ATOM     11  C   UNL     1       6.656   6.229  17.423  0.00  0.00    +0.000 A 
ATOM     12  N   UNL     1       7.687   6.773  18.138  0.00  0.00    +0.000 N 
ATOM     13  C   UNL     1       7.899   5.977  19.225  0.00  0.00    +0.000 A 
ATOM     14  N   UNL     1       7.055   4.971  19.253  0.00  0.00    +0.000 NA
ATOM     15  H   UNL     1       8.206   7.609  17.905  0.00  0.00    +0.000 HD
ENDBRANCH   1  10
TORSDOF 2
ENDMDL
MODEL 9
REMARK VINA RESULT:      -5.8      1.972      4.975
REMARK  Name = 
REMARK  5 active torsions:
REMARK  status: ('A' for Active; 'I' for Inactive)
REMARK    1  A    between atoms: C_1  and  C_2
REMARK    2  A    between atoms: C_4  and  C_5
REMARK    3  A    between atoms: C_6  and  C_7
REMARK    4  A    between atoms: C_7  and  C_8
REMARK    5  A    between atoms: C_7  and  C_9
REMARK                            x       y       z     vdW  Elec       q    Type
REMARK                         _______ _______ _______ _____ _____    ______ ____
ROOT
ATOM      1  C   UNL     1       6.172   5.740  17.627  0.00  0.00    +0.000 C 
ATOM      2  C   UNL     1       7.404   5.453  18.491  0.00  0.00    +0.000 C 
ENDROOT
BRANCH   1   8
ATOM      3  C   UNL     1       2.253   3.418  20.428  0.00  0.00    +0.000 C 
ATOM      4  C   UNL     1       3.092   4.344  19.621  0.00  0.00    +0.000 A 
ATOM      5  N   UNL     1       2.672   5.484  19.124  0.00  0.00    +0.000 NA
ATOM      6  C   UNL     1       3.681   6.089  18.387  0.00  0.00    +0.000 A 
ATOM      7  C   UNL     1       3.373   7.397  17.750  0.00  0.00    +0.000 C 
ATOM      8  C   UNL     1       4.879   5.384  18.338  0.00  0.00    +0.000 A 
ATOM      9  S   UNL     1       4.720   3.950  19.281  0.00  0.00    +0.000 S 
ENDBRANCH   1   8
BRANCH   1  10
ATOM     10  C   UNL     1       6.294   5.113  16.259  0.00  0.00    +0.000 A 
ATOM     11  C   UNL     1       5.581   4.078  15.686  0.00  0.00    +0.000 A 
ATOM     12  N   UNL     1       6.118   3.907  14.439  0.00  0.00    +0.000 N 
ATOM     13  C   UNL     1       7.141   4.800  14.307  0.00  0.00    +0.000 A 
ATOM     14  N   UNL     1       7.275   5.538  15.384  0.00  0.00    +0.000 NA
ATOM     15  H   UNL     1       5.820   3.239  13.743  0.00  0.00    +0.000 HD
ENDBRANCH   1  10
TORSDOF 2
ENDMDL
