MODEL 1
REMARK VINA RESULT:      -7.3      0.000      0.000
REMARK  Name = 
REMARK  7 active torsions:
REMARK  status: ('A' for Active; 'I' for Inactive)
REMARK    1  A    between atoms: C_1  and  C_2
REMARK    2  A    between atoms: C_4  and  S_5
REMARK    3  A    between atoms: S_5  and  N_8
REMARK    4  A    between atoms: N_8  and  C_9
REMARK    5  A    between atoms: C_18  and  C_19
REMARK    6  A    between atoms: C_23  and  N_24
REMARK    7  A    between atoms: C_28  and  S_29
REMARK                            x       y       z     vdW  Elec       q    Type
REMARK                         _______ _______ _______ _____ _____    ______ ____
ROOT
ATOM      1  C   UNL     1      -3.874  13.569  22.634  0.00  0.00    +0.000 A 
ATOM      2  N   UNL     1      -4.827  14.339  23.197  0.00  0.00    +0.000 NA
ATOM      3  C   UNL     1      -4.416  15.444  23.839  0.00  0.00    +0.000 A 
ATOM      4  C   UNL     1      -5.359  16.274  24.429  0.00  0.00    +0.000 A 
ATOM      5  C   UNL     1      -4.978  17.421  25.123  0.00  0.00    +0.000 A 
ATOM      6  C   UNL     1      -3.631  17.738  25.236  0.00  0.00    +0.000 A 
ATOM      7  C   UNL     1      -2.677  16.916  24.636  0.00  0.00    +0.000 A 
ATOM      8  C   UNL     1      -3.046  15.781  23.925  0.00  0.00    +0.000 A 
ATOM      9  N   UNL     1      -2.103  15.018  23.338  0.00  0.00    +0.000 NA
ATOM     10  C   UNL     1      -2.504  13.898  22.674  0.00  0.00    +0.000 A 
ENDROOT
BRANCH  10  11
ATOM     11  C   UNL     1      -1.382  13.117  22.094  0.00  0.00    +0.000 A 
ATOM     12  C   UNL     1      -0.583  13.584  21.035  0.00  0.00    +0.000 A 
ATOM     13  C   UNL     1       0.403  12.781  20.446  0.00  0.00    +0.000 A 
ATOM     14  C   UNL     1       0.654  11.503  20.934  0.00  0.00    +0.000 A 
ATOM     15  C   UNL     1      -0.057  11.050  22.048  0.00  0.00    +0.000 A 
ATOM     16  C   UNL     1      -1.059  11.847  22.625  0.00  0.00    +0.000 A 
BRANCH  15  17
ATOM     17  N   UNL     1       0.246   9.728  22.615  0.00  0.00    +0.000 N 
ATOM     18  O   UNL     1       0.321   9.637  23.850  0.00  0.00    +0.000 OA
ATOM     19  O   UNL     1       0.391   8.782  21.831  0.00  0.00    +0.000 OA
ENDBRANCH  15  17
ENDBRANCH  10  11
BRANCH   1  20
ATOM     20  N   UNL     1      -4.458  12.409  22.062  0.00  0.00    +0.000 N 
ATOM     21  H   UNL     1      -4.793  11.698  22.703  0.00  0.00    +0.000 HD
BRANCH  20  22
ATOM     22  S   UNL     1      -5.571  12.659  20.835  0.00  0.00    +0.000 S 
ATOM     23  O   UNL     1      -5.923  14.057  20.773  0.00  0.00    +0.000 OA
ATOM     24  O   UNL     1      -6.577  11.642  21.072  0.00  0.00    +0.000 OA
BRANCH  22  28
ATOM     25  C   UNL     1      -1.457  10.801  18.079  0.00  0.00    +0.000 C 
ATOM     26  C   UNL     1      -2.870  11.320  18.067  0.00  0.00    +0.000 A 
ATOM     27  C   UNL     1      -3.461  11.776  19.262  0.00  0.00    +0.000 A 
ATOM     28  C   UNL     1      -4.799  12.215  19.289  0.00  0.00    +0.000 A 
ATOM     29  C   UNL     1      -5.557  12.227  18.105  0.00  0.00    +0.000 A 
ATOM     30  C   UNL     1      -4.955  11.775  16.916  0.00  0.00    +0.000 A 
ATOM     31  C   UNL     1      -3.637  11.318  16.897  0.00  0.00    +0.000 A 
ATOM     32 CL   UNL     1      -3.007  10.731  15.398  0.00  0.00    +0.000 Cl
BRANCH  29  33
ATOM     33  S   UNL     1      -7.250  12.780  17.919  0.00  0.00    +0.000 S 
ATOM     34  H   UNL     1      -7.677  12.595  19.177  0.00  0.00    +0.000 HD
ENDBRANCH  29  33
ENDBRANCH  22  28
ENDBRANCH  20  22
ENDBRANCH   1  20
TORSDOF 6
ENDMDL
MODEL 2
REMARK VINA RESULT:      -7.2      3.674      7.656
REMARK  Name = 
REMARK  7 active torsions:
REMARK  status: ('A' for Active; 'I' for Inactive)
REMARK    1  A    between atoms: C_1  and  C_2
REMARK    2  A    between atoms: C_4  and  S_5
REMARK    3  A    between atoms: S_5  and  N_8
REMARK    4  A    between atoms: N_8  and  C_9
REMARK    5  A    between atoms: C_18  and  C_19
REMARK    6  A    between atoms: C_23  and  N_24
REMARK    7  A    between atoms: C_28  and  S_29
REMARK                            x       y       z     vdW  Elec       q    Type
REMARK                         _______ _______ _______ _____ _____    ______ ____
ROOT
ATOM      1  C   UNL     1      -2.244  11.988  20.064  0.00  0.00    +0.000 A 
ATOM      2  N   UNL     1      -1.667  11.255  19.090  0.00  0.00    +0.000 NA
ATOM      3  C   UNL     1      -2.405  11.009  17.996  0.00  0.00    +0.000 A 
ATOM      4  C   UNL     1      -1.854  10.266  16.962  0.00  0.00    +0.000 A 
ATOM      5  C   UNL     1      -2.588   9.968  15.815  0.00  0.00    +0.000 A 
ATOM      6  C   UNL     1      -3.899  10.414  15.706  0.00  0.00    +0.000 A 
ATOM      7  C   UNL     1      -4.456  11.172  16.735  0.00  0.00    +0.000 A 
ATOM      8  C   UNL     1      -3.728  11.491  17.874  0.00  0.00    +0.000 A 
ATOM      9  N   UNL     1      -4.287  12.243  18.843  0.00  0.00    +0.000 NA
ATOM     10  C   UNL     1      -3.549  12.511  19.956  0.00  0.00    +0.000 A 
ENDROOT
BRANCH  10  11
ATOM     11  C   UNL     1      -4.273  13.319  20.969  0.00  0.00    +0.000 A 
ATOM     12  C   UNL     1      -4.363  14.722  20.918  0.00  0.00    +0.000 A 
ATOM     13  C   UNL     1      -4.968  15.460  21.943  0.00  0.00    +0.000 A 
ATOM     14  C   UNL     1      -5.549  14.812  23.029  0.00  0.00    +0.000 A 
ATOM     15  C   UNL     1      -5.560  13.415  23.058  0.00  0.00    +0.000 A 
ATOM     16  C   UNL     1      -4.936  12.677  22.040  0.00  0.00    +0.000 A 
BRANCH  15  17
ATOM     17  N   UNL     1      -6.230  12.717  24.165  0.00  0.00    +0.000 N 
ATOM     18  O   UNL     1      -5.530  12.005  24.901  0.00  0.00    +0.000 OA
ATOM     19  O   UNL     1      -7.446  12.893  24.308  0.00  0.00    +0.000 OA
ENDBRANCH  15  17
ENDBRANCH  10  11
BRANCH   1  20
ATOM     20  N   UNL     1      -1.369  12.099  21.176  0.00  0.00    +0.000 N 
ATOM     21  H   UNL     1      -0.938  11.243  21.509  0.00  0.00    +0.000 HD
BRANCH  20  22
ATOM     22  S   UNL     1      -0.241  13.336  21.120  0.00  0.00    +0.000 S 
ATOM     23  O   UNL     1      -0.376  14.064  19.883  0.00  0.00    +0.000 OA
ATOM     24  O   UNL     1       1.004  12.680  21.473  0.00  0.00    +0.000 OA
BRANCH  22  28
ATOM     25  C   UNL     1      -2.907  14.640  25.498  0.00  0.00    +0.000 C 
ATOM     26  C   UNL     1      -1.834  14.997  24.505  0.00  0.00    +0.000 A 
ATOM     27  C   UNL     1      -1.619  14.178  23.379  0.00  0.00    +0.000 A 
ATOM     28  C   UNL     1      -0.585  14.458  22.464  0.00  0.00    +0.000 A 
ATOM     29  C   UNL     1       0.234  15.585  22.655  0.00  0.00    +0.000 A 
ATOM     30  C   UNL     1       0.006  16.400  23.779  0.00  0.00    +0.000 A 
ATOM     31  C   UNL     1      -1.003  16.105  24.698  0.00  0.00    +0.000 A 
ATOM     32 CL   UNL     1      -1.166  17.136  26.076  0.00  0.00    +0.000 Cl
BRANCH  29  33
ATOM     33  S   UNL     1       1.567  16.136  21.594  0.00  0.00    +0.000 S 
ATOM     34  H   UNL     1       1.637  15.080  20.769  0.00  0.00    +0.000 HD
ENDBRANCH  29  33
ENDBRANCH  22  28
ENDBRANCH  20  22
ENDBRANCH   1  20
TORSDOF 6
ENDMDL
MODEL 3
REMARK VINA RESULT:      -7.1      3.441      7.214
REMARK  Name = 
REMARK  7 active torsions:
REMARK  status: ('A' for Active; 'I' for Inactive)
REMARK    1  A    between atoms: C_1  and  C_2
REMARK    2  A    between atoms: C_4  and  S_5
REMARK    3  A    between atoms: S_5  and  N_8
REMARK    4  A    between atoms: N_8  and  C_9
REMARK    5  A    between atoms: C_18  and  C_19
REMARK    6  A    between atoms: C_23  and  N_24
REMARK    7  A    between atoms: C_28  and  S_29
REMARK                            x       y       z     vdW  Elec       q    Type
REMARK                         _______ _______ _______ _____ _____    ______ ____
ROOT
ATOM      1  C   UNL     1      -2.421  11.883  19.867  0.00  0.00    +0.000 A 
ATOM      2  N   UNL     1      -1.849  11.161  18.882  0.00  0.00    +0.000 NA
ATOM      3  C   UNL     1      -2.578  10.963  17.772  0.00  0.00    +0.000 A 
ATOM      4  C   UNL     1      -2.032  10.233  16.726  0.00  0.00    +0.000 A 
ATOM      5  C   UNL     1      -2.758   9.985  15.562  0.00  0.00    +0.000 A 
ATOM      6  C   UNL     1      -4.055  10.469  15.447  0.00  0.00    +0.000 A 
ATOM      7  C   UNL     1      -4.607  11.214  16.489  0.00  0.00    +0.000 A 
ATOM      8  C   UNL     1      -3.886  11.484  17.645  0.00  0.00    +0.000 A 
ATOM      9  N   UNL     1      -4.439  12.225  18.626  0.00  0.00    +0.000 NA
ATOM     10  C   UNL     1      -3.709  12.444  19.756  0.00  0.00    +0.000 A 
ENDROOT
BRANCH  10  11
ATOM     11  C   UNL     1      -4.426  13.244  20.780  0.00  0.00    +0.000 A 
ATOM     12  C   UNL     1      -4.560  14.642  20.713  0.00  0.00    +0.000 A 
ATOM     13  C   UNL     1      -5.155  15.376  21.748  0.00  0.00    +0.000 A 
ATOM     14  C   UNL     1      -5.682  14.726  22.859  0.00  0.00    +0.000 A 
ATOM     15  C   UNL     1      -5.651  13.331  22.907  0.00  0.00    +0.000 A 
ATOM     16  C   UNL     1      -5.036  12.597  21.880  0.00  0.00    +0.000 A 
BRANCH  15  17
ATOM     17  N   UNL     1      -6.264  12.628  24.044  0.00  0.00    +0.000 N 
ATOM     18  O   UNL     1      -7.500  12.663  24.140  0.00  0.00    +0.000 OA
ATOM     19  O   UNL     1      -5.516  12.032  24.828  0.00  0.00    +0.000 OA
ENDBRANCH  15  17
ENDBRANCH  10  11
BRANCH   1  20
ATOM     20  N   UNL     1      -1.559  11.941  20.994  0.00  0.00    +0.000 N 
ATOM     21  H   UNL     1      -1.744  11.289  21.749  0.00  0.00    +0.000 HD
BRANCH  20  22
ATOM     22  S   UNL     1       0.084  12.012  20.676  0.00  0.00    +0.000 S 
ATOM     23  O   UNL     1       0.781  12.540  21.822  0.00  0.00    +0.000 OA
ATOM     24  O   UNL     1       0.155  12.669  19.385  0.00  0.00    +0.000 OA
BRANCH  22  28
ATOM     25  C   UNL     1       2.511   8.400  17.669  0.00  0.00    +0.000 C 
ATOM     26  C   UNL     1       1.823   8.724  18.968  0.00  0.00    +0.000 A 
ATOM     27  C   UNL     1       1.264  10.001  19.168  0.00  0.00    +0.000 A 
ATOM     28  C   UNL     1       0.665  10.348  20.394  0.00  0.00    +0.000 A 
ATOM     29  C   UNL     1       0.595   9.403  21.433  0.00  0.00    +0.000 A 
ATOM     30  C   UNL     1       1.151   8.127  21.221  0.00  0.00    +0.000 A 
ATOM     31  C   UNL     1       1.767   7.795  20.013  0.00  0.00    +0.000 A 
ATOM     32 CL   UNL     1       2.469   6.222  19.871  0.00  0.00    +0.000 Cl
BRANCH  29  33
ATOM     33  S   UNL     1      -0.155   9.629  23.043  0.00  0.00    +0.000 S 
ATOM     34  H   UNL     1       0.753   8.991  23.796  0.00  0.00    +0.000 HD
ENDBRANCH  29  33
ENDBRANCH  22  28
ENDBRANCH  20  22
ENDBRANCH   1  20
TORSDOF 6
ENDMDL
MODEL 4
REMARK VINA RESULT:      -6.8      4.098      7.359
REMARK  Name = 
REMARK  7 active torsions:
REMARK  status: ('A' for Active; 'I' for Inactive)
REMARK    1  A    between atoms: C_1  and  C_2
REMARK    2  A    between atoms: C_4  and  S_5
REMARK    3  A    between atoms: S_5  and  N_8
REMARK    4  A    between atoms: N_8  and  C_9
REMARK    5  A    between atoms: C_18  and  C_19
REMARK    6  A    between atoms: C_23  and  N_24
REMARK    7  A    between atoms: C_28  and  S_29
REMARK                            x       y       z     vdW  Elec       q    Type
REMARK                         _______ _______ _______ _____ _____    ______ ____
ROOT
ATOM      1  C   UNL     1      -0.652  11.042  19.246  0.00  0.00    +0.000 A 
ATOM      2  N   UNL     1      -0.835  10.386  18.082  0.00  0.00    +0.000 NA
ATOM      3  C   UNL     1      -2.012  10.564  17.462  0.00  0.00    +0.000 A 
ATOM      4  C   UNL     1      -2.245   9.917  16.257  0.00  0.00    +0.000 A 
ATOM      5  C   UNL     1      -3.459  10.056  15.586  0.00  0.00    +0.000 A 
ATOM      6  C   UNL     1      -4.459  10.848  16.135  0.00  0.00    +0.000 A 
ATOM      7  C   UNL     1      -4.227  11.513  17.339  0.00  0.00    +0.000 A 
ATOM      8  C   UNL     1      -3.014  11.397  18.007  0.00  0.00    +0.000 A 
ATOM      9  N   UNL     1      -2.813  12.068  19.158  0.00  0.00    +0.000 NA
ATOM     10  C   UNL     1      -1.620  11.906  19.797  0.00  0.00    +0.000 A 
ENDROOT
BRANCH  10  11
ATOM     11  C   UNL     1      -1.519  12.665  21.068  0.00  0.00    +0.000 A 
ATOM     12  C   UNL     1      -0.446  13.522  21.373  0.00  0.00    +0.000 A 
ATOM     13  C   UNL     1      -0.332  14.145  22.623  0.00  0.00    +0.000 A 
ATOM     14  C   UNL     1      -1.317  13.969  23.590  0.00  0.00    +0.000 A 
ATOM     15  C   UNL     1      -2.443  13.202  23.280  0.00  0.00    +0.000 A 
ATOM     16  C   UNL     1      -2.547  12.561  22.034  0.00  0.00    +0.000 A 
BRANCH  15  17
ATOM     17  N   UNL     1      -3.523  13.064  24.268  0.00  0.00    +0.000 N 
ATOM     18  O   UNL     1      -4.093  11.965  24.344  0.00  0.00    +0.000 OA
ATOM     19  O   UNL     1      -3.788  14.043  24.975  0.00  0.00    +0.000 OA
ENDBRANCH  15  17
ENDBRANCH  10  11
BRANCH   1  20
ATOM     20  N   UNL     1       0.603  10.695  19.812  0.00  0.00    +0.000 N 
ATOM     21  H   UNL     1       1.189  11.458  20.133  0.00  0.00    +0.000 HD
BRANCH  20  22
ATOM     22  S   UNL     1       0.600   9.450  20.932  0.00  0.00    +0.000 S 
ATOM     23  O   UNL     1      -0.756   9.037  21.199  0.00  0.00    +0.000 OA
ATOM     24  O   UNL     1       1.457   9.942  21.993  0.00  0.00    +0.000 OA
BRANCH  22  28
ATOM     25  C   UNL     1       1.953   4.337  20.932  0.00  0.00    +0.000 C 
ATOM     26  C   UNL     1       2.041   5.679  20.257  0.00  0.00    +0.000 A 
ATOM     27  C   UNL     1       1.450   6.808  20.858  0.00  0.00    +0.000 A 
ATOM     28  C   UNL     1       1.470   8.064  20.221  0.00  0.00    +0.000 A 
ATOM     29  C   UNL     1       2.110   8.209  18.977  0.00  0.00    +0.000 A 
ATOM     30  C   UNL     1       2.702   7.077  18.389  0.00  0.00    +0.000 A 
ATOM     31  C   UNL     1       2.659   5.828  19.011  0.00  0.00    +0.000 A 
ATOM     32 CL   UNL     1       3.367   4.488  18.180  0.00  0.00    +0.000 Cl
BRANCH  29  33
ATOM     33  S   UNL     1       2.280   9.717  18.027  0.00  0.00    +0.000 S 
ATOM     34  H   UNL     1       1.968  10.609  18.979  0.00  0.00    +0.000 HD
ENDBRANCH  29  33
ENDBRANCH  22  28
ENDBRANCH  20  22
ENDBRANCH   1  20
TORSDOF 6
ENDMDL
MODEL 5
REMARK VINA RESULT:      -6.7      1.870      2.264
REMARK  Name = 
REMARK  7 active torsions:
REMARK  status: ('A' for Active; 'I' for Inactive)
REMARK    1  A    between atoms: C_1  and  C_2
REMARK    2  A    between atoms: C_4  and  S_5
REMARK    3  A    between atoms: S_5  and  N_8
REMARK    4  A    between atoms: N_8  and  C_9
REMARK    5  A    between atoms: C_18  and  C_19
REMARK    6  A    between atoms: C_23  and  N_24
REMARK    7  A    between atoms: C_28  and  S_29
REMARK                            x       y       z     vdW  Elec       q    Type
REMARK                         _______ _______ _______ _____ _____    ______ ____
ROOT
ATOM      1  C   UNL     1      -2.919  13.256  22.801  0.00  0.00    +0.000 A 
ATOM      2  N   UNL     1      -3.558  14.197  23.525  0.00  0.00    +0.000 NA
ATOM      3  C   UNL     1      -2.795  15.127  24.122  0.00  0.00    +0.000 A 
ATOM      4  C   UNL     1      -3.406  16.122  24.872  0.00  0.00    +0.000 A 
ATOM      5  C   UNL     1      -2.655  17.097  25.526  0.00  0.00    +0.000 A 
ATOM      6  C   UNL     1      -1.269  17.070  25.435  0.00  0.00    +0.000 A 
ATOM      7  C   UNL     1      -0.648  16.081  24.673  0.00  0.00    +0.000 A 
ATOM      8  C   UNL     1      -1.388  15.115  24.001  0.00  0.00    +0.000 A 
ATOM      9  N   UNL     1      -0.760  14.185  23.255  0.00  0.00    +0.000 NA
ATOM     10  C   UNL     1      -1.519  13.239  22.634  0.00  0.00    +0.000 A 
ENDROOT
BRANCH  10  11
ATOM     11  C   UNL     1      -0.724  12.248  21.867  0.00  0.00    +0.000 A 
ATOM     12  C   UNL     1      -0.623  10.893  22.228  0.00  0.00    +0.000 A 
ATOM     13  C   UNL     1       0.216  10.006  21.540  0.00  0.00    +0.000 A 
ATOM     14  C   UNL     1       0.943  10.439  20.435  0.00  0.00    +0.000 A 
ATOM     15  C   UNL     1       0.788  11.756  19.995  0.00  0.00    +0.000 A 
ATOM     16  C   UNL     1      -0.038  12.649  20.697  0.00  0.00    +0.000 A 
BRANCH  15  17
ATOM     17  N   UNL     1       1.498  12.207  18.789  0.00  0.00    +0.000 N 
ATOM     18  O   UNL     1       2.254  11.397  18.232  0.00  0.00    +0.000 OA
ATOM     19  O   UNL     1       1.288  13.359  18.391  0.00  0.00    +0.000 OA
ENDBRANCH  15  17
ENDBRANCH  10  11
BRANCH   1  20
ATOM     20  N   UNL     1      -3.850  12.310  22.297  0.00  0.00    +0.000 N 
ATOM     21  H   UNL     1      -4.259  11.667  22.966  0.00  0.00    +0.000 HD
BRANCH  20  22
ATOM     22  S   UNL     1      -5.026  12.898  21.260  0.00  0.00    +0.000 S 
ATOM     23  O   UNL     1      -5.016  14.339  21.276  0.00  0.00    +0.000 OA
ATOM     24  O   UNL     1      -6.213  12.151  21.629  0.00  0.00    +0.000 OA
BRANCH  22  28
ATOM     25  C   UNL     1      -1.718  10.648  17.799  0.00  0.00    +0.000 C 
ATOM     26  C   UNL     1      -3.058  11.285  18.054  0.00  0.00    +0.000 A 
ATOM     27  C   UNL     1      -3.356  11.811  19.326  0.00  0.00    +0.000 A 
ATOM     28  C   UNL     1      -4.622  12.361  19.607  0.00  0.00    +0.000 A 
ATOM     29  C   UNL     1      -5.601  12.415  18.599  0.00  0.00    +0.000 A 
ATOM     30  C   UNL     1      -5.291  11.893  17.330  0.00  0.00    +0.000 A 
ATOM     31  C   UNL     1      -4.044  11.325  17.063  0.00  0.00    +0.000 A 
ATOM     32 CL   UNL     1      -3.781  10.660  15.489  0.00  0.00    +0.000 Cl
BRANCH  29  33
ATOM     33  S   UNL     1      -7.248  13.105  18.738  0.00  0.00    +0.000 S 
ATOM     34  H   UNL     1      -7.028  14.302  18.174  0.00  0.00    +0.000 HD
ENDBRANCH  29  33
ENDBRANCH  22  28
ENDBRANCH  20  22
ENDBRANCH   1  20
TORSDOF 6
ENDMDL
MODEL 6
REMARK VINA RESULT:      -6.6      4.302      7.438
REMARK  Name = 
REMARK  7 active torsions:
REMARK  status: ('A' for Active; 'I' for Inactive)
REMARK    1  A    between atoms: C_1  and  C_2
REMARK    2  A    between atoms: C_4  and  S_5
REMARK    3  A    between atoms: S_5  and  N_8
REMARK    4  A    between atoms: N_8  and  C_9
REMARK    5  A    between atoms: C_18  and  C_19
REMARK    6  A    between atoms: C_23  and  N_24
REMARK    7  A    between atoms: C_28  and  S_29
REMARK                            x       y       z     vdW  Elec       q    Type
REMARK                         _______ _______ _______ _____ _____    ______ ____
ROOT
ATOM      1  C   UNL     1      -0.604  10.993  19.305  0.00  0.00    +0.000 A 
ATOM      2  N   UNL     1      -0.821  10.389  18.119  0.00  0.00    +0.000 NA
ATOM      3  C   UNL     1      -2.008  10.610  17.532  0.00  0.00    +0.000 A 
ATOM      4  C   UNL     1      -2.277  10.017  16.307  0.00  0.00    +0.000 A 
ATOM      5  C   UNL     1      -3.502  10.202  15.668  0.00  0.00    +0.000 A 
ATOM      6  C   UNL     1      -4.478  10.986  16.271  0.00  0.00    +0.000 A 
ATOM      7  C   UNL     1      -4.211  11.595  17.496  0.00  0.00    +0.000 A 
ATOM      8  C   UNL     1      -2.986  11.434  18.133  0.00  0.00    +0.000 A 
ATOM      9  N   UNL     1      -2.750  12.053  19.306  0.00  0.00    +0.000 NA
ATOM     10  C   UNL     1      -1.547  11.847  19.912  0.00  0.00    +0.000 A 
ENDROOT
BRANCH  10  11
ATOM     11  C   UNL     1      -1.408  12.551  21.211  0.00  0.00    +0.000 A 
ATOM     12  C   UNL     1      -2.115  12.181  22.369  0.00  0.00    +0.000 A 
ATOM     13  C   UNL     1      -2.036  12.928  23.552  0.00  0.00    +0.000 A 
ATOM     14  C   UNL     1      -1.205  14.041  23.627  0.00  0.00    +0.000 A 
ATOM     15  C   UNL     1      -0.417  14.375  22.523  0.00  0.00    +0.000 A 
ATOM     16  C   UNL     1      -0.511  13.637  21.332  0.00  0.00    +0.000 A 
BRANCH  15  17
ATOM     17  N   UNL     1       0.516  15.508  22.612  0.00  0.00    +0.000 N 
ATOM     18  O   UNL     1       1.729  15.258  22.552  0.00  0.00    +0.000 OA
ATOM     19  O   UNL     1       0.038  16.643  22.725  0.00  0.00    +0.000 OA
ENDBRANCH  15  17
ENDBRANCH  10  11
BRANCH   1  20
ATOM     20  N   UNL     1       0.657  10.604  19.829  0.00  0.00    +0.000 N 
ATOM     21  H   UNL     1       1.279  11.347  20.127  0.00  0.00    +0.000 HD
BRANCH  20  22
ATOM     22  S   UNL     1       0.649   9.363  20.954  0.00  0.00    +0.000 S 
ATOM     23  O   UNL     1      -0.709   8.964  21.231  0.00  0.00    +0.000 OA
ATOM     24  O   UNL     1       1.518   9.850  22.008  0.00  0.00    +0.000 OA
BRANCH  22  28
ATOM     25  C   UNL     1       1.962   4.239  20.970  0.00  0.00    +0.000 C 
ATOM     26  C   UNL     1       2.054   5.577  20.286  0.00  0.00    +0.000 A 
ATOM     27  C   UNL     1       1.478   6.714  20.887  0.00  0.00    +0.000 A 
ATOM     28  C   UNL     1       1.501   7.967  20.242  0.00  0.00    +0.000 A 
ATOM     29  C   UNL     1       2.129   8.099  18.991  0.00  0.00    +0.000 A 
ATOM     30  C   UNL     1       2.706   6.959  18.403  0.00  0.00    +0.000 A 
ATOM     31  C   UNL     1       2.660   5.714  19.033  0.00  0.00    +0.000 A 
ATOM     32 CL   UNL     1       3.349   4.363  18.203  0.00  0.00    +0.000 Cl
BRANCH  29  33
ATOM     33  S   UNL     1       2.301   9.600  18.030  0.00  0.00    +0.000 S 
ATOM     34  H   UNL     1       1.269   9.438  17.188  0.00  0.00    +0.000 HD
ENDBRANCH  29  33
ENDBRANCH  22  28
ENDBRANCH  20  22
ENDBRANCH   1  20
TORSDOF 6
ENDMDL
MODEL 7
REMARK VINA RESULT:      -6.6      4.321      8.012
REMARK  Name = 
REMARK  7 active torsions:
REMARK  status: ('A' for Active; 'I' for Inactive)
REMARK    1  A    between atoms: C_1  and  C_2
REMARK    2  A    between atoms: C_4  and  S_5
REMARK    3  A    between atoms: S_5  and  N_8
REMARK    4  A    between atoms: N_8  and  C_9
REMARK    5  A    between atoms: C_18  and  C_19
REMARK    6  A    between atoms: C_23  and  N_24
REMARK    7  A    between atoms: C_28  and  S_29
REMARK                            x       y       z     vdW  Elec       q    Type
REMARK                         _______ _______ _______ _____ _____    ______ ____
ROOT
ATOM      1  C   UNL     1       0.709  11.369  18.964  0.00  0.00    +0.000 A 
ATOM      2  N   UNL     1       1.502  10.565  18.226  0.00  0.00    +0.000 NA
ATOM      3  C   UNL     1       1.741   9.336  18.710  0.00  0.00    +0.000 A 
ATOM      4  C   UNL     1       2.544   8.468  17.985  0.00  0.00    +0.000 A 
ATOM      5  C   UNL     1       2.837   7.189  18.456  0.00  0.00    +0.000 A 
ATOM      6  C   UNL     1       2.323   6.776  19.679  0.00  0.00    +0.000 A 
ATOM      7  C   UNL     1       1.504   7.638  20.408  0.00  0.00    +0.000 A 
ATOM      8  C   UNL     1       1.190   8.907  19.939  0.00  0.00    +0.000 A 
ATOM      9  N   UNL     1       0.379   9.709  20.657  0.00  0.00    +0.000 NA
ATOM     10  C   UNL     1       0.118  10.957  20.176  0.00  0.00    +0.000 A 
ENDROOT
BRANCH  10  11
ATOM     11  C   UNL     1      -0.759  11.763  21.060  0.00  0.00    +0.000 A 
ATOM     12  C   UNL     1      -0.294  12.434  22.206  0.00  0.00    +0.000 A 
ATOM     13  C   UNL     1      -1.167  13.103  23.074  0.00  0.00    +0.000 A 
ATOM     14  C   UNL     1      -2.528  13.165  22.794  0.00  0.00    +0.000 A 
ATOM     15  C   UNL     1      -3.004  12.592  21.612  0.00  0.00    +0.000 A 
ATOM     16  C   UNL     1      -2.132  11.904  20.753  0.00  0.00    +0.000 A 
BRANCH  15  17
ATOM     17  N   UNL     1      -4.430  12.709  21.270  0.00  0.00    +0.000 N 
ATOM     18  O   UNL     1      -5.255  12.497  22.172  0.00  0.00    +0.000 OA
ATOM     19  O   UNL     1      -4.722  13.027  20.111  0.00  0.00    +0.000 OA
ENDBRANCH  15  17
ENDBRANCH  10  11
BRANCH   1  20
ATOM     20  N   UNL     1       0.613  12.650  18.359  0.00  0.00    +0.000 N 
ATOM     21  H   UNL     1      -0.309  13.070  18.316  0.00  0.00    +0.000 HD
BRANCH  20  22
ATOM     22  S   UNL     1       1.750  13.786  18.831  0.00  0.00    +0.000 S 
ATOM     23  O   UNL     1       2.491  14.241  17.681  0.00  0.00    +0.000 OA
ATOM     24  O   UNL     1       2.417  13.157  19.954  0.00  0.00    +0.000 OA
BRANCH  22  28
ATOM     25  C   UNL     1      -2.689  16.089  20.555  0.00  0.00    +0.000 C 
ATOM     26  C   UNL     1      -1.205  16.191  20.329  0.00  0.00    +0.000 A 
ATOM     27  C   UNL     1      -0.517  15.140  19.691  0.00  0.00    +0.000 A 
ATOM     28  C   UNL     1       0.880  15.185  19.517  0.00  0.00    +0.000 A 
ATOM     29  C   UNL     1       1.606  16.305  19.960  0.00  0.00    +0.000 A 
ATOM     30  C   UNL     1       0.908  17.353  20.590  0.00  0.00    +0.000 A 
ATOM     31  C   UNL     1      -0.473  17.293  20.783  0.00  0.00    +0.000 A 
ATOM     32 CL   UNL     1      -1.228  18.605  21.618  0.00  0.00    +0.000 Cl
BRANCH  29  33
ATOM     33  S   UNL     1       3.368  16.574  19.801  0.00  0.00    +0.000 S 
ATOM     34  H   UNL     1       3.813  15.477  20.431  0.00  0.00    +0.000 HD
ENDBRANCH  29  33
ENDBRANCH  22  28
ENDBRANCH  20  22
ENDBRANCH   1  20
TORSDOF 6
ENDMDL
MODEL 8
REMARK VINA RESULT:      -6.6     10.059     13.773
REMARK  Name = 
REMARK  7 active torsions:
REMARK  status: ('A' for Active; 'I' for Inactive)
REMARK    1  A    between atoms: C_1  and  C_2
REMARK    2  A    between atoms: C_4  and  S_5
REMARK    3  A    between atoms: S_5  and  N_8
REMARK    4  A    between atoms: N_8  and  C_9
REMARK    5  A    between atoms: C_18  and  C_19
REMARK    6  A    between atoms: C_23  and  N_24
REMARK    7  A    between atoms: C_28  and  S_29
REMARK                            x       y       z     vdW  Elec       q    Type
REMARK                         _______ _______ _______ _____ _____    ______ ____
ROOT
ATOM      1  C   UNL     1       6.021   3.911  16.222  0.00  0.00    +0.000 A 
ATOM      2  N   UNL     1       5.608   3.300  15.093  0.00  0.00    +0.000 NA
ATOM      3  C   UNL     1       6.158   3.716  13.941  0.00  0.00    +0.000 A 
ATOM      4  C   UNL     1       5.772   3.113  12.752  0.00  0.00    +0.000 A 
ATOM      5  C   UNL     1       6.300   3.524  11.529  0.00  0.00    +0.000 A 
ATOM      6  C   UNL     1       7.222   4.562  11.496  0.00  0.00    +0.000 A 
ATOM      7  C   UNL     1       7.624   5.165  12.687  0.00  0.00    +0.000 A 
ATOM      8  C   UNL     1       7.119   4.751  13.913  0.00  0.00    +0.000 A 
ATOM      9  N   UNL     1       7.543   5.339  15.050  0.00  0.00    +0.000 NA
ATOM     10  C   UNL     1       7.003   4.922  16.230  0.00  0.00    +0.000 A 
ENDROOT
BRANCH  10  11
ATOM     11  C   UNL     1       7.518   5.659  17.411  0.00  0.00    +0.000 A 
ATOM     12  C   UNL     1       7.809   5.040  18.640  0.00  0.00    +0.000 A 
ATOM     13  C   UNL     1       8.198   5.780  19.765  0.00  0.00    +0.000 A 
ATOM     14  C   UNL     1       8.356   7.159  19.679  0.00  0.00    +0.000 A 
ATOM     15  C   UNL     1       8.168   7.788  18.446  0.00  0.00    +0.000 A 
ATOM     16  C   UNL     1       7.759   7.049  17.324  0.00  0.00    +0.000 A 
BRANCH  15  17
ATOM     17  N   UNL     1       8.399   9.236  18.326  0.00  0.00    +0.000 N 
ATOM     18  O   UNL     1       7.771   9.846  17.448  0.00  0.00    +0.000 OA
ATOM     19  O   UNL     1       9.191   9.762  19.117  0.00  0.00    +0.000 OA
ENDBRANCH  15  17
ENDBRANCH  10  11
BRANCH   1  20
ATOM     20  N   UNL     1       5.299   3.414  17.340  0.00  0.00    +0.000 N 
ATOM     21  H   UNL     1       5.624   3.695  18.258  0.00  0.00    +0.000 HD
BRANCH  20  22
ATOM     22  S   UNL     1       3.629   3.515  17.256  0.00  0.00    +0.000 S 
ATOM     23  O   UNL     1       3.042   2.279  17.711  0.00  0.00    +0.000 OA
ATOM     24  O   UNL     1       3.383   4.015  15.917  0.00  0.00    +0.000 OA
BRANCH  22  28
ATOM     25  C   UNL     1       2.230   8.536  18.152  0.00  0.00    +0.000 C 
ATOM     26  C   UNL     1       2.432   7.151  18.704  0.00  0.00    +0.000 A 
ATOM     27  C   UNL     1       2.952   6.134  17.879  0.00  0.00    +0.000 A 
ATOM     28  C   UNL     1       3.098   4.816  18.355  0.00  0.00    +0.000 A 
ATOM     29  C   UNL     1       2.748   4.507  19.681  0.00  0.00    +0.000 A 
ATOM     30  C   UNL     1       2.236   5.531  20.499  0.00  0.00    +0.000 A 
ATOM     31  C   UNL     1       2.069   6.830  20.017  0.00  0.00    +0.000 A 
ATOM     32 CL   UNL     1       1.380   8.004  21.083  0.00  0.00    +0.000 Cl
BRANCH  29  33
ATOM     33  S   UNL     1       2.895   2.914  20.486  0.00  0.00    +0.000 S 
ATOM     34  H   UNL     1       4.037   3.116  21.159  0.00  0.00    +0.000 HD
ENDBRANCH  29  33
ENDBRANCH  22  28
ENDBRANCH  20  22
ENDBRANCH   1  20
TORSDOF 6
ENDMDL
MODEL 9
REMARK VINA RESULT:      -6.6      4.380      7.174
REMARK  Name = 
REMARK  7 active torsions:
REMARK  status: ('A' for Active; 'I' for Inactive)
REMARK    1  A    between atoms: C_1  and  C_2
REMARK    2  A    between atoms: C_4  and  S_5
REMARK    3  A    between atoms: S_5  and  N_8
REMARK    4  A    between atoms: N_8  and  C_9
REMARK    5  A    between atoms: C_18  and  C_19
REMARK    6  A    between atoms: C_23  and  N_24
REMARK    7  A    between atoms: C_28  and  S_29
REMARK                            x       y       z     vdW  Elec       q    Type
REMARK                         _______ _______ _______ _____ _____    ______ ____
ROOT
ATOM      1  C   UNL     1       1.298  12.881  19.724  0.00  0.00    +0.000 A 
ATOM      2  N   UNL     1       2.253  13.375  18.909  0.00  0.00    +0.000 NA
ATOM      3  C   UNL     1       2.151  14.669  18.569  0.00  0.00    +0.000 A 
ATOM      4  C   UNL     1       3.113  15.227  17.738  0.00  0.00    +0.000 A 
ATOM      5  C   UNL     1       3.039  16.561  17.342  0.00  0.00    +0.000 A 
ATOM      6  C   UNL     1       1.981  17.348  17.778  0.00  0.00    +0.000 A 
ATOM      7  C   UNL     1       1.017  16.798  18.623  0.00  0.00    +0.000 A 
ATOM      8  C   UNL     1       1.091  15.475  19.040  0.00  0.00    +0.000 A 
ATOM      9  N   UNL     1       0.156  14.979  19.874  0.00  0.00    +0.000 NA
ATOM     10  C   UNL     1       0.248  13.669  20.238  0.00  0.00    +0.000 A 
ENDROOT
BRANCH  10  11
ATOM     11  C   UNL     1      -0.849  13.222  21.131  0.00  0.00    +0.000 A 
ATOM     12  C   UNL     1      -0.640  12.790  22.453  0.00  0.00    +0.000 A 
ATOM     13  C   UNL     1      -1.685  12.279  23.236  0.00  0.00    +0.000 A 
ATOM     14  C   UNL     1      -2.982  12.234  22.735  0.00  0.00    +0.000 A 
ATOM     15  C   UNL     1      -3.236  12.747  21.461  0.00  0.00    +0.000 A 
ATOM     16  C   UNL     1      -2.185  13.239  20.670  0.00  0.00    +0.000 A 
BRANCH  15  17
ATOM     17  N   UNL     1      -4.613  12.767  20.946  0.00  0.00    +0.000 N 
ATOM     18  O   UNL     1      -4.829  13.413  19.910  0.00  0.00    +0.000 OA
ATOM     19  O   UNL     1      -5.471  12.126  21.566  0.00  0.00    +0.000 OA
ENDBRANCH  15  17
ENDBRANCH  10  11
BRANCH   1  20
ATOM     20  N   UNL     1       1.502  11.491  19.931  0.00  0.00    +0.000 N 
ATOM     21  H   UNL     1       1.101  11.087  20.770  0.00  0.00    +0.000 HD
BRANCH  20  22
ATOM     22  S   UNL     1       1.227  10.492  18.615  0.00  0.00    +0.000 S 
ATOM     23  O   UNL     1       2.132  10.833  17.545  0.00  0.00    +0.000 OA
ATOM     24  O   UNL     1      -0.210  10.555  18.431  0.00  0.00    +0.000 OA
BRANCH  22  28
ATOM     25  C   UNL     1       3.542   5.804  17.816  0.00  0.00    +0.000 C 
ATOM     26  C   UNL     1       2.691   6.670  18.703  0.00  0.00    +0.000 A 
ATOM     27  C   UNL     1       2.320   7.962  18.279  0.00  0.00    +0.000 A 
ATOM     28  C   UNL     1       1.570   8.814  19.114  0.00  0.00    +0.000 A 
ATOM     29  C   UNL     1       1.159   8.368  20.382  0.00  0.00    +0.000 A 
ATOM     30  C   UNL     1       1.529   7.074  20.794  0.00  0.00    +0.000 A 
ATOM     31  C   UNL     1       2.293   6.242  19.975  0.00  0.00    +0.000 A 
ATOM     32 CL   UNL     1       2.744   4.692  20.594  0.00  0.00    +0.000 Cl
BRANCH  29  33
ATOM     33  S   UNL     1       0.174   9.274  21.571  0.00  0.00    +0.000 S 
ATOM     34  H   UNL     1      -1.044   8.831  21.226  0.00  0.00    +0.000 HD
ENDBRANCH  29  33
ENDBRANCH  22  28
ENDBRANCH  20  22
ENDBRANCH   1  20
TORSDOF 6
ENDMDL
