MODEL 1
REMARK VINA RESULT:      -9.0      0.000      0.000
REMARK  Name = 
REMARK  7 active torsions:
REMARK  status: ('A' for Active; 'I' for Inactive)
REMARK    1  A    between atoms: C_1  and  C_2
REMARK    2  A    between atoms: C_5  and  S_6
REMARK    3  A    between atoms: S_6  and  N_9
REMARK    4  A    between atoms: C_10  and  C_12
REMARK    5  A    between atoms: C_12  and  O_13
REMARK    6  A    between atoms: O_13  and  C_14
REMARK    7  A    between atoms: C_25  and  C_26
REMARK                            x       y       z     vdW  Elec       q    Type
REMARK                         _______ _______ _______ _____ _____    ______ ____
ROOT
ATOM      1  N   UNL     1       4.280   5.407  19.461  0.00  0.00    +0.000 N 
ATOM      2  C   UNL     1       3.106   4.949  20.081  0.00  0.00    +0.000 C 
ATOM      3  O   UNL     1       2.969   3.794  20.465  0.00  0.00    +0.000 OA
ATOM      4  H   UNL     1       4.352   6.339  19.067  0.00  0.00    +0.000 HD
ENDROOT
BRANCH   1   5
ATOM      5  S   UNL     1       5.641   4.479  19.230  0.00  0.00    +0.000 S 
ATOM      6  O   UNL     1       5.351   3.147  19.719  0.00  0.00    +0.000 OA
ATOM      7  O   UNL     1       6.743   5.234  19.790  0.00  0.00    +0.000 OA
BRANCH   5  12
ATOM      8  C   UNL     1       6.602   4.397  13.213  0.00  0.00    +0.000 C 
ATOM      9  C   UNL     1       6.356   4.420  14.694  0.00  0.00    +0.000 A 
ATOM     10  C   UNL     1       7.335   4.873  15.579  0.00  0.00    +0.000 A 
ATOM     11  C   UNL     1       7.089   4.882  16.953  0.00  0.00    +0.000 A 
ATOM     12  C   UNL     1       5.858   4.436  17.462  0.00  0.00    +0.000 A 
ATOM     13  C   UNL     1       4.852   3.983  16.587  0.00  0.00    +0.000 A 
ATOM     14  C   UNL     1       3.499   3.486  17.007  0.00  0.00    +0.000 C 
ATOM     15  C   UNL     1       5.127   3.982  15.206  0.00  0.00    +0.000 A 
ENDBRANCH   5  12
ENDBRANCH   1   5
BRANCH   2  16
ATOM     16  C   UNL     1       2.000   5.987  20.230  0.00  0.00    +0.000 C 
BRANCH  16  17
ATOM     17  O   UNL     1       2.336   7.158  19.495  0.00  0.00    +0.000 OA
BRANCH  17  18
ATOM     18  C   UNL     1       1.622   8.293  19.785  0.00  0.00    +0.000 A 
ATOM     19  C   UNL     1       1.376   9.350  18.910  0.00  0.00    +0.000 A 
ATOM     20  C   UNL     1       0.595  10.437  19.320  0.00  0.00    +0.000 A 
ATOM     21  C   UNL     1       0.049  10.490  20.611  0.00  0.00    +0.000 A 
ATOM     22  C   UNL     1      -0.750  11.569  21.024  0.00  0.00    +0.000 A 
ATOM     23  C   UNL     1      -1.282  11.599  22.312  0.00  0.00    +0.000 A 
ATOM     24 CL   UNL     1      -2.268  12.923  22.799  0.00  0.00    +0.000 Cl
ATOM     25  C   UNL     1      -1.025  10.563  23.206  0.00  0.00    +0.000 A 
ATOM     26  C   UNL     1      -0.231   9.486  22.807  0.00  0.00    +0.000 A 
ATOM     27  C   UNL     1       0.311   9.431  21.510  0.00  0.00    +0.000 A 
ATOM     28  C   UNL     1       1.099   8.347  21.082  0.00  0.00    +0.000 A 
ENDBRANCH  17  18
ENDBRANCH  16  17
ENDBRANCH   2  16
TORSDOF 5
ENDMDL
MODEL 2
REMARK VINA RESULT:      -9.0      6.353      8.202
REMARK  Name = 
REMARK  7 active torsions:
REMARK  status: ('A' for Active; 'I' for Inactive)
REMARK    1  A    between atoms: C_1  and  C_2
REMARK    2  A    between atoms: C_5  and  S_6
REMARK    3  A    between atoms: S_6  and  N_9
REMARK    4  A    between atoms: C_10  and  C_12
REMARK    5  A    between atoms: C_12  and  O_13
REMARK    6  A    between atoms: O_13  and  C_14
REMARK    7  A    between atoms: C_25  and  C_26
REMARK                            x       y       z     vdW  Elec       q    Type
REMARK                         _______ _______ _______ _____ _____    ______ ____
ROOT
ATOM      1  N   UNL     1       6.510   7.191  16.910  0.00  0.00    +0.000 N 
ATOM      2  C   UNL     1       7.530   6.716  17.752  0.00  0.00    +0.000 C 
ATOM      3  O   UNL     1       7.849   5.536  17.801  0.00  0.00    +0.000 OA
ATOM      4  H   UNL     1       6.193   8.154  16.941  0.00  0.00    +0.000 HD
ENDROOT
BRANCH   1   5
ATOM      5  S   UNL     1       5.662   6.242  15.839  0.00  0.00    +0.000 S 
ATOM      6  O   UNL     1       6.599   5.317  15.237  0.00  0.00    +0.000 OA
ATOM      7  O   UNL     1       4.903   7.153  15.007  0.00  0.00    +0.000 OA
BRANCH   5  12
ATOM      8  C   UNL     1       1.814   2.984  19.262  0.00  0.00    +0.000 C 
ATOM      9  C   UNL     1       2.754   3.793  18.416  0.00  0.00    +0.000 A 
ATOM     10  C   UNL     1       3.715   3.174  17.615  0.00  0.00    +0.000 A 
ATOM     11  C   UNL     1       4.584   3.944  16.841  0.00  0.00    +0.000 A 
ATOM     12  C   UNL     1       4.504   5.346  16.857  0.00  0.00    +0.000 A 
ATOM     13  C   UNL     1       3.538   5.992  17.650  0.00  0.00    +0.000 A 
ATOM     14  C   UNL     1       3.352   7.478  17.751  0.00  0.00    +0.000 C 
ATOM     15  C   UNL     1       2.675   5.192  18.425  0.00  0.00    +0.000 A 
ENDBRANCH   5  12
ENDBRANCH   1   5
BRANCH   2  16
ATOM     16  C   UNL     1       8.205   7.773  18.617  0.00  0.00    +0.000 C 
BRANCH  16  17
ATOM     17  O   UNL     1       8.335   8.986  17.883  0.00  0.00    +0.000 OA
BRANCH  17  18
ATOM     18  C   UNL     1       8.949  10.032  18.525  0.00  0.00    +0.000 A 
ATOM     19  C   UNL     1       9.164  10.134  19.898  0.00  0.00    +0.000 A 
ATOM     20  C   UNL     1       9.841  11.241  20.426  0.00  0.00    +0.000 A 
ATOM     21  C   UNL     1      10.312  12.266  19.591  0.00  0.00    +0.000 A 
ATOM     22  C   UNL     1      11.008  13.370  20.110  0.00  0.00    +0.000 A 
ATOM     23  C   UNL     1      11.466  14.376  19.260  0.00  0.00    +0.000 A 
ATOM     24 CL   UNL     1      12.325  15.718  19.911  0.00  0.00    +0.000 Cl
ATOM     25  C   UNL     1      11.237  14.301  17.890  0.00  0.00    +0.000 A 
ATOM     26  C   UNL     1      10.545  13.207  17.362  0.00  0.00    +0.000 A 
ATOM     27  C   UNL     1      10.079  12.177  18.200  0.00  0.00    +0.000 A 
ATOM     28  C   UNL     1       9.396  11.060  17.688  0.00  0.00    +0.000 A 
ENDBRANCH  17  18
ENDBRANCH  16  17
ENDBRANCH   2  16
TORSDOF 5
ENDMDL
MODEL 3
REMARK VINA RESULT:      -8.9      6.364      8.429
REMARK  Name = 
REMARK  7 active torsions:
REMARK  status: ('A' for Active; 'I' for Inactive)
REMARK    1  A    between atoms: C_1  and  C_2
REMARK    2  A    between atoms: C_5  and  S_6
REMARK    3  A    between atoms: S_6  and  N_9
REMARK    4  A    between atoms: C_10  and  C_12
REMARK    5  A    between atoms: C_12  and  O_13
REMARK    6  A    between atoms: O_13  and  C_14
REMARK    7  A    between atoms: C_25  and  C_26
REMARK                            x       y       z     vdW  Elec       q    Type
REMARK                         _______ _______ _______ _____ _____    ______ ____
ROOT
ATOM      1  N   UNL     1       6.117   6.742  17.774  0.00  0.00    +0.000 N 
ATOM      2  C   UNL     1       7.242   7.429  17.290  0.00  0.00    +0.000 C 
ATOM      3  O   UNL     1       7.984   6.963  16.435  0.00  0.00    +0.000 OA
ATOM      4  H   UNL     1       5.559   7.097  18.543  0.00  0.00    +0.000 HD
ENDROOT
BRANCH   1   5
ATOM      5  S   UNL     1       5.613   5.259  17.213  0.00  0.00    +0.000 S 
ATOM      6  O   UNL     1       6.736   4.350  17.308  0.00  0.00    +0.000 OA
ATOM      7  O   UNL     1       4.984   5.505  15.932  0.00  0.00    +0.000 OA
BRANCH   5  12
ATOM      8  C   UNL     1       1.381   3.368  21.171  0.00  0.00    +0.000 C 
ATOM      9  C   UNL     1       2.417   3.838  20.189  0.00  0.00    +0.000 A 
ATOM     10  C   UNL     1       3.533   3.056  19.892  0.00  0.00    +0.000 A 
ATOM     11  C   UNL     1       4.488   3.512  18.982  0.00  0.00    +0.000 A 
ATOM     12  C   UNL     1       4.338   4.760  18.355  0.00  0.00    +0.000 A 
ATOM     13  C   UNL     1       3.215   5.562  18.632  0.00  0.00    +0.000 A 
ATOM     14  C   UNL     1       2.942   6.909  18.027  0.00  0.00    +0.000 C 
ATOM     15  C   UNL     1       2.269   5.080  19.557  0.00  0.00    +0.000 A 
ENDBRANCH   5  12
ENDBRANCH   1   5
BRANCH   2  16
ATOM     16  C   UNL     1       7.488   8.797  17.915  0.00  0.00    +0.000 C 
BRANCH  16  17
ATOM     17  O   UNL     1       8.746   8.804  18.581  0.00  0.00    +0.000 OA
BRANCH  17  18
ATOM     18  C   UNL     1       9.230  10.027  18.971  0.00  0.00    +0.000 A 
ATOM     19  C   UNL     1       9.232  10.528  20.272  0.00  0.00    +0.000 A 
ATOM     20  C   UNL     1       9.795  11.781  20.544  0.00  0.00    +0.000 A 
ATOM     21  C   UNL     1      10.362  12.556  19.522  0.00  0.00    +0.000 A 
ATOM     22  C   UNL     1      10.945  13.806  19.789  0.00  0.00    +0.000 A 
ATOM     23  C   UNL     1      11.503  14.558  18.757  0.00  0.00    +0.000 A 
ATOM     24 CL   UNL     1      12.222  16.083  19.103  0.00  0.00    +0.000 Cl
ATOM     25  C   UNL     1      11.487  14.083  17.449  0.00  0.00    +0.000 A 
ATOM     26  C   UNL     1      10.909  12.842  17.171  0.00  0.00    +0.000 A 
ATOM     27  C   UNL     1      10.346  12.062  18.197  0.00  0.00    +0.000 A 
ATOM     28  C   UNL     1       9.775  10.803  17.942  0.00  0.00    +0.000 A 
ENDBRANCH  17  18
ENDBRANCH  16  17
ENDBRANCH   2  16
TORSDOF 5
ENDMDL
MODEL 4
REMARK VINA RESULT:      -8.6      4.507      9.001
REMARK  Name = 
REMARK  7 active torsions:
REMARK  status: ('A' for Active; 'I' for Inactive)
REMARK    1  A    between atoms: C_1  and  C_2
REMARK    2  A    between atoms: C_5  and  S_6
REMARK    3  A    between atoms: S_6  and  N_9
REMARK    4  A    between atoms: C_10  and  C_12
REMARK    5  A    between atoms: C_12  and  O_13
REMARK    6  A    between atoms: O_13  and  C_14
REMARK    7  A    between atoms: C_25  and  C_26
REMARK                            x       y       z     vdW  Elec       q    Type
REMARK                         _______ _______ _______ _____ _____    ______ ____
ROOT
ATOM      1  N   UNL     1       0.829  10.225  20.775  0.00  0.00    +0.000 N 
ATOM      2  C   UNL     1       0.608   8.884  21.133  0.00  0.00    +0.000 C 
ATOM      3  O   UNL     1      -0.457   8.489  21.590  0.00  0.00    +0.000 OA
ATOM      4  H   UNL     1       1.740  10.559  20.481  0.00  0.00    +0.000 HD
ENDROOT
BRANCH   1   5
ATOM      5  S   UNL     1      -0.326  11.419  20.860  0.00  0.00    +0.000 S 
ATOM      6  O   UNL     1       0.355  12.694  20.776  0.00  0.00    +0.000 OA
ATOM      7  O   UNL     1      -1.144  11.107  22.014  0.00  0.00    +0.000 OA
BRANCH   5  12
ATOM      8  C   UNL     1      -3.602  10.422  15.819  0.00  0.00    +0.000 C 
ATOM      9  C   UNL     1      -2.797  10.677  17.060  0.00  0.00    +0.000 A 
ATOM     10  C   UNL     1      -1.576  10.035  17.271  0.00  0.00    +0.000 A 
ATOM     11  C   UNL     1      -0.846  10.282  18.435  0.00  0.00    +0.000 A 
ATOM     12  C   UNL     1      -1.327  11.175  19.405  0.00  0.00    +0.000 A 
ATOM     13  C   UNL     1      -2.552  11.841  19.210  0.00  0.00    +0.000 A 
ATOM     14  C   UNL     1      -3.170  12.817  20.170  0.00  0.00    +0.000 C 
ATOM     15  C   UNL     1      -3.271  11.572  18.029  0.00  0.00    +0.000 A 
ENDBRANCH   5  12
ENDBRANCH   1   5
BRANCH   2  16
ATOM     16  C   UNL     1       1.795   7.951  20.928  0.00  0.00    +0.000 C 
BRANCH  16  17
ATOM     17  O   UNL     1       1.332   6.631  20.665  0.00  0.00    +0.000 OA
BRANCH  17  18
ATOM     18  C   UNL     1       2.057   5.892  19.765  0.00  0.00    +0.000 A 
ATOM     19  C   UNL     1       2.014   4.506  19.624  0.00  0.00    +0.000 A 
ATOM     20  C   UNL     1       2.777   3.874  18.634  0.00  0.00    +0.000 A 
ATOM     21  C   UNL     1       3.598   4.615  17.770  0.00  0.00    +0.000 A 
ATOM     22  C   UNL     1       4.352   3.991  16.764  0.00  0.00    +0.000 A 
ATOM     23  C   UNL     1       5.161   4.749  15.916  0.00  0.00    +0.000 A 
ATOM     24 CL   UNL     1       6.071   3.970  14.682  0.00  0.00    +0.000 Cl
ATOM     25  C   UNL     1       5.233   6.131  16.061  0.00  0.00    +0.000 A 
ATOM     26  C   UNL     1       4.488   6.763  17.059  0.00  0.00    +0.000 A 
ATOM     27  C   UNL     1       3.660   6.019  17.921  0.00  0.00    +0.000 A 
ATOM     28  C   UNL     1       2.889   6.637  18.921  0.00  0.00    +0.000 A 
ENDBRANCH  17  18
ENDBRANCH  16  17
ENDBRANCH   2  16
TORSDOF 5
ENDMDL
MODEL 5
REMARK VINA RESULT:      -8.5      1.913      3.188
REMARK  Name = 
REMARK  7 active torsions:
REMARK  status: ('A' for Active; 'I' for Inactive)
REMARK    1  A    between atoms: C_1  and  C_2
REMARK    2  A    between atoms: C_5  and  S_6
REMARK    3  A    between atoms: S_6  and  N_9
REMARK    4  A    between atoms: C_10  and  C_12
REMARK    5  A    between atoms: C_12  and  O_13
REMARK    6  A    between atoms: O_13  and  C_14
REMARK    7  A    between atoms: C_25  and  C_26
REMARK                            x       y       z     vdW  Elec       q    Type
REMARK                         _______ _______ _______ _____ _____    ______ ____
ROOT
ATOM      1  N   UNL     1       5.898   5.017  17.400  0.00  0.00    +0.000 N 
ATOM      2  C   UNL     1       5.943   5.389  18.754  0.00  0.00    +0.000 C 
ATOM      3  O   UNL     1       6.966   5.789  19.295  0.00  0.00    +0.000 OA
ATOM      4  H   UNL     1       5.070   4.604  16.984  0.00  0.00    +0.000 HD
ENDROOT
BRANCH   1   5
ATOM      5  S   UNL     1       7.185   5.131  16.353  0.00  0.00    +0.000 S 
ATOM      6  O   UNL     1       8.218   4.234  16.830  0.00  0.00    +0.000 OA
ATOM      7  O   UNL     1       7.462   6.545  16.208  0.00  0.00    +0.000 OA
BRANCH   5  12
ATOM      8  C   UNL     1       4.815   3.049  11.139  0.00  0.00    +0.000 C 
ATOM      9  C   UNL     1       5.409   3.559  12.421  0.00  0.00    +0.000 A 
ATOM     10  C   UNL     1       4.761   3.364  13.641  0.00  0.00    +0.000 A 
ATOM     11  C   UNL     1       5.326   3.851  14.822  0.00  0.00    +0.000 A 
ATOM     12  C   UNL     1       6.548   4.541  14.797  0.00  0.00    +0.000 A 
ATOM     13  C   UNL     1       7.224   4.742  13.578  0.00  0.00    +0.000 A 
ATOM     14  C   UNL     1       8.534   5.460  13.422  0.00  0.00    +0.000 C 
ATOM     15  C   UNL     1       6.631   4.243  12.402  0.00  0.00    +0.000 A 
ENDBRANCH   5  12
ENDBRANCH   1   5
BRANCH   2  16
ATOM     16  C   UNL     1       4.630   5.245  19.514  0.00  0.00    +0.000 C 
BRANCH  16  17
ATOM     17  O   UNL     1       3.535   5.459  18.630  0.00  0.00    +0.000 OA
BRANCH  17  18
ATOM     18  C   UNL     1       2.914   6.680  18.702  0.00  0.00    +0.000 A 
ATOM     19  C   UNL     1       2.897   7.649  17.701  0.00  0.00    +0.000 A 
ATOM     20  C   UNL     1       2.190   8.843  17.886  0.00  0.00    +0.000 A 
ATOM     21  C   UNL     1       1.489   9.091  19.076  0.00  0.00    +0.000 A 
ATOM     22  C   UNL     1       0.762  10.277  19.263  0.00  0.00    +0.000 A 
ATOM     23  C   UNL     1       0.072  10.501  20.454  0.00  0.00    +0.000 A 
ATOM     24 CL   UNL     1      -0.822  11.957  20.664  0.00  0.00    +0.000 Cl
ATOM     25  C   UNL     1       0.100   9.554  21.473  0.00  0.00    +0.000 A 
ATOM     26  C   UNL     1       0.821   8.370  21.299  0.00  0.00    +0.000 A 
ATOM     27  C   UNL     1       1.518   8.120  20.103  0.00  0.00    +0.000 A 
ATOM     28  C   UNL     1       2.235   6.927  19.901  0.00  0.00    +0.000 A 
ENDBRANCH  17  18
ENDBRANCH  16  17
ENDBRANCH   2  16
TORSDOF 5
ENDMDL
MODEL 6
REMARK VINA RESULT:      -8.5      3.001      3.785
REMARK  Name = 
REMARK  7 active torsions:
REMARK  status: ('A' for Active; 'I' for Inactive)
REMARK    1  A    between atoms: C_1  and  C_2
REMARK    2  A    between atoms: C_5  and  S_6
REMARK    3  A    between atoms: S_6  and  N_9
REMARK    4  A    between atoms: C_10  and  C_12
REMARK    5  A    between atoms: C_12  and  O_13
REMARK    6  A    between atoms: O_13  and  C_14
REMARK    7  A    between atoms: C_25  and  C_26
REMARK                            x       y       z     vdW  Elec       q    Type
REMARK                         _______ _______ _______ _____ _____    ______ ____
ROOT
ATOM      1  N   UNL     1       2.618   7.397  18.153  0.00  0.00    +0.000 N 
ATOM      2  C   UNL     1       1.945   8.292  19.000  0.00  0.00    +0.000 C 
ATOM      3  O   UNL     1       1.589   7.990  20.132  0.00  0.00    +0.000 OA
ATOM      4  H   UNL     1       2.831   7.627  17.188  0.00  0.00    +0.000 HD
ENDROOT
BRANCH   1   5
ATOM      5  S   UNL     1       3.074   5.858  18.589  0.00  0.00    +0.000 S 
ATOM      6  O   UNL     1       1.876   5.046  18.643  0.00  0.00    +0.000 OA
ATOM      7  O   UNL     1       3.907   6.002  19.765  0.00  0.00    +0.000 OA
BRANCH   5  12
ATOM      8  C   UNL     1       6.685   4.188  13.974  0.00  0.00    +0.000 C 
ATOM      9  C   UNL     1       5.789   4.592  15.109  0.00  0.00    +0.000 A 
ATOM     10  C   UNL     1       5.518   5.935  15.369  0.00  0.00    +0.000 A 
ATOM     11  C   UNL     1       4.687   6.291  16.433  0.00  0.00    +0.000 A 
ATOM     12  C   UNL     1       4.115   5.305  17.252  0.00  0.00    +0.000 A 
ATOM     13  C   UNL     1       4.367   3.943  17.004  0.00  0.00    +0.000 A 
ATOM     14  C   UNL     1       3.814   2.799  17.805  0.00  0.00    +0.000 C 
ATOM     15  C   UNL     1       5.211   3.611  15.926  0.00  0.00    +0.000 A 
ENDBRANCH   5  12
ENDBRANCH   1   5
BRANCH   2  16
ATOM     16  C   UNL     1       1.670   9.669  18.407  0.00  0.00    +0.000 C 
BRANCH  16  17
ATOM     17  O   UNL     1       0.721  10.360  19.211  0.00  0.00    +0.000 OA
BRANCH  17  18
ATOM     18  C   UNL     1      -0.543  10.495  18.693  0.00  0.00    +0.000 A 
ATOM     19  C   UNL     1      -1.030   9.859  17.553  0.00  0.00    +0.000 A 
ATOM     20  C   UNL     1      -2.358  10.051  17.151  0.00  0.00    +0.000 A 
ATOM     21  C   UNL     1      -3.220  10.884  17.879  0.00  0.00    +0.000 A 
ATOM     22  C   UNL     1      -4.558  11.068  17.494  0.00  0.00    +0.000 A 
ATOM     23  C   UNL     1      -5.397  11.901  18.234  0.00  0.00    +0.000 A 
ATOM     24 CL   UNL     1      -7.036  12.108  17.754  0.00  0.00    +0.000 Cl
ATOM     25  C   UNL     1      -4.918  12.562  19.361  0.00  0.00    +0.000 A 
ATOM     26  C   UNL     1      -3.588  12.388  19.754  0.00  0.00    +0.000 A 
ATOM     27  C   UNL     1      -2.727  11.547  19.026  0.00  0.00    +0.000 A 
ATOM     28  C   UNL     1      -1.390  11.344  19.414  0.00  0.00    +0.000 A 
ENDBRANCH  17  18
ENDBRANCH  16  17
ENDBRANCH   2  16
TORSDOF 5
ENDMDL
MODEL 7
REMARK VINA RESULT:      -8.4      6.313      8.210
REMARK  Name = 
REMARK  7 active torsions:
REMARK  status: ('A' for Active; 'I' for Inactive)
REMARK    1  A    between atoms: C_1  and  C_2
REMARK    2  A    between atoms: C_5  and  S_6
REMARK    3  A    between atoms: S_6  and  N_9
REMARK    4  A    between atoms: C_10  and  C_12
REMARK    5  A    between atoms: C_12  and  O_13
REMARK    6  A    between atoms: O_13  and  C_14
REMARK    7  A    between atoms: C_25  and  C_26
REMARK                            x       y       z     vdW  Elec       q    Type
REMARK                         _______ _______ _______ _____ _____    ______ ____
ROOT
ATOM      1  N   UNL     1       6.714   7.138  16.835  0.00  0.00    +0.000 N 
ATOM      2  C   UNL     1       7.376   6.750  18.012  0.00  0.00    +0.000 C 
ATOM      3  O   UNL     1       7.113   5.714  18.608  0.00  0.00    +0.000 OA
ATOM      4  H   UNL     1       6.878   8.039  16.398  0.00  0.00    +0.000 HD
ENDROOT
BRANCH   1   5
ATOM      5  S   UNL     1       5.552   6.226  16.071  0.00  0.00    +0.000 S 
ATOM      6  O   UNL     1       6.178   4.995  15.635  0.00  0.00    +0.000 OA
ATOM      7  O   UNL     1       4.923   7.102  15.104  0.00  0.00    +0.000 OA
BRANCH   5  12
ATOM      8  C   UNL     1       1.413   5.246  20.435  0.00  0.00    +0.000 C 
ATOM      9  C   UNL     1       2.439   5.480  19.364  0.00  0.00    +0.000 A 
ATOM     10  C   UNL     1       2.818   6.773  19.000  0.00  0.00    +0.000 A 
ATOM     11  C   UNL     1       3.769   6.969  17.997  0.00  0.00    +0.000 A 
ATOM     12  C   UNL     1       4.354   5.873  17.342  0.00  0.00    +0.000 A 
ATOM     13  C   UNL     1       3.993   4.560  17.698  0.00  0.00    +0.000 A 
ATOM     14  C   UNL     1       4.546   3.311  17.075  0.00  0.00    +0.000 C 
ATOM     15  C   UNL     1       3.029   4.389  18.711  0.00  0.00    +0.000 A 
ENDBRANCH   5  12
ENDBRANCH   1   5
BRANCH   2  16
ATOM     16  C   UNL     1       8.441   7.720  18.510  0.00  0.00    +0.000 C 
BRANCH  16  17
ATOM     17  O   UNL     1       8.179   9.025  18.006  0.00  0.00    +0.000 OA
BRANCH  17  18
ATOM     18  C   UNL     1       8.838  10.064  18.613  0.00  0.00    +0.000 A 
ATOM     19  C   UNL     1       9.140  10.158  19.970  0.00  0.00    +0.000 A 
ATOM     20  C   UNL     1       9.855  11.258  20.459  0.00  0.00    +0.000 A 
ATOM     21  C   UNL     1      10.279  12.284  19.601  0.00  0.00    +0.000 A 
ATOM     22  C   UNL     1      11.013  13.382  20.080  0.00  0.00    +0.000 A 
ATOM     23  C   UNL     1      11.424  14.389  19.208  0.00  0.00    +0.000 A 
ATOM     24 CL   UNL     1      12.331  15.722  19.809  0.00  0.00    +0.000 Cl
ATOM     25  C   UNL     1      11.109  14.322  17.854  0.00  0.00    +0.000 A 
ATOM     26  C   UNL     1      10.378  13.235  17.366  0.00  0.00    +0.000 A 
ATOM     27  C   UNL     1       9.960  12.204  18.226  0.00  0.00    +0.000 A 
ATOM     28  C   UNL     1       9.238  11.093  17.753  0.00  0.00    +0.000 A 
ENDBRANCH  17  18
ENDBRANCH  16  17
ENDBRANCH   2  16
TORSDOF 5
ENDMDL
MODEL 8
REMARK VINA RESULT:      -8.3      2.078      2.810
REMARK  Name = 
REMARK  7 active torsions:
REMARK  status: ('A' for Active; 'I' for Inactive)
REMARK    1  A    between atoms: C_1  and  C_2
REMARK    2  A    between atoms: C_5  and  S_6
REMARK    3  A    between atoms: S_6  and  N_9
REMARK    4  A    between atoms: C_10  and  C_12
REMARK    5  A    between atoms: C_12  and  O_13
REMARK    6  A    between atoms: O_13  and  C_14
REMARK    7  A    between atoms: C_25  and  C_26
REMARK                            x       y       z     vdW  Elec       q    Type
REMARK                         _______ _______ _______ _____ _____    ______ ____
ROOT
ATOM      1  N   UNL     1       4.020   5.540  19.253  0.00  0.00    +0.000 N 
ATOM      2  C   UNL     1       3.742   6.723  18.548  0.00  0.00    +0.000 C 
ATOM      3  O   UNL     1       4.557   7.257  17.807  0.00  0.00    +0.000 OA
ATOM      4  H   UNL     1       3.372   5.153  19.932  0.00  0.00    +0.000 HD
ENDROOT
BRANCH   1   5
ATOM      5  S   UNL     1       5.442   4.686  19.127  0.00  0.00    +0.000 S 
ATOM      6  O   UNL     1       5.231   3.391  19.738  0.00  0.00    +0.000 OA
ATOM      7  O   UNL     1       6.483   5.562  19.623  0.00  0.00    +0.000 OA
BRANCH   5  12
ATOM      8  C   UNL     1       6.508   4.085  13.157  0.00  0.00    +0.000 C 
ATOM      9  C   UNL     1       6.236   4.236  14.626  0.00  0.00    +0.000 A 
ATOM     10  C   UNL     1       7.192   4.782  15.482  0.00  0.00    +0.000 A 
ATOM     11  C   UNL     1       6.922   4.909  16.846  0.00  0.00    +0.000 A 
ATOM     12  C   UNL     1       5.690   4.490  17.373  0.00  0.00    +0.000 A 
ATOM     13  C   UNL     1       4.707   3.944  16.527  0.00  0.00    +0.000 A 
ATOM     14  C   UNL     1       3.355   3.462  16.968  0.00  0.00    +0.000 C 
ATOM     15  C   UNL     1       5.005   3.824  15.155  0.00  0.00    +0.000 A 
ENDBRANCH   5  12
ENDBRANCH   1   5
BRANCH   2  16
ATOM     16  C   UNL     1       2.355   7.309  18.781  0.00  0.00    +0.000 C 
BRANCH  16  17
ATOM     17  O   UNL     1       2.315   8.654  18.318  0.00  0.00    +0.000 OA
BRANCH  17  18
ATOM     18  C   UNL     1       1.185   9.374  18.611  0.00  0.00    +0.000 A 
ATOM     19  C   UNL     1       0.997  10.178  19.734  0.00  0.00    +0.000 A 
ATOM     20  C   UNL     1      -0.195  10.894  19.896  0.00  0.00    +0.000 A 
ATOM     21  C   UNL     1      -1.221  10.818  18.942  0.00  0.00    +0.000 A 
ATOM     22  C   UNL     1      -2.411  11.548  19.089  0.00  0.00    +0.000 A 
ATOM     23  C   UNL     1      -3.417  11.457  18.126  0.00  0.00    +0.000 A 
ATOM     24 CL   UNL     1      -4.866  12.365  18.316  0.00  0.00    +0.000 Cl
ATOM     25  C   UNL     1      -3.254  10.639  17.013  0.00  0.00    +0.000 A 
ATOM     26  C   UNL     1      -2.074   9.907  16.857  0.00  0.00    +0.000 A 
ATOM     27  C   UNL     1      -1.044   9.990  17.811  0.00  0.00    +0.000 A 
ATOM     28  C   UNL     1       0.159   9.275  17.665  0.00  0.00    +0.000 A 
ENDBRANCH  17  18
ENDBRANCH  16  17
ENDBRANCH   2  16
TORSDOF 5
ENDMDL
MODEL 9
REMARK VINA RESULT:      -8.3      2.653      3.845
REMARK  Name = 
REMARK  7 active torsions:
REMARK  status: ('A' for Active; 'I' for Inactive)
REMARK    1  A    between atoms: C_1  and  C_2
REMARK    2  A    between atoms: C_5  and  S_6
REMARK    3  A    between atoms: S_6  and  N_9
REMARK    4  A    between atoms: C_10  and  C_12
REMARK    5  A    between atoms: C_12  and  O_13
REMARK    6  A    between atoms: O_13  and  C_14
REMARK    7  A    between atoms: C_25  and  C_26
REMARK                            x       y       z     vdW  Elec       q    Type
REMARK                         _______ _______ _______ _____ _____    ______ ____
ROOT
ATOM      1  N   UNL     1       2.036   5.994  20.623  0.00  0.00    +0.000 N 
ATOM      2  C   UNL     1       1.988   7.064  19.713  0.00  0.00    +0.000 C 
ATOM      3  O   UNL     1       2.158   6.915  18.509  0.00  0.00    +0.000 OA
ATOM      4  H   UNL     1       1.982   6.139  21.625  0.00  0.00    +0.000 HD
ENDROOT
BRANCH   1   5
ATOM      5  S   UNL     1       2.260   4.404  20.189  0.00  0.00    +0.000 S 
ATOM      6  O   UNL     1       1.096   3.988  19.436  0.00  0.00    +0.000 OA
ATOM      7  O   UNL     1       2.631   3.704  21.401  0.00  0.00    +0.000 OA
BRANCH   5  12
ATOM      8  C   UNL     1       7.263   4.584  16.713  0.00  0.00    +0.000 C 
ATOM      9  C   UNL     1       6.025   4.542  17.561  0.00  0.00    +0.000 A 
ATOM     10  C   UNL     1       6.010   5.097  18.841  0.00  0.00    +0.000 A 
ATOM     11  C   UNL     1       4.851   5.042  19.617  0.00  0.00    +0.000 A 
ATOM     12  C   UNL     1       3.688   4.430  19.121  0.00  0.00    +0.000 A 
ATOM     13  C   UNL     1       3.676   3.871  17.830  0.00  0.00    +0.000 A 
ATOM     14  C   UNL     1       2.499   3.193  17.190  0.00  0.00    +0.000 C 
ATOM     15  C   UNL     1       4.860   3.937  17.069  0.00  0.00    +0.000 A 
ENDBRANCH   5  12
ENDBRANCH   1   5
BRANCH   2  16
ATOM     16  C   UNL     1       1.723   8.432  20.329  0.00  0.00    +0.000 C 
BRANCH  16  17
ATOM     17  O   UNL     1       1.577   9.405  19.300  0.00  0.00    +0.000 OA
BRANCH  17  18
ATOM     18  C   UNL     1       0.354  10.016  19.199  0.00  0.00    +0.000 A 
ATOM     19  C   UNL     1      -0.199  10.897  20.126  0.00  0.00    +0.000 A 
ATOM     20  C   UNL     1      -1.446  11.486  19.884  0.00  0.00    +0.000 A 
ATOM     21  C   UNL     1      -2.165  11.202  18.713  0.00  0.00    +0.000 A 
ATOM     22  C   UNL     1      -3.407  11.802  18.453  0.00  0.00    +0.000 A 
ATOM     23  C   UNL     1      -4.103  11.505  17.282  0.00  0.00    +0.000 A 
ATOM     24 CL   UNL     1      -5.620  12.256  16.975  0.00  0.00    +0.000 Cl
ATOM     25  C   UNL     1      -3.576  10.607  16.358  0.00  0.00    +0.000 A 
ATOM     26  C   UNL     1      -2.341  10.003  16.605  0.00  0.00    +0.000 A 
ATOM     27  C   UNL     1      -1.619  10.294  17.777  0.00  0.00    +0.000 A 
ATOM     28  C   UNL     1      -0.366   9.710  18.038  0.00  0.00    +0.000 A 
ENDBRANCH  17  18
ENDBRANCH  16  17
ENDBRANCH   2  16
TORSDOF 5
ENDMDL
