MODEL 1
REMARK VINA RESULT:      -7.8      0.000      0.000
REMARK  Name = 
REMARK  5 active torsions:
REMARK  status: ('A' for Active; 'I' for Inactive)
REMARK    1  A    between atoms: C_1  and  O_2
REMARK    2  A    between atoms: O_2  and  C_3
REMARK    3  A    between atoms: C_8  and  C_9
REMARK    4  A    between atoms: C_12  and  C_13
REMARK    5  A    between atoms: C_12  and  N_14
REMARK                            x       y       z     vdW  Elec       q    Type
REMARK                         _______ _______ _______ _____ _____    ______ ____
ROOT
ATOM      1  C   UNL     1       4.931   4.348  19.118  0.00  0.00    +0.000 C 
ATOM      2  O   UNL     1       4.951   3.059  19.716  0.00  0.00    +0.000 OA
ATOM      3  C   UNL     1       3.875   2.235  19.304  0.00  0.00    +0.000 C 
ATOM      4  C   UNL     1       2.527   2.862  19.623  0.00  0.00    +0.000 C 
ATOM      5  C   UNL     1       1.427   2.172  18.796  0.00  0.00    +0.000 C 
ATOM      6  C   UNL     1       2.503   4.378  19.413  0.00  0.00    +0.000 C 
ATOM      7  O   UNL     1       3.730   5.083  19.275  0.00  0.00    +0.000 OA
ENDROOT
BRANCH   1  13
ATOM      8  C   UNL     1       6.959   4.568  17.492  0.00  0.00    +0.000 A 
ATOM      9  C   UNL     1       7.412   4.722  16.169  0.00  0.00    +0.000 A 
ATOM     10  C   UNL     1       6.543   4.587  15.088  0.00  0.00    +0.000 A 
ATOM     11  C   UNL     1       5.204   4.316  15.316  0.00  0.00    +0.000 A 
ATOM     12  C   UNL     1       4.732   4.232  16.625  0.00  0.00    +0.000 A 
ATOM     13  C   UNL     1       5.591   4.370  17.742  0.00  0.00    +0.000 A 
BRANCH   8  15
ATOM     14  C   UNL     1       7.932   5.954  19.120  0.00  0.00    +0.000 C 
ATOM     15  O   UNL     1       7.823   4.643  18.556  0.00  0.00    +0.000 OA
ENDBRANCH   8  15
ENDBRANCH   1  13
BRANCH   4  16
ATOM     16  N   UNL     1       2.192   2.621  21.101  0.00  0.00    +0.000 N 
ATOM     17  O   UNL     1       3.098   2.265  21.867  0.00  0.00    +0.000 OA
ATOM     18  O   UNL     1       1.023   2.820  21.453  0.00  0.00    +0.000 OA
ENDBRANCH   4  16
TORSDOF 3
ENDMDL
MODEL 2
REMARK VINA RESULT:      -7.5      2.778      5.556
REMARK  Name = 
REMARK  5 active torsions:
REMARK  status: ('A' for Active; 'I' for Inactive)
REMARK    1  A    between atoms: C_1  and  O_2
REMARK    2  A    between atoms: O_2  and  C_3
REMARK    3  A    between atoms: C_8  and  C_9
REMARK    4  A    between atoms: C_12  and  C_13
REMARK    5  A    between atoms: C_12  and  N_14
REMARK                            x       y       z     vdW  Elec       q    Type
REMARK                         _______ _______ _______ _____ _____    ______ ____
ROOT
ATOM      1  C   UNL     1       3.631   4.635  17.306  0.00  0.00    +0.000 C 
ATOM      2  O   UNL     1       4.681   3.677  17.287  0.00  0.00    +0.000 OA
ATOM      3  C   UNL     1       5.695   3.942  18.241  0.00  0.00    +0.000 C 
ATOM      4  C   UNL     1       6.325   5.309  18.034  0.00  0.00    +0.000 C 
ATOM      5  C   UNL     1       7.084   5.727  19.307  0.00  0.00    +0.000 C 
ATOM      6  C   UNL     1       5.314   6.382  17.619  0.00  0.00    +0.000 C 
ATOM      7  O   UNL     1       4.026   5.988  17.164  0.00  0.00    +0.000 OA
ENDROOT
BRANCH   1  13
ATOM      8  C   UNL     1       2.324   5.064  19.522  0.00  0.00    +0.000 A 
ATOM      9  C   UNL     1       1.419   4.579  20.484  0.00  0.00    +0.000 A 
ATOM     10  C   UNL     1       0.681   3.418  20.258  0.00  0.00    +0.000 A 
ATOM     11  C   UNL     1       0.853   2.716  19.076  0.00  0.00    +0.000 A 
ATOM     12  C   UNL     1       1.799   3.151  18.149  0.00  0.00    +0.000 A 
ATOM     13  C   UNL     1       2.567   4.323  18.354  0.00  0.00    +0.000 A 
BRANCH   8  15
ATOM     14  C   UNL     1       2.166   7.392  19.797  0.00  0.00    +0.000 C 
ATOM     15  O   UNL     1       3.009   6.238  19.717  0.00  0.00    +0.000 OA
ENDBRANCH   8  15
ENDBRANCH   1  13
BRANCH   4  16
ATOM     16  N   UNL     1       7.360   5.226  16.904  0.00  0.00    +0.000 N 
ATOM     17  O   UNL     1       8.077   4.219  16.826  0.00  0.00    +0.000 OA
ATOM     18  O   UNL     1       7.404   6.174  16.111  0.00  0.00    +0.000 OA
ENDBRANCH   4  16
TORSDOF 3
ENDMDL
MODEL 3
REMARK VINA RESULT:      -7.4      2.778      5.843
REMARK  Name = 
REMARK  5 active torsions:
REMARK  status: ('A' for Active; 'I' for Inactive)
REMARK    1  A    between atoms: C_1  and  O_2
REMARK    2  A    between atoms: O_2  and  C_3
REMARK    3  A    between atoms: C_8  and  C_9
REMARK    4  A    between atoms: C_12  and  C_13
REMARK    5  A    between atoms: C_12  and  N_14
REMARK                            x       y       z     vdW  Elec       q    Type
REMARK                         _______ _______ _______ _____ _____    ______ ____
ROOT
ATOM      1  C   UNL     1       4.856   5.576  19.094  0.00  0.00    +0.000 C 
ATOM      2  O   UNL     1       4.671   6.335  17.907  0.00  0.00    +0.000 OA
ATOM      3  C   UNL     1       4.726   5.550  16.729  0.00  0.00    +0.000 C 
ATOM      4  C   UNL     1       6.052   4.819  16.596  0.00  0.00    +0.000 C 
ATOM      5  C   UNL     1       5.912   3.677  15.573  0.00  0.00    +0.000 C 
ATOM      6  C   UNL     1       6.589   4.299  17.932  0.00  0.00    +0.000 C 
ATOM      7  O   UNL     1       6.032   4.787  19.145  0.00  0.00    +0.000 OA
ENDROOT
BRANCH   1  13
ATOM      8  C   UNL     1       2.407   5.631  19.991  0.00  0.00    +0.000 A 
ATOM      9  C   UNL     1       1.339   4.930  20.580  0.00  0.00    +0.000 A 
ATOM     10  C   UNL     1       1.364   3.541  20.694  0.00  0.00    +0.000 A 
ATOM     11  C   UNL     1       2.465   2.836  20.238  0.00  0.00    +0.000 A 
ATOM     12  C   UNL     1       3.558   3.528  19.717  0.00  0.00    +0.000 A 
ATOM     13  C   UNL     1       3.563   4.938  19.594  0.00  0.00    +0.000 A 
BRANCH   8  15
ATOM     14  C   UNL     1       1.540   7.664  20.788  0.00  0.00    +0.000 C 
ATOM     15  O   UNL     1       2.361   6.993  19.825  0.00  0.00    +0.000 OA
ENDBRANCH   8  15
ENDBRANCH   1  13
BRANCH   4  16
ATOM     16  N   UNL     1       7.111   5.784  16.047  0.00  0.00    +0.000 N 
ATOM     17  O   UNL     1       7.558   6.666  16.792  0.00  0.00    +0.000 OA
ATOM     18  O   UNL     1       7.480   5.609  14.879  0.00  0.00    +0.000 OA
ENDBRANCH   4  16
TORSDOF 3
ENDMDL
MODEL 4
REMARK VINA RESULT:      -7.4      2.537      5.695
REMARK  Name = 
REMARK  5 active torsions:
REMARK  status: ('A' for Active; 'I' for Inactive)
REMARK    1  A    between atoms: C_1  and  O_2
REMARK    2  A    between atoms: O_2  and  C_3
REMARK    3  A    between atoms: C_8  and  C_9
REMARK    4  A    between atoms: C_12  and  C_13
REMARK    5  A    between atoms: C_12  and  N_14
REMARK                            x       y       z     vdW  Elec       q    Type
REMARK                         _______ _______ _______ _____ _____    ______ ____
ROOT
ATOM      1  C   UNL     1       4.846   5.535  19.091  0.00  0.00    +0.000 C 
ATOM      2  O   UNL     1       4.646   6.288  17.902  0.00  0.00    +0.000 OA
ATOM      3  C   UNL     1       4.713   5.501  16.726  0.00  0.00    +0.000 C 
ATOM      4  C   UNL     1       6.051   4.792  16.593  0.00  0.00    +0.000 C 
ATOM      5  C   UNL     1       5.930   3.645  15.574  0.00  0.00    +0.000 C 
ATOM      6  C   UNL     1       6.599   4.285  17.930  0.00  0.00    +0.000 C 
ATOM      7  O   UNL     1       6.036   4.767  19.143  0.00  0.00    +0.000 OA
ENDROOT
BRANCH   1  13
ATOM      8  C   UNL     1       3.231   3.519  19.454  0.00  0.00    +0.000 A 
ATOM      9  C   UNL     1       1.949   3.073  19.825  0.00  0.00    +0.000 A 
ATOM     10  C   UNL     1       1.030   3.934  20.421  0.00  0.00    +0.000 A 
ATOM     11  C   UNL     1       1.372   5.258  20.637  0.00  0.00    +0.000 A 
ATOM     12  C   UNL     1       2.614   5.727  20.209  0.00  0.00    +0.000 A 
ATOM     13  C   UNL     1       3.565   4.876  19.595  0.00  0.00    +0.000 A 
BRANCH   8  15
ATOM     14  C   UNL     1       3.594   1.665  18.058  0.00  0.00    +0.000 C 
ATOM     15  O   UNL     1       4.158   2.660  18.919  0.00  0.00    +0.000 OA
ENDBRANCH   8  15
ENDBRANCH   1  13
BRANCH   4  16
ATOM     16  N   UNL     1       7.092   5.774  16.040  0.00  0.00    +0.000 N 
ATOM     17  O   UNL     1       7.526   6.665  16.783  0.00  0.00    +0.000 OA
ATOM     18  O   UNL     1       7.462   5.603  14.871  0.00  0.00    +0.000 OA
ENDBRANCH   4  16
TORSDOF 3
ENDMDL
MODEL 5
REMARK VINA RESULT:      -7.4      2.406      5.642
REMARK  Name = 
REMARK  5 active torsions:
REMARK  status: ('A' for Active; 'I' for Inactive)
REMARK    1  A    between atoms: C_1  and  O_2
REMARK    2  A    between atoms: O_2  and  C_3
REMARK    3  A    between atoms: C_8  and  C_9
REMARK    4  A    between atoms: C_12  and  C_13
REMARK    5  A    between atoms: C_12  and  N_14
REMARK                            x       y       z     vdW  Elec       q    Type
REMARK                         _______ _______ _______ _____ _____    ______ ____
ROOT
ATOM      1  C   UNL     1       4.644   4.765  19.397  0.00  0.00    +0.000 C 
ATOM      2  O   UNL     1       4.561   6.112  18.950  0.00  0.00    +0.000 OA
ATOM      3  C   UNL     1       4.827   6.259  17.567  0.00  0.00    +0.000 C 
ATOM      4  C   UNL     1       6.208   5.743  17.197  0.00  0.00    +0.000 C 
ATOM      5  C   UNL     1       6.287   5.521  15.675  0.00  0.00    +0.000 C 
ATOM      6  C   UNL     1       6.601   4.475  17.959  0.00  0.00    +0.000 C 
ATOM      7  O   UNL     1       5.857   4.092  19.108  0.00  0.00    +0.000 OA
ENDROOT
BRANCH   1  13
ATOM      8  C   UNL     1       2.206   4.061  19.998  0.00  0.00    +0.000 A 
ATOM      9  C   UNL     1       1.132   3.178  19.777  0.00  0.00    +0.000 A 
ATOM     10  C   UNL     1       1.136   2.295  18.699  0.00  0.00    +0.000 A 
ATOM     11  C   UNL     1       2.220   2.268  17.839  0.00  0.00    +0.000 A 
ATOM     12  C   UNL     1       3.319   3.089  18.091  0.00  0.00    +0.000 A 
ATOM     13  C   UNL     1       3.346   3.992  19.181  0.00  0.00    +0.000 A 
BRANCH   8  15
ATOM     14  C   UNL     1       1.561   6.216  20.678  0.00  0.00    +0.000 C 
ATOM     15  O   UNL     1       2.179   4.972  21.025  0.00  0.00    +0.000 OA
ENDBRANCH   8  15
ENDBRANCH   1  13
BRANCH   4  16
ATOM     16  N   UNL     1       7.258   6.806  17.548  0.00  0.00    +0.000 N 
ATOM     17  O   UNL     1       7.311   7.840  16.868  0.00  0.00    +0.000 OA
ATOM     18  O   UNL     1       7.988   6.576  18.520  0.00  0.00    +0.000 OA
ENDBRANCH   4  16
TORSDOF 3
ENDMDL
MODEL 6
REMARK VINA RESULT:      -7.4      2.770      5.798
REMARK  Name = 
REMARK  5 active torsions:
REMARK  status: ('A' for Active; 'I' for Inactive)
REMARK    1  A    between atoms: C_1  and  O_2
REMARK    2  A    between atoms: O_2  and  C_3
REMARK    3  A    between atoms: C_8  and  C_9
REMARK    4  A    between atoms: C_12  and  C_13
REMARK    5  A    between atoms: C_12  and  N_14
REMARK                            x       y       z     vdW  Elec       q    Type
REMARK                         _______ _______ _______ _____ _____    ______ ____
ROOT
ATOM      1  C   UNL     1       3.755   4.970  17.457  0.00  0.00    +0.000 C 
ATOM      2  O   UNL     1       4.779   4.012  17.223  0.00  0.00    +0.000 OA
ATOM      3  C   UNL     1       5.886   4.154  18.095  0.00  0.00    +0.000 C 
ATOM      4  C   UNL     1       6.520   5.531  17.987  0.00  0.00    +0.000 C 
ATOM      5  C   UNL     1       7.409   5.790  19.218  0.00  0.00    +0.000 C 
ATOM      6  C   UNL     1       5.495   6.653  17.801  0.00  0.00    +0.000 C 
ATOM      7  O   UNL     1       4.162   6.327  17.434  0.00  0.00    +0.000 OA
ENDROOT
BRANCH   1  13
ATOM      8  C   UNL     1       2.171   3.291  18.672  0.00  0.00    +0.000 A 
ATOM      9  C   UNL     1       1.184   3.083  19.653  0.00  0.00    +0.000 A 
ATOM     10  C   UNL     1       0.876   4.070  20.587  0.00  0.00    +0.000 A 
ATOM     11  C   UNL     1       1.535   5.287  20.540  0.00  0.00    +0.000 A 
ATOM     12  C   UNL     1       2.464   5.528  19.528  0.00  0.00    +0.000 A 
ATOM     13  C   UNL     1       2.793   4.546  18.563  0.00  0.00    +0.000 A 
BRANCH   8  15
ATOM     14  C   UNL     1       3.402   1.318  18.338  0.00  0.00    +0.000 C 
ATOM     15  O   UNL     1       2.517   2.300  17.787  0.00  0.00    +0.000 OA
ENDBRANCH   8  15
ENDBRANCH   1  13
BRANCH   4  16
ATOM     16  N   UNL     1       7.438   5.572  16.757  0.00  0.00    +0.000 N 
ATOM     17  O   UNL     1       7.714   6.670  16.256  0.00  0.00    +0.000 OA
ATOM     18  O   UNL     1       7.874   4.490  16.344  0.00  0.00    +0.000 OA
ENDBRANCH   4  16
TORSDOF 3
ENDMDL
MODEL 7
REMARK VINA RESULT:      -7.3      2.667      5.692
REMARK  Name = 
REMARK  5 active torsions:
REMARK  status: ('A' for Active; 'I' for Inactive)
REMARK    1  A    between atoms: C_1  and  O_2
REMARK    2  A    between atoms: O_2  and  C_3
REMARK    3  A    between atoms: C_8  and  C_9
REMARK    4  A    between atoms: C_12  and  C_13
REMARK    5  A    between atoms: C_12  and  N_14
REMARK                            x       y       z     vdW  Elec       q    Type
REMARK                         _______ _______ _______ _____ _____    ______ ____
ROOT
ATOM      1  C   UNL     1       4.753   3.321  18.592  0.00  0.00    +0.000 C 
ATOM      2  O   UNL     1       5.794   4.133  19.119  0.00  0.00    +0.000 OA
ATOM      3  C   UNL     1       5.712   5.485  18.701  0.00  0.00    +0.000 C 
ATOM      4  C   UNL     1       5.757   5.614  17.188  0.00  0.00    +0.000 C 
ATOM      5  C   UNL     1       5.240   7.004  16.772  0.00  0.00    +0.000 C 
ATOM      6  C   UNL     1       4.989   4.504  16.465  0.00  0.00    +0.000 C 
ATOM      7  O   UNL     1       4.607   3.338  17.183  0.00  0.00    +0.000 OA
ENDROOT
BRANCH   1  13
ATOM      8  C   UNL     1       2.380   4.227  19.190  0.00  0.00    +0.000 A 
ATOM      9  C   UNL     1       1.334   4.296  20.128  0.00  0.00    +0.000 A 
ATOM     10  C   UNL     1       1.316   3.470  21.250  0.00  0.00    +0.000 A 
ATOM     11  C   UNL     1       2.353   2.578  21.461  0.00  0.00    +0.000 A 
ATOM     12  C   UNL     1       3.429   2.552  20.574  0.00  0.00    +0.000 A 
ATOM     13  C   UNL     1       3.477   3.383  19.429  0.00  0.00    +0.000 A 
BRANCH   8  15
ATOM     14  C   UNL     1       2.164   6.392  18.304  0.00  0.00    +0.000 C 
ATOM     15  O   UNL     1       2.372   4.998  18.054  0.00  0.00    +0.000 OA
ENDBRANCH   8  15
ENDBRANCH   1  13
BRANCH   4  16
ATOM     16  N   UNL     1       7.212   5.518  16.713  0.00  0.00    +0.000 N 
ATOM     17  O   UNL     1       7.766   4.410  16.709  0.00  0.00    +0.000 OA
ATOM     18  O   UNL     1       7.751   6.566  16.334  0.00  0.00    +0.000 OA
ENDBRANCH   4  16
TORSDOF 3
ENDMDL
MODEL 8
REMARK VINA RESULT:      -7.2      2.577      5.915
REMARK  Name = 
REMARK  5 active torsions:
REMARK  status: ('A' for Active; 'I' for Inactive)
REMARK    1  A    between atoms: C_1  and  O_2
REMARK    2  A    between atoms: O_2  and  C_3
REMARK    3  A    between atoms: C_8  and  C_9
REMARK    4  A    between atoms: C_12  and  C_13
REMARK    5  A    between atoms: C_12  and  N_14
REMARK                            x       y       z     vdW  Elec       q    Type
REMARK                         _______ _______ _______ _____ _____    ______ ____
ROOT
ATOM      1  C   UNL     1       4.091   4.462  17.949  0.00  0.00    +0.000 C 
ATOM      2  O   UNL     1       5.331   4.027  18.491  0.00  0.00    +0.000 OA
ATOM      3  C   UNL     1       6.283   5.069  18.613  0.00  0.00    +0.000 C 
ATOM      4  C   UNL     1       6.579   5.726  17.274  0.00  0.00    +0.000 C 
ATOM      5  C   UNL     1       7.257   7.089  17.505  0.00  0.00    +0.000 C 
ATOM      6  C   UNL     1       5.339   5.871  16.388  0.00  0.00    +0.000 C 
ATOM      7  O   UNL     1       4.164   5.139  16.706  0.00  0.00    +0.000 OA
ENDROOT
BRANCH   1  13
ATOM      8  C   UNL     1       2.361   4.294  19.894  0.00  0.00    +0.000 A 
ATOM      9  C   UNL     1       1.425   4.949  20.715  0.00  0.00    +0.000 A 
ATOM     10  C   UNL     1       1.333   6.340  20.735  0.00  0.00    +0.000 A 
ATOM     11  C   UNL     1       2.163   7.093  19.922  0.00  0.00    +0.000 A 
ATOM     12  C   UNL     1       3.044   6.450  19.054  0.00  0.00    +0.000 A 
ATOM     13  C   UNL     1       3.155   5.039  19.007  0.00  0.00    +0.000 A 
BRANCH   8  15
ATOM     14  C   UNL     1       1.438   2.235  19.239  0.00  0.00    +0.000 C 
ATOM     15  O   UNL     1       2.494   2.927  19.914  0.00  0.00    +0.000 OA
ENDBRANCH   8  15
ENDBRANCH   1  13
BRANCH   4  16
ATOM     16  N   UNL     1       7.575   4.859  16.493  0.00  0.00    +0.000 N 
ATOM     17  O   UNL     1       7.609   4.955  15.258  0.00  0.00    +0.000 OA
ATOM     18  O   UNL     1       8.314   4.117  17.152  0.00  0.00    +0.000 OA
ENDBRANCH   4  16
TORSDOF 3
ENDMDL
MODEL 9
REMARK VINA RESULT:      -7.1      2.764      5.832
REMARK  Name = 
REMARK  5 active torsions:
REMARK  status: ('A' for Active; 'I' for Inactive)
REMARK    1  A    between atoms: C_1  and  O_2
REMARK    2  A    between atoms: O_2  and  C_3
REMARK    3  A    between atoms: C_8  and  C_9
REMARK    4  A    between atoms: C_12  and  C_13
REMARK    5  A    between atoms: C_12  and  N_14
REMARK                            x       y       z     vdW  Elec       q    Type
REMARK                         _______ _______ _______ _____ _____    ______ ____
ROOT
ATOM      1  C   UNL     1       3.246   4.829  17.554  0.00  0.00    +0.000 C 
ATOM      2  O   UNL     1       4.261   4.027  16.963  0.00  0.00    +0.000 OA
ATOM      3  C   UNL     1       5.552   4.289  17.484  0.00  0.00    +0.000 C 
ATOM      4  C   UNL     1       5.955   5.742  17.297  0.00  0.00    +0.000 C 
ATOM      5  C   UNL     1       7.132   6.077  18.233  0.00  0.00    +0.000 C 
ATOM      6  C   UNL     1       4.795   6.720  17.501  0.00  0.00    +0.000 C 
ATOM      7  O   UNL     1       3.462   6.228  17.514  0.00  0.00    +0.000 OA
ENDROOT
BRANCH   1  13
ATOM      8  C   UNL     1       2.382   2.892  19.073  0.00  0.00    +0.000 A 
ATOM      9  C   UNL     1       1.754   2.509  20.273  0.00  0.00    +0.000 A 
ATOM     10  C   UNL     1       1.540   3.427  21.299  0.00  0.00    +0.000 A 
ATOM     11  C   UNL     1       1.932   4.745  21.132  0.00  0.00    +0.000 A 
ATOM     12  C   UNL     1       2.489   5.149  19.920  0.00  0.00    +0.000 A 
ATOM     13  C   UNL     1       2.714   4.239  18.858  0.00  0.00    +0.000 A 
BRANCH   8  15
ATOM     14  C   UNL     1       3.749   1.112  18.377  0.00  0.00    +0.000 C 
ATOM     15  O   UNL     1       2.646   1.977  18.083  0.00  0.00    +0.000 OA
ENDBRANCH   8  15
ENDBRANCH   1  13
BRANCH   4  16
ATOM     16  N   UNL     1       6.454   5.950  15.861  0.00  0.00    +0.000 N 
ATOM     17  O   UNL     1       7.623   5.648  15.586  0.00  0.00    +0.000 OA
ATOM     18  O   UNL     1       5.640   6.394  15.041  0.00  0.00    +0.000 OA
ENDBRANCH   4  16
TORSDOF 3
ENDMDL
