MODEL 1
REMARK VINA RESULT:      -7.0      0.000      0.000
REMARK  Name = 
REMARK  13 active torsions:
REMARK  status: ('A' for Active; 'I' for Inactive)
REMARK    1  A    between atoms: C_1  and  C_2
REMARK    2  A    between atoms: C_2  and  N_3
REMARK    3  A    between atoms: N_3  and  C_4
REMARK    4  A    between atoms: N_3  and  C_6
REMARK    5  A    between atoms: C_4  and  C_5
REMARK    6  A    between atoms: C_6  and  C_7
REMARK    7  A    between atoms: C_7  and  N_8
REMARK    8  A    between atoms: N_8  and  C_9
REMARK    9  A    between atoms: N_16  and  C_17
REMARK   10  A    between atoms: C_17  and  C_18
REMARK   11  A    between atoms: C_18  and  O_19
REMARK   12  A    between atoms: C_21  and  O_22
REMARK   13  A    between atoms: C_25  and  O_26
REMARK                            x       y       z     vdW  Elec       q    Type
REMARK                         _______ _______ _______ _____ _____    ______ ____
ROOT
ATOM      1  C   UNL     1       4.762   5.819  17.583  0.00  0.00    +0.000 A 
ATOM      2  C   UNL     1       4.954   4.505  18.072  0.00  0.00    +0.000 A 
ATOM      3  C   UNL     1       4.231   3.956  19.155  0.00  0.00    +0.000 A 
ATOM      4  C   UNL     1       3.290   4.795  19.754  0.00  0.00    +0.000 A 
ATOM      5  C   UNL     1       3.035   6.040  19.229  0.00  0.00    +0.000 A 
ATOM      6  C   UNL     1       2.052   6.627  20.026  0.00  0.00    +0.000 A 
ATOM      7  N   UNL     1       1.671   5.823  21.028  0.00  0.00    +0.000 NA
ATOM      8  N   UNL     1       2.446   4.709  20.839  0.00  0.00    +0.000 N 
ATOM      9  C   UNL     1       1.635   7.989  19.745  0.00  0.00    +0.000 A 
ATOM     10  C   UNL     1       0.761   8.698  20.572  0.00  0.00    +0.000 A 
ATOM     11  C   UNL     1       0.431  10.018  20.280  0.00  0.00    +0.000 A 
ATOM     12  C   UNL     1       0.994  10.654  19.171  0.00  0.00    +0.000 A 
ATOM     13  C   UNL     1       1.877   9.961  18.339  0.00  0.00    +0.000 A 
ATOM     14  C   UNL     1       2.190   8.619  18.595  0.00  0.00    +0.000 A 
ATOM     15  C   UNL     1       3.065   7.827  17.638  0.00  0.00    +0.000 C 
ATOM     16  O   UNL     1       3.136   8.135  16.451  0.00  0.00    +0.000 OA
ATOM     17  C   UNL     1       3.689   6.554  18.111  0.00  0.00    +0.000 A 
ENDROOT
BRANCH   1  18
ATOM     18  N   UNL     1       5.659   6.239  16.585  0.00  0.00    +0.000 N 
ATOM     19  H   UNL     1       6.627   6.115  16.884  0.00  0.00    +0.000 HD
BRANCH  18  20
ATOM     20  C   UNL     1       5.480   5.670  15.243  0.00  0.00    +0.000 C 
BRANCH  20  21
ATOM     21  C   UNL     1       6.724   4.881  14.781  0.00  0.00    +0.000 C 
BRANCH  21  22
ATOM     22  N   UNL     1       6.569   4.016  13.586  0.00  0.00    +0.000 NA
BRANCH  22  24
ATOM     23  C   UNL     1       4.941   3.194  11.845  0.00  0.00    +0.000 C 
ATOM     24  C   UNL     1       5.158   3.846  13.208  0.00  0.00    +0.000 C 
ENDBRANCH  22  24
BRANCH  22  25
ATOM     25  C   UNL     1       7.439   4.484  12.491  0.00  0.00    +0.000 C 
ATOM     26  C   UNL     1       8.299   5.712  12.786  0.00  0.00    +0.000 C 
ENDBRANCH  22  25
ENDBRANCH  21  22
ENDBRANCH  20  21
ENDBRANCH  18  20
ENDBRANCH   1  18
BRANCH  10  27
ATOM     27  O   UNL     1       0.202   8.148  21.693  0.00  0.00    +0.000 OA
ATOM     28  H   UNL     1       0.909   8.086  22.374  0.00  0.00    +0.000 HD
ENDBRANCH  10  27
BRANCH  13  29
ATOM     29  O   UNL     1       2.464  10.630  17.303  0.00  0.00    +0.000 OA
ATOM     30  H   UNL     1       3.159  11.219  17.639  0.00  0.00    +0.000 HD
ENDBRANCH  13  29
BRANCH   8  31
ATOM     31  C   UNL     1       2.366   3.612  21.787  0.00  0.00    +0.000 C 
BRANCH  31  32
ATOM     32  C   UNL     1       1.331   2.571  21.386  0.00  0.00    +0.000 C 
BRANCH  32  33
ATOM     33  O   UNL     1       0.436   3.074  20.396  0.00  0.00    +0.000 OA
ATOM     34  H   UNL     1       0.433   4.046  20.471  0.00  0.00    +0.000 HD
ENDBRANCH  32  33
ENDBRANCH  31  32
ENDBRANCH   8  31
TORSDOF 11
ENDMDL
MODEL 2
REMARK VINA RESULT:      -6.8      1.999      4.618
REMARK  Name = 
REMARK  13 active torsions:
REMARK  status: ('A' for Active; 'I' for Inactive)
REMARK    1  A    between atoms: C_1  and  C_2
REMARK    2  A    between atoms: C_2  and  N_3
REMARK    3  A    between atoms: N_3  and  C_4
REMARK    4  A    between atoms: N_3  and  C_6
REMARK    5  A    between atoms: C_4  and  C_5
REMARK    6  A    between atoms: C_6  and  C_7
REMARK    7  A    between atoms: C_7  and  N_8
REMARK    8  A    between atoms: N_8  and  C_9
REMARK    9  A    between atoms: N_16  and  C_17
REMARK   10  A    between atoms: C_17  and  C_18
REMARK   11  A    between atoms: C_18  and  O_19
REMARK   12  A    between atoms: C_21  and  O_22
REMARK   13  A    between atoms: C_25  and  O_26
REMARK                            x       y       z     vdW  Elec       q    Type
REMARK                         _______ _______ _______ _____ _____    ______ ____
ROOT
ATOM      1  C   UNL     1       5.775   5.566  16.565  0.00  0.00    +0.000 A 
ATOM      2  C   UNL     1       5.591   6.833  15.959  0.00  0.00    +0.000 A 
ATOM      3  C   UNL     1       4.608   7.762  16.365  0.00  0.00    +0.000 A 
ATOM      4  C   UNL     1       3.785   7.365  17.420  0.00  0.00    +0.000 A 
ATOM      5  C   UNL     1       4.015   6.176  18.071  0.00  0.00    +0.000 A 
ATOM      6  C   UNL     1       3.050   6.064  19.073  0.00  0.00    +0.000 A 
ATOM      7  N   UNL     1       2.221   7.117  19.091  0.00  0.00    +0.000 NA
ATOM      8  N   UNL     1       2.692   7.897  18.068  0.00  0.00    +0.000 N 
ATOM      9  C   UNL     1       3.007   4.859  19.880  0.00  0.00    +0.000 A 
ATOM     10  C   UNL     1       1.993   4.606  20.808  0.00  0.00    +0.000 A 
ATOM     11  C   UNL     1       1.975   3.412  21.523  0.00  0.00    +0.000 A 
ATOM     12  C   UNL     1       2.956   2.444  21.298  0.00  0.00    +0.000 A 
ATOM     13  C   UNL     1       3.971   2.678  20.366  0.00  0.00    +0.000 A 
ATOM     14  C   UNL     1       4.029   3.890  19.666  0.00  0.00    +0.000 A 
ATOM     15  C   UNL     1       5.186   4.196  18.730  0.00  0.00    +0.000 C 
ATOM     16  O   UNL     1       6.282   3.666  18.893  0.00  0.00    +0.000 OA
ATOM     17  C   UNL     1       5.036   5.293  17.726  0.00  0.00    +0.000 A 
ENDROOT
BRANCH   1  18
ATOM     18  N   UNL     1       6.715   4.722  15.947  0.00  0.00    +0.000 N 
ATOM     19  H   UNL     1       7.410   4.392  16.618  0.00  0.00    +0.000 HD
BRANCH  18  20
ATOM     20  C   UNL     1       6.189   3.585  15.180  0.00  0.00    +0.000 C 
BRANCH  20  21
ATOM     21  C   UNL     1       5.732   4.007  13.767  0.00  0.00    +0.000 C 
BRANCH  21  22
ATOM     22  N   UNL     1       6.463   3.418  12.618  0.00  0.00    +0.000 NA
BRANCH  22  24
ATOM     23  C   UNL     1       4.272   3.241  11.384  0.00  0.00    +0.000 C 
ATOM     24  C   UNL     1       5.592   2.582  11.780  0.00  0.00    +0.000 C 
ENDBRANCH  22  24
BRANCH  22  25
ATOM     25  C   UNL     1       7.196   4.463  11.880  0.00  0.00    +0.000 C 
ATOM     26  C   UNL     1       8.068   5.399  12.715  0.00  0.00    +0.000 C 
ENDBRANCH  22  25
ENDBRANCH  21  22
ENDBRANCH  20  21
ENDBRANCH  18  20
ENDBRANCH   1  18
BRANCH  10  27
ATOM     27  O   UNL     1       0.983   5.496  21.052  0.00  0.00    +0.000 OA
ATOM     28  H   UNL     1       0.269   5.315  20.401  0.00  0.00    +0.000 HD
ENDBRANCH  10  27
BRANCH  13  29
ATOM     29  O   UNL     1       4.875   1.684  20.117  0.00  0.00    +0.000 OA
ATOM     30  H   UNL     1       4.559   1.120  19.393  0.00  0.00    +0.000 HD
ENDBRANCH  13  29
BRANCH   8  31
ATOM     31  C   UNL     1       1.997   9.125  17.726  0.00  0.00    +0.000 C 
BRANCH  31  32
ATOM     32  C   UNL     1       0.836   9.417  18.666  0.00  0.00    +0.000 C 
BRANCH  32  33
ATOM     33  O   UNL     1       1.280   9.593  20.010  0.00  0.00    +0.000 OA
ATOM     34  H   UNL     1       2.226   9.828  19.979  0.00  0.00    +0.000 HD
ENDBRANCH  32  33
ENDBRANCH  31  32
ENDBRANCH   8  31
TORSDOF 11
ENDMDL
MODEL 3
REMARK VINA RESULT:      -6.7      2.107      4.821
REMARK  Name = 
REMARK  13 active torsions:
REMARK  status: ('A' for Active; 'I' for Inactive)
REMARK    1  A    between atoms: C_1  and  C_2
REMARK    2  A    between atoms: C_2  and  N_3
REMARK    3  A    between atoms: N_3  and  C_4
REMARK    4  A    between atoms: N_3  and  C_6
REMARK    5  A    between atoms: C_4  and  C_5
REMARK    6  A    between atoms: C_6  and  C_7
REMARK    7  A    between atoms: C_7  and  N_8
REMARK    8  A    between atoms: N_8  and  C_9
REMARK    9  A    between atoms: N_16  and  C_17
REMARK   10  A    between atoms: C_17  and  C_18
REMARK   11  A    between atoms: C_18  and  O_19
REMARK   12  A    between atoms: C_21  and  O_22
REMARK   13  A    between atoms: C_25  and  O_26
REMARK                            x       y       z     vdW  Elec       q    Type
REMARK                         _______ _______ _______ _____ _____    ______ ____
ROOT
ATOM      1  C   UNL     1       5.531   5.373  16.289  0.00  0.00    +0.000 A 
ATOM      2  C   UNL     1       5.322   6.625  15.662  0.00  0.00    +0.000 A 
ATOM      3  C   UNL     1       4.393   7.586  16.119  0.00  0.00    +0.000 A 
ATOM      4  C   UNL     1       3.652   7.237  17.249  0.00  0.00    +0.000 A 
ATOM      5  C   UNL     1       3.913   6.062  17.915  0.00  0.00    +0.000 A 
ATOM      6  C   UNL     1       3.033   5.999  18.995  0.00  0.00    +0.000 A 
ATOM      7  N   UNL     1       2.228   7.069  19.050  0.00  0.00    +0.000 NA
ATOM      8  N   UNL     1       2.627   7.810  17.969  0.00  0.00    +0.000 N 
ATOM      9  C   UNL     1       3.034   4.818  19.840  0.00  0.00    +0.000 A 
ATOM     10  C   UNL     1       2.096   4.613  20.855  0.00  0.00    +0.000 A 
ATOM     11  C   UNL     1       2.114   3.441  21.604  0.00  0.00    +0.000 A 
ATOM     12  C   UNL     1       3.055   2.446  21.328  0.00  0.00    +0.000 A 
ATOM     13  C   UNL     1       3.994   2.632  20.310  0.00  0.00    +0.000 A 
ATOM     14  C   UNL     1       4.016   3.823  19.571  0.00  0.00    +0.000 A 
ATOM     15  C   UNL     1       5.098   4.077  18.535  0.00  0.00    +0.000 C 
ATOM     16  O   UNL     1       6.193   3.529  18.623  0.00  0.00    +0.000 OA
ATOM     17  C   UNL     1       4.886   5.148  17.514  0.00  0.00    +0.000 A 
ENDROOT
BRANCH   1  18
ATOM     18  N   UNL     1       6.401   4.492  15.622  0.00  0.00    +0.000 N 
ATOM     19  H   UNL     1       6.802   3.811  16.268  0.00  0.00    +0.000 HD
BRANCH  18  20
ATOM     20  C   UNL     1       5.873   3.799  14.439  0.00  0.00    +0.000 C 
BRANCH  20  21
ATOM     21  C   UNL     1       6.774   4.004  13.202  0.00  0.00    +0.000 C 
BRANCH  21  22
ATOM     22  N   UNL     1       6.291   3.444  11.916  0.00  0.00    +0.000 NA
BRANCH  22  24
ATOM     23  C   UNL     1       6.632   1.114  11.016  0.00  0.00    +0.000 C 
ATOM     24  C   UNL     1       7.239   2.476  11.346  0.00  0.00    +0.000 C 
ENDBRANCH  22  24
BRANCH  22  25
ATOM     25  C   UNL     1       4.914   2.936  12.056  0.00  0.00    +0.000 C 
ATOM     26  C   UNL     1       3.901   3.427  11.023  0.00  0.00    +0.000 C 
ENDBRANCH  22  25
ENDBRANCH  21  22
ENDBRANCH  20  21
ENDBRANCH  18  20
ENDBRANCH   1  18
BRANCH  10  27
ATOM     27  O   UNL     1       1.126   5.530  21.154  0.00  0.00    +0.000 OA
ATOM     28  H   UNL     1       1.040   6.131  20.380  0.00  0.00    +0.000 HD
ENDBRANCH  10  27
BRANCH  13  29
ATOM     29  O   UNL     1       4.856   1.613  20.018  0.00  0.00    +0.000 OA
ATOM     30  H   UNL     1       5.401   1.404  20.794  0.00  0.00    +0.000 HD
ENDBRANCH  13  29
BRANCH   8  31
ATOM     31  C   UNL     1       1.929   9.042  17.648  0.00  0.00    +0.000 C 
BRANCH  31  32
ATOM     32  C   UNL     1       1.628   9.878  18.884  0.00  0.00    +0.000 C 
BRANCH  32  33
ATOM     33  O   UNL     1       0.493   9.382  19.590  0.00  0.00    +0.000 OA
ATOM     34  H   UNL     1       0.681   8.458  19.837  0.00  0.00    +0.000 HD
ENDBRANCH  32  33
ENDBRANCH  31  32
ENDBRANCH   8  31
TORSDOF 11
ENDMDL
MODEL 4
REMARK VINA RESULT:      -6.5      0.465      1.342
REMARK  Name = 
REMARK  13 active torsions:
REMARK  status: ('A' for Active; 'I' for Inactive)
REMARK    1  A    between atoms: C_1  and  C_2
REMARK    2  A    between atoms: C_2  and  N_3
REMARK    3  A    between atoms: N_3  and  C_4
REMARK    4  A    between atoms: N_3  and  C_6
REMARK    5  A    between atoms: C_4  and  C_5
REMARK    6  A    between atoms: C_6  and  C_7
REMARK    7  A    between atoms: C_7  and  N_8
REMARK    8  A    between atoms: N_8  and  C_9
REMARK    9  A    between atoms: N_16  and  C_17
REMARK   10  A    between atoms: C_17  and  C_18
REMARK   11  A    between atoms: C_18  and  O_19
REMARK   12  A    between atoms: C_21  and  O_22
REMARK   13  A    between atoms: C_25  and  O_26
REMARK                            x       y       z     vdW  Elec       q    Type
REMARK                         _______ _______ _______ _____ _____    ______ ____
ROOT
ATOM      1  C   UNL     1       4.793   5.844  17.530  0.00  0.00    +0.000 A 
ATOM      2  C   UNL     1       5.015   4.521  17.982  0.00  0.00    +0.000 A 
ATOM      3  C   UNL     1       4.313   3.931  19.056  0.00  0.00    +0.000 A 
ATOM      4  C   UNL     1       3.363   4.735  19.686  0.00  0.00    +0.000 A 
ATOM      5  C   UNL     1       3.079   5.988  19.197  0.00  0.00    +0.000 A 
ATOM      6  C   UNL     1       2.092   6.535  20.018  0.00  0.00    +0.000 A 
ATOM      7  N   UNL     1       1.737   5.698  21.002  0.00  0.00    +0.000 NA
ATOM      8  N   UNL     1       2.531   4.604  20.776  0.00  0.00    +0.000 N 
ATOM      9  C   UNL     1       1.647   7.896  19.777  0.00  0.00    +0.000 A 
ATOM     10  C   UNL     1       0.768   8.566  20.631  0.00  0.00    +0.000 A 
ATOM     11  C   UNL     1       0.409   9.887  20.377  0.00  0.00    +0.000 A 
ATOM     12  C   UNL     1       0.949  10.562  19.280  0.00  0.00    +0.000 A 
ATOM     13  C   UNL     1       1.837   9.908  18.421  0.00  0.00    +0.000 A 
ATOM     14  C   UNL     1       2.179   8.566  18.639  0.00  0.00    +0.000 A 
ATOM     15  C   UNL     1       3.059   7.817  17.653  0.00  0.00    +0.000 C 
ATOM     16  O   UNL     1       3.112   8.157  16.474  0.00  0.00    +0.000 OA
ATOM     17  C   UNL     1       3.711   6.544  18.086  0.00  0.00    +0.000 A 
ENDROOT
BRANCH   1  18
ATOM     18  N   UNL     1       5.672   6.308  16.535  0.00  0.00    +0.000 N 
ATOM     19  H   UNL     1       5.811   7.316  16.607  0.00  0.00    +0.000 HD
BRANCH  18  20
ATOM     20  C   UNL     1       6.974   5.635  16.428  0.00  0.00    +0.000 C 
BRANCH  20  21
ATOM     21  C   UNL     1       6.934   4.459  15.428  0.00  0.00    +0.000 C 
BRANCH  21  22
ATOM     22  N   UNL     1       6.504   4.768  14.042  0.00  0.00    +0.000 NA
BRANCH  22  24
ATOM     23  C   UNL     1       8.456   5.917  12.936  0.00  0.00    +0.000 C 
ATOM     24  C   UNL     1       7.613   4.653  13.083  0.00  0.00    +0.000 C 
ENDBRANCH  22  24
BRANCH  22  25
ATOM     25  C   UNL     1       5.308   3.984  13.684  0.00  0.00    +0.000 C 
ATOM     26  C   UNL     1       5.282   3.390  12.277  0.00  0.00    +0.000 C 
ENDBRANCH  22  25
ENDBRANCH  21  22
ENDBRANCH  20  21
ENDBRANCH  18  20
ENDBRANCH   1  18
BRANCH  10  27
ATOM     27  O   UNL     1       0.230   7.976  21.742  0.00  0.00    +0.000 OA
ATOM     28  H   UNL     1       0.793   8.226  22.509  0.00  0.00    +0.000 HD
ENDBRANCH  10  27
BRANCH  13  29
ATOM     29  O   UNL     1       2.402  10.615  17.398  0.00  0.00    +0.000 OA
ATOM     30  H   UNL     1       3.365  10.653  17.511  0.00  0.00    +0.000 HD
ENDBRANCH  13  29
BRANCH   8  31
ATOM     31  C   UNL     1       2.481   3.481  21.696  0.00  0.00    +0.000 C 
BRANCH  31  32
ATOM     32  C   UNL     1       1.210   2.659  21.541  0.00  0.00    +0.000 C 
BRANCH  32  33
ATOM     33  O   UNL     1       0.417   3.118  20.448  0.00  0.00    +0.000 OA
ATOM     34  H   UNL     1      -0.383   3.533  20.819  0.00  0.00    +0.000 HD
ENDBRANCH  32  33
ENDBRANCH  31  32
ENDBRANCH   8  31
TORSDOF 11
ENDMDL
MODEL 5
REMARK VINA RESULT:      -6.5      1.317      2.157
REMARK  Name = 
REMARK  13 active torsions:
REMARK  status: ('A' for Active; 'I' for Inactive)
REMARK    1  A    between atoms: C_1  and  C_2
REMARK    2  A    between atoms: C_2  and  N_3
REMARK    3  A    between atoms: N_3  and  C_4
REMARK    4  A    between atoms: N_3  and  C_6
REMARK    5  A    between atoms: C_4  and  C_5
REMARK    6  A    between atoms: C_6  and  C_7
REMARK    7  A    between atoms: C_7  and  N_8
REMARK    8  A    between atoms: N_8  and  C_9
REMARK    9  A    between atoms: N_16  and  C_17
REMARK   10  A    between atoms: C_17  and  C_18
REMARK   11  A    between atoms: C_18  and  O_19
REMARK   12  A    between atoms: C_21  and  O_22
REMARK   13  A    between atoms: C_25  and  O_26
REMARK                            x       y       z     vdW  Elec       q    Type
REMARK                         _______ _______ _______ _____ _____    ______ ____
ROOT
ATOM      1  C   UNL     1       3.903   6.693  17.535  0.00  0.00    +0.000 A 
ATOM      2  C   UNL     1       4.156   5.324  17.795  0.00  0.00    +0.000 A 
ATOM      3  C   UNL     1       3.582   4.611  18.871  0.00  0.00    +0.000 A 
ATOM      4  C   UNL     1       2.732   5.337  19.707  0.00  0.00    +0.000 A 
ATOM      5  C   UNL     1       2.412   6.641  19.409  0.00  0.00    +0.000 A 
ATOM      6  C   UNL     1       1.546   7.089  20.406  0.00  0.00    +0.000 A 
ATOM      7  N   UNL     1       1.300   6.141  21.321  0.00  0.00    +0.000 NA
ATOM      8  N   UNL     1       2.040   5.079  20.869  0.00  0.00    +0.000 N 
ATOM      9  C   UNL     1       1.099   8.470  20.387  0.00  0.00    +0.000 A 
ATOM     10  C   UNL     1       0.346   9.036  21.418  0.00  0.00    +0.000 A 
ATOM     11  C   UNL     1      -0.017  10.379  21.370  0.00  0.00    +0.000 A 
ATOM     12  C   UNL     1       0.394  11.179  20.302  0.00  0.00    +0.000 A 
ATOM     13  C   UNL     1       1.156  10.630  19.267  0.00  0.00    +0.000 A 
ATOM     14  C   UNL     1       1.498   9.271  19.279  0.00  0.00    +0.000 A 
ATOM     15  C   UNL     1       2.235   8.643  18.108  0.00  0.00    +0.000 C 
ATOM     16  O   UNL     1       2.147   9.121  16.981  0.00  0.00    +0.000 OA
ATOM     17  C   UNL     1       2.912   7.324  18.302  0.00  0.00    +0.000 A 
ENDROOT
BRANCH   1  18
ATOM     18  N   UNL     1       4.661   7.270  16.500  0.00  0.00    +0.000 N 
ATOM     19  H   UNL     1       5.347   7.929  16.868  0.00  0.00    +0.000 HD
BRANCH  18  20
ATOM     20  C   UNL     1       5.315   6.350  15.558  0.00  0.00    +0.000 C 
BRANCH  20  21
ATOM     21  C   UNL     1       6.817   6.180  15.871  0.00  0.00    +0.000 C 
BRANCH  21  22
ATOM     22  N   UNL     1       7.312   4.796  16.072  0.00  0.00    +0.000 NA
BRANCH  22  24
ATOM     23  C   UNL     1       7.672   5.760  18.373  0.00  0.00    +0.000 C 
ATOM     24  C   UNL     1       7.618   4.520  17.483  0.00  0.00    +0.000 C 
ENDBRANCH  22  24
BRANCH  22  25
ATOM     25  C   UNL     1       6.397   3.822  15.448  0.00  0.00    +0.000 C 
ATOM     26  C   UNL     1       6.355   3.814  13.921  0.00  0.00    +0.000 C 
ENDBRANCH  22  25
ENDBRANCH  21  22
ENDBRANCH  20  21
ENDBRANCH  18  20
ENDBRANCH   1  18
BRANCH  10  27
ATOM     27  O   UNL     1      -0.060   8.318  22.510  0.00  0.00    +0.000 OA
ATOM     28  H   UNL     1       0.747   8.056  23.006  0.00  0.00    +0.000 HD
ENDBRANCH  10  27
BRANCH  13  29
ATOM     29  O   UNL     1       1.603  11.453  18.273  0.00  0.00    +0.000 OA
ATOM     30  H   UNL     1       1.907  10.927  17.516  0.00  0.00    +0.000 HD
ENDBRANCH  13  29
BRANCH   8  31
ATOM     31  C   UNL     1       2.084   3.854  21.648  0.00  0.00    +0.000 C 
BRANCH  31  32
ATOM     32  C   UNL     1       1.125   2.796  21.121  0.00  0.00    +0.000 C 
BRANCH  32  33
ATOM     33  O   UNL     1       1.712   2.034  20.068  0.00  0.00    +0.000 OA
ATOM     34  H   UNL     1       2.099   1.233  20.465  0.00  0.00    +0.000 HD
ENDBRANCH  32  33
ENDBRANCH  31  32
ENDBRANCH   8  31
TORSDOF 11
ENDMDL
MODEL 6
REMARK VINA RESULT:      -6.4      2.050      4.920
REMARK  Name = 
REMARK  13 active torsions:
REMARK  status: ('A' for Active; 'I' for Inactive)
REMARK    1  A    between atoms: C_1  and  C_2
REMARK    2  A    between atoms: C_2  and  N_3
REMARK    3  A    between atoms: N_3  and  C_4
REMARK    4  A    between atoms: N_3  and  C_6
REMARK    5  A    between atoms: C_4  and  C_5
REMARK    6  A    between atoms: C_6  and  C_7
REMARK    7  A    between atoms: C_7  and  N_8
REMARK    8  A    between atoms: N_8  and  C_9
REMARK    9  A    between atoms: N_16  and  C_17
REMARK   10  A    between atoms: C_17  and  C_18
REMARK   11  A    between atoms: C_18  and  O_19
REMARK   12  A    between atoms: C_21  and  O_22
REMARK   13  A    between atoms: C_25  and  O_26
REMARK                            x       y       z     vdW  Elec       q    Type
REMARK                         _______ _______ _______ _____ _____    ______ ____
ROOT
ATOM      1  C   UNL     1       5.120   5.035  15.833  0.00  0.00    +0.000 A 
ATOM      2  C   UNL     1       5.329   6.394  15.497  0.00  0.00    +0.000 A 
ATOM      3  C   UNL     1       4.706   7.472  16.163  0.00  0.00    +0.000 A 
ATOM      4  C   UNL     1       3.834   7.134  17.199  0.00  0.00    +0.000 A 
ATOM      5  C   UNL     1       3.695   5.823  17.590  0.00  0.00    +0.000 A 
ATOM      6  C   UNL     1       2.779   5.804  18.641  0.00  0.00    +0.000 A 
ATOM      7  N   UNL     1       2.328   7.031  18.937  0.00  0.00    +0.000 NA
ATOM      8  N   UNL     1       2.989   7.826  18.039  0.00  0.00    +0.000 N 
ATOM      9  C   UNL     1       2.380   4.528  19.208  0.00  0.00    +0.000 A 
ATOM     10  C   UNL     1       1.370   4.408  20.165  0.00  0.00    +0.000 A 
ATOM     11  C   UNL     1       0.996   3.155  20.642  0.00  0.00    +0.000 A 
ATOM     12  C   UNL     1       1.610   2.003  20.144  0.00  0.00    +0.000 A 
ATOM     13  C   UNL     1       2.616   2.106  19.180  0.00  0.00    +0.000 A 
ATOM     14  C   UNL     1       3.033   3.362  18.717  0.00  0.00    +0.000 A 
ATOM     15  C   UNL     1       4.196   3.488  17.748  0.00  0.00    +0.000 C 
ATOM     16  O   UNL     1       5.071   2.628  17.702  0.00  0.00    +0.000 OA
ATOM     17  C   UNL     1       4.371   4.763  16.988  0.00  0.00    +0.000 A 
ENDROOT
BRANCH   1  18
ATOM     18  N   UNL     1       5.722   4.093  14.980  0.00  0.00    +0.000 N 
ATOM     19  H   UNL     1       5.047   3.393  14.669  0.00  0.00    +0.000 HD
BRANCH  18  20
ATOM     20  C   UNL     1       6.461   4.616  13.822  0.00  0.00    +0.000 C 
BRANCH  20  21
ATOM     21  C   UNL     1       6.630   3.551  12.718  0.00  0.00    +0.000 C 
BRANCH  21  22
ATOM     22  N   UNL     1       5.396   2.887  12.227  0.00  0.00    +0.000 NA
BRANCH  22  24
ATOM     23  C   UNL     1       3.430   3.180  10.677  0.00  0.00    +0.000 C 
ATOM     24  C   UNL     1       4.490   3.834  11.561  0.00  0.00    +0.000 C 
ENDBRANCH  22  24
BRANCH  22  25
ATOM     25  C   UNL     1       5.732   1.698  11.423  0.00  0.00    +0.000 C 
ATOM     26  C   UNL     1       7.177   1.594  10.938  0.00  0.00    +0.000 C 
ENDBRANCH  22  25
ENDBRANCH  21  22
ENDBRANCH  20  21
ENDBRANCH  18  20
ENDBRANCH   1  18
BRANCH  10  27
ATOM     27  O   UNL     1       0.703   5.492  20.669  0.00  0.00    +0.000 OA
ATOM     28  H   UNL     1      -0.236   5.228  20.791  0.00  0.00    +0.000 HD
ENDBRANCH  10  27
BRANCH  13  29
ATOM     29  O   UNL     1       3.149   0.959  18.662  0.00  0.00    +0.000 OA
ATOM     30  H   UNL     1       2.466   0.461  18.183  0.00  0.00    +0.000 HD
ENDBRANCH  13  29
BRANCH   8  31
ATOM     31  C   UNL     1       2.710   9.250  18.002  0.00  0.00    +0.000 C 
BRANCH  31  32
ATOM     32  C   UNL     1       1.218   9.550  18.012  0.00  0.00    +0.000 C 
BRANCH  32  33
ATOM     33  O   UNL     1       0.965  10.953  18.060  0.00  0.00    +0.000 OA
ATOM     34  H   UNL     1       1.804  11.410  17.867  0.00  0.00    +0.000 HD
ENDBRANCH  32  33
ENDBRANCH  31  32
ENDBRANCH   8  31
TORSDOF 11
ENDMDL
MODEL 7
REMARK VINA RESULT:      -6.4      2.119      4.784
REMARK  Name = 
REMARK  13 active torsions:
REMARK  status: ('A' for Active; 'I' for Inactive)
REMARK    1  A    between atoms: C_1  and  C_2
REMARK    2  A    between atoms: C_2  and  N_3
REMARK    3  A    between atoms: N_3  and  C_4
REMARK    4  A    between atoms: N_3  and  C_6
REMARK    5  A    between atoms: C_4  and  C_5
REMARK    6  A    between atoms: C_6  and  C_7
REMARK    7  A    between atoms: C_7  and  N_8
REMARK    8  A    between atoms: N_8  and  C_9
REMARK    9  A    between atoms: N_16  and  C_17
REMARK   10  A    between atoms: C_17  and  C_18
REMARK   11  A    between atoms: C_18  and  O_19
REMARK   12  A    between atoms: C_21  and  O_22
REMARK   13  A    between atoms: C_25  and  O_26
REMARK                            x       y       z     vdW  Elec       q    Type
REMARK                         _______ _______ _______ _____ _____    ______ ____
ROOT
ATOM      1  C   UNL     1       5.603   5.417  16.259  0.00  0.00    +0.000 A 
ATOM      2  C   UNL     1       5.368   6.668  15.638  0.00  0.00    +0.000 A 
ATOM      3  C   UNL     1       4.404   7.598  16.087  0.00  0.00    +0.000 A 
ATOM      4  C   UNL     1       3.656   7.219  17.203  0.00  0.00    +0.000 A 
ATOM      5  C   UNL     1       3.940   6.047  17.864  0.00  0.00    +0.000 A 
ATOM      6  C   UNL     1       3.045   5.950  18.929  0.00  0.00    +0.000 A 
ATOM      7  N   UNL     1       2.208   6.996  18.979  0.00  0.00    +0.000 NA
ATOM      8  N   UNL     1       2.604   7.756  17.910  0.00  0.00    +0.000 N 
ATOM      9  C   UNL     1       3.067   4.763  19.765  0.00  0.00    +0.000 A 
ATOM     10  C   UNL     1       2.119   4.523  20.763  0.00  0.00    +0.000 A 
ATOM     11  C   UNL     1       2.159   3.346  21.504  0.00  0.00    +0.000 A 
ATOM     12  C   UNL     1       3.133   2.381  21.236  0.00  0.00    +0.000 A 
ATOM     13  C   UNL     1       4.082   2.602  20.235  0.00  0.00    +0.000 A 
ATOM     14  C   UNL     1       4.081   3.798  19.505  0.00  0.00    +0.000 A 
ATOM     15  C   UNL     1       5.171   4.092  18.488  0.00  0.00    +0.000 C 
ATOM     16  O   UNL     1       6.281   3.575  18.590  0.00  0.00    +0.000 OA
ATOM     17  C   UNL     1       4.945   5.165  17.472  0.00  0.00    +0.000 A 
ENDROOT
BRANCH   1  18
ATOM     18  N   UNL     1       6.509   4.567  15.600  0.00  0.00    +0.000 N 
ATOM     19  H   UNL     1       7.195   4.184  16.251  0.00  0.00    +0.000 HD
BRANCH  18  20
ATOM     20  C   UNL     1       5.938   3.483  14.788  0.00  0.00    +0.000 C 
BRANCH  20  21
ATOM     21  C   UNL     1       6.089   3.757  13.276  0.00  0.00    +0.000 C 
BRANCH  21  22
ATOM     22  N   UNL     1       5.199   2.999  12.362  0.00  0.00    +0.000 NA
BRANCH  22  24
ATOM     23  C   UNL     1       3.391   3.202  10.617  0.00  0.00    +0.000 C 
ATOM     24  C   UNL     1       4.500   3.882  11.416  0.00  0.00    +0.000 C 
ENDBRANCH  22  24
BRANCH  22  25
ATOM     25  C   UNL     1       5.932   1.888  11.728  0.00  0.00    +0.000 C 
ATOM     26  C   UNL     1       7.296   2.229  11.130  0.00  0.00    +0.000 C 
ENDBRANCH  22  25
ENDBRANCH  21  22
ENDBRANCH  20  21
ENDBRANCH  18  20
ENDBRANCH   1  18
BRANCH  10  27
ATOM     27  O   UNL     1       1.118   5.410  21.053  0.00  0.00    +0.000 OA
ATOM     28  H   UNL     1       0.285   4.894  21.140  0.00  0.00    +0.000 HD
ENDBRANCH  10  27
BRANCH  13  29
ATOM     29  O   UNL     1       4.978   1.611  19.949  0.00  0.00    +0.000 OA
ATOM     30  H   UNL     1       4.567   0.741  20.083  0.00  0.00    +0.000 HD
ENDBRANCH  13  29
BRANCH   8  31
ATOM     31  C   UNL     1       1.875   8.970  17.587  0.00  0.00    +0.000 C 
BRANCH  31  32
ATOM     32  C   UNL     1       1.690   9.876  18.796  0.00  0.00    +0.000 C 
BRANCH  32  33
ATOM     33  O   UNL     1       0.612   9.437  19.620  0.00  0.00    +0.000 OA
ATOM     34  H   UNL     1       0.424  10.147  20.262  0.00  0.00    +0.000 HD
ENDBRANCH  32  33
ENDBRANCH  31  32
ENDBRANCH   8  31
TORSDOF 11
ENDMDL
MODEL 8
REMARK VINA RESULT:      -6.4      2.123      3.161
REMARK  Name = 
REMARK  13 active torsions:
REMARK  status: ('A' for Active; 'I' for Inactive)
REMARK    1  A    between atoms: C_1  and  C_2
REMARK    2  A    between atoms: C_2  and  N_3
REMARK    3  A    between atoms: N_3  and  C_4
REMARK    4  A    between atoms: N_3  and  C_6
REMARK    5  A    between atoms: C_4  and  C_5
REMARK    6  A    between atoms: C_6  and  C_7
REMARK    7  A    between atoms: C_7  and  N_8
REMARK    8  A    between atoms: N_8  and  C_9
REMARK    9  A    between atoms: N_16  and  C_17
REMARK   10  A    between atoms: C_17  and  C_18
REMARK   11  A    between atoms: C_18  and  O_19
REMARK   12  A    between atoms: C_21  and  O_22
REMARK   13  A    between atoms: C_25  and  O_26
REMARK                            x       y       z     vdW  Elec       q    Type
REMARK                         _______ _______ _______ _____ _____    ______ ____
ROOT
ATOM      1  C   UNL     1       3.976   6.324  17.397  0.00  0.00    +0.000 A 
ATOM      2  C   UNL     1       4.197   4.961  17.710  0.00  0.00    +0.000 A 
ATOM      3  C   UNL     1       3.644   4.315  18.838  0.00  0.00    +0.000 A 
ATOM      4  C   UNL     1       2.851   5.104  19.671  0.00  0.00    +0.000 A 
ATOM      5  C   UNL     1       2.559   6.403  19.326  0.00  0.00    +0.000 A 
ATOM      6  C   UNL     1       1.746   6.922  20.334  0.00  0.00    +0.000 A 
ATOM      7  N   UNL     1       1.508   6.024  21.300  0.00  0.00    +0.000 NA
ATOM      8  N   UNL     1       2.197   4.921  20.870  0.00  0.00    +0.000 N 
ATOM      9  C   UNL     1       1.340   8.315  20.269  0.00  0.00    +0.000 A 
ATOM     10  C   UNL     1       0.645   8.949  21.301  0.00  0.00    +0.000 A 
ATOM     11  C   UNL     1       0.321  10.300  21.205  0.00  0.00    +0.000 A 
ATOM     12  C   UNL     1       0.714  11.038  20.086  0.00  0.00    +0.000 A 
ATOM     13  C   UNL     1       1.418  10.420  19.050  0.00  0.00    +0.000 A 
ATOM     14  C   UNL     1       1.719   9.052  19.111  0.00  0.00    +0.000 A 
ATOM     15  C   UNL     1       2.390   8.349  17.943  0.00  0.00    +0.000 C 
ATOM     16  O   UNL     1       2.273   8.780  16.799  0.00  0.00    +0.000 OA
ATOM     17  C   UNL     1       3.035   7.020  18.171  0.00  0.00    +0.000 A 
ENDROOT
BRANCH   1  18
ATOM     18  N   UNL     1       4.709   6.829  16.308  0.00  0.00    +0.000 N 
ATOM     19  H   UNL     1       4.445   7.794  16.102  0.00  0.00    +0.000 HD
BRANCH  18  20
ATOM     20  C   UNL     1       6.173   6.721  16.381  0.00  0.00    +0.000 C 
BRANCH  20  21
ATOM     21  C   UNL     1       6.768   7.673  17.441  0.00  0.00    +0.000 C 
BRANCH  21  22
ATOM     22  N   UNL     1       8.009   7.231  18.122  0.00  0.00    +0.000 NA
BRANCH  22  24
ATOM     23  C   UNL     1       8.528   9.698  18.149  0.00  0.00    +0.000 C 
ATOM     24  C   UNL     1       8.675   8.337  18.826  0.00  0.00    +0.000 C 
ENDBRANCH  22  24
BRANCH  22  25
ATOM     25  C   UNL     1       7.747   6.047  18.961  0.00  0.00    +0.000 C 
ATOM     26  C   UNL     1       7.860   4.689  18.272  0.00  0.00    +0.000 C 
ENDBRANCH  22  25
ENDBRANCH  21  22
ENDBRANCH  20  21
ENDBRANCH  18  20
ENDBRANCH   1  18
BRANCH  10  27
ATOM     27  O   UNL     1       0.261   8.294  22.439  0.00  0.00    +0.000 OA
ATOM     28  H   UNL     1      -0.519   7.742  22.211  0.00  0.00    +0.000 HD
ENDBRANCH  10  27
BRANCH  13  29
ATOM     29  O   UNL     1       1.849  11.183  18.002  0.00  0.00    +0.000 OA
ATOM     30  H   UNL     1       2.814  11.114  17.914  0.00  0.00    +0.000 HD
ENDBRANCH  13  29
BRANCH   8  31
ATOM     31  C   UNL     1       2.235   3.731  21.702  0.00  0.00    +0.000 C 
BRANCH  31  32
ATOM     32  C   UNL     1       1.338   2.622  21.171  0.00  0.00    +0.000 C 
BRANCH  32  33
ATOM     33  O   UNL     1       0.294   3.139  20.348  0.00  0.00    +0.000 OA
ATOM     34  H   UNL     1      -0.281   2.393  20.099  0.00  0.00    +0.000 HD
ENDBRANCH  32  33
ENDBRANCH  31  32
ENDBRANCH   8  31
TORSDOF 11
ENDMDL
MODEL 9
REMARK VINA RESULT:      -6.3      2.024      4.868
REMARK  Name = 
REMARK  13 active torsions:
REMARK  status: ('A' for Active; 'I' for Inactive)
REMARK    1  A    between atoms: C_1  and  C_2
REMARK    2  A    between atoms: C_2  and  N_3
REMARK    3  A    between atoms: N_3  and  C_4
REMARK    4  A    between atoms: N_3  and  C_6
REMARK    5  A    between atoms: C_4  and  C_5
REMARK    6  A    between atoms: C_6  and  C_7
REMARK    7  A    between atoms: C_7  and  N_8
REMARK    8  A    between atoms: N_8  and  C_9
REMARK    9  A    between atoms: N_16  and  C_17
REMARK   10  A    between atoms: C_17  and  C_18
REMARK   11  A    between atoms: C_18  and  O_19
REMARK   12  A    between atoms: C_21  and  O_22
REMARK   13  A    between atoms: C_25  and  O_26
REMARK                            x       y       z     vdW  Elec       q    Type
REMARK                         _______ _______ _______ _____ _____    ______ ____
ROOT
ATOM      1  C   UNL     1       6.001   5.512  16.809  0.00  0.00    +0.000 A 
ATOM      2  C   UNL     1       5.842   6.761  16.161  0.00  0.00    +0.000 A 
ATOM      3  C   UNL     1       4.801   7.670  16.453  0.00  0.00    +0.000 A 
ATOM      4  C   UNL     1       3.893   7.271  17.434  0.00  0.00    +0.000 A 
ATOM      5  C   UNL     1       4.092   6.101  18.130  0.00  0.00    +0.000 A 
ATOM      6  C   UNL     1       3.040   5.982  19.039  0.00  0.00    +0.000 A 
ATOM      7  N   UNL     1       2.186   7.011  18.957  0.00  0.00    +0.000 NA
ATOM      8  N   UNL     1       2.731   7.784  17.966  0.00  0.00    +0.000 N 
ATOM      9  C   UNL     1       2.952   4.791  19.865  0.00  0.00    +0.000 A 
ATOM     10  C   UNL     1       1.863   4.529  20.700  0.00  0.00    +0.000 A 
ATOM     11  C   UNL     1       1.808   3.349  21.436  0.00  0.00    +0.000 A 
ATOM     12  C   UNL     1       2.831   2.404  21.324  0.00  0.00    +0.000 A 
ATOM     13  C   UNL     1       3.923   2.648  20.487  0.00  0.00    +0.000 A 
ATOM     14  C   UNL     1       4.014   3.848  19.768  0.00  0.00    +0.000 A 
ATOM     15  C   UNL     1       5.246   4.167  18.939  0.00  0.00    +0.000 C 
ATOM     16  O   UNL     1       6.335   3.671  19.215  0.00  0.00    +0.000 OA
ATOM     17  C   UNL     1       5.163   5.241  17.902  0.00  0.00    +0.000 A 
ENDROOT
BRANCH   1  18
ATOM     18  N   UNL     1       7.016   4.682  16.300  0.00  0.00    +0.000 N 
ATOM     19  H   UNL     1       6.892   3.717  16.608  0.00  0.00    +0.000 HD
BRANCH  18  20
ATOM     20  C   UNL     1       7.240   4.714  14.849  0.00  0.00    +0.000 C 
BRANCH  20  21
ATOM     21  C   UNL     1       6.212   3.849  14.089  0.00  0.00    +0.000 C 
BRANCH  21  22
ATOM     22  N   UNL     1       6.144   4.020  12.617  0.00  0.00    +0.000 NA
BRANCH  22  24
ATOM     23  C   UNL     1       7.572   5.706  11.403  0.00  0.00    +0.000 C 
ATOM     24  C   UNL     1       7.461   4.321  12.036  0.00  0.00    +0.000 C 
ENDBRANCH  22  24
BRANCH  22  25
ATOM     25  C   UNL     1       5.452   2.876  11.994  0.00  0.00    +0.000 C 
ATOM     26  C   UNL     1       4.155   3.192  11.250  0.00  0.00    +0.000 C 
ENDBRANCH  22  25
ENDBRANCH  21  22
ENDBRANCH  20  21
ENDBRANCH  18  20
ENDBRANCH   1  18
BRANCH  10  27
ATOM     27  O   UNL     1       0.811   5.394  20.829  0.00  0.00    +0.000 OA
ATOM     28  H   UNL     1       0.401   5.493  19.940  0.00  0.00    +0.000 HD
ENDBRANCH  10  27
BRANCH  13  29
ATOM     29  O   UNL     1       4.872   1.676  20.345  0.00  0.00    +0.000 OA
ATOM     30  H   UNL     1       4.447   0.811  20.225  0.00  0.00    +0.000 HD
ENDBRANCH  13  29
BRANCH   8  31
ATOM     31  C   UNL     1       2.039   8.986  17.534  0.00  0.00    +0.000 C 
BRANCH  31  32
ATOM     32  C   UNL     1       1.140   9.561  18.618  0.00  0.00    +0.000 C 
BRANCH  32  33
ATOM     33  O   UNL     1       0.160  10.444  18.074  0.00  0.00    +0.000 OA
ATOM     34  H   UNL     1      -0.385  10.769  18.814  0.00  0.00    +0.000 HD
ENDBRANCH  32  33
ENDBRANCH  31  32
ENDBRANCH   8  31
TORSDOF 11
ENDMDL
