MODEL 1
REMARK VINA RESULT:      -7.8      0.000      0.000
REMARK  Name = 
REMARK  5 active torsions:
REMARK  status: ('A' for Active; 'I' for Inactive)
REMARK    1  A    between atoms: C_2  and  C_12
REMARK    2  A    between atoms: N_3  and  C_4
REMARK    3  A    between atoms: C_4  and  C_5
REMARK    4  A    between atoms: C_5  and  N_6
REMARK    5  A    between atoms: C_23  and  N_24
REMARK                            x       y       z     vdW  Elec       q    Type
REMARK                         _______ _______ _______ _____ _____    ______ ____
ROOT
ATOM      1  C   UNL     1       1.840   6.171  19.910  0.00  0.00    +0.000 A 
ATOM      2  C   UNL     1       1.050   5.422  20.803  0.00  0.00    +0.000 A 
ATOM      3  C   UNL     1       1.052   4.033  20.784  0.00  0.00    +0.000 A 
ATOM      4  C   UNL     1       1.829   3.375  19.846  0.00  0.00    +0.000 A 
ATOM      5  C   UNL     1       2.635   4.106  18.960  0.00  0.00    +0.000 A 
ATOM      6  C   UNL     1       2.686   5.502  18.990  0.00  0.00    +0.000 A 
ATOM      7  C   UNL     1       3.679   6.252  18.171  0.00  0.00    +0.000 C 
ATOM      8  O   UNL     1       3.987   7.396  18.456  0.00  0.00    +0.000 OA
ATOM      9  C   UNL     1       4.448   5.645  17.071  0.00  0.00    +0.000 A 
ATOM     10  C   UNL     1       5.213   6.504  16.275  0.00  0.00    +0.000 A 
ATOM     11  C   UNL     1       5.980   6.005  15.227  0.00  0.00    +0.000 A 
ATOM     12  C   UNL     1       5.993   4.641  14.922  0.00  0.00    +0.000 A 
ATOM     13  C   UNL     1       5.240   3.783  15.734  0.00  0.00    +0.000 A 
ATOM     14  C   UNL     1       4.487   4.293  16.802  0.00  0.00    +0.000 A 
ATOM     15  S   UNL     1       3.579   3.188  17.797  0.00  0.00    +0.000 S 
ATOM     16  O   UNL     1       4.544   2.425  18.569  0.00  0.00    +0.000 OA
ATOM     17  O   UNL     1       2.622   2.537  16.929  0.00  0.00    +0.000 OA
ENDROOT
BRANCH  12  18
ATOM     18  N   UNL     1       6.728   4.221  13.835  0.00  0.00    +0.000 N 
ATOM     19  C   UNL     1       7.787   5.024  13.239  0.00  0.00    +0.000 C 
ATOM     20  C   UNL     1       7.468   5.016  11.754  0.00  0.00    +0.000 C 
ATOM     21  C   UNL     1       6.819   3.657  11.539  0.00  0.00    +0.000 C 
ATOM     22  C   UNL     1       6.041   3.405  12.829  0.00  0.00    +0.000 C 
ENDBRANCH  12  18
BRANCH   1  24
ATOM     23  O   UNL     1       1.975   8.294  20.950  0.00  0.00    +0.000 OA
ATOM     24  C   UNL     1       1.698   7.659  19.957  0.00  0.00    +0.000 C 
ATOM     25  N   UNL     1       1.345   8.280  18.754  0.00  0.00    +0.000 N 
ATOM     26  H   UNL     1       1.692   7.892  17.896  0.00  0.00    +0.000 HD
BRANCH  25  27
ATOM     27  C   UNL     1       1.170   9.706  18.760  0.00  0.00    +0.000 C 
BRANCH  27  28
ATOM     28  C   UNL     1      -0.279  10.159  19.039  0.00  0.00    +0.000 C 
BRANCH  28  29
ATOM     29  N   UNL     1      -0.846  10.923  17.913  0.00  0.00    +0.000 NA
ATOM     30  C   UNL     1      -1.554  12.149  18.362  0.00  0.00    +0.000 C 
ATOM     31  C   UNL     1      -2.941  11.906  18.989  0.00  0.00    +0.000 C 
ATOM     32  O   UNL     1      -3.782  11.106  18.148  0.00  0.00    +0.000 OA
ATOM     33  C   UNL     1      -3.137   9.875  17.809  0.00  0.00    +0.000 C 
ATOM     34  C   UNL     1      -1.799  10.137  17.100  0.00  0.00    +0.000 C 
ENDBRANCH  28  29
ENDBRANCH  27  28
ENDBRANCH  25  27
ENDBRANCH   1  24
TORSDOF 5
ENDMDL
MODEL 2
REMARK VINA RESULT:      -7.7      4.213      7.209
REMARK  Name = 
REMARK  5 active torsions:
REMARK  status: ('A' for Active; 'I' for Inactive)
REMARK    1  A    between atoms: C_2  and  C_12
REMARK    2  A    between atoms: N_3  and  C_4
REMARK    3  A    between atoms: C_4  and  C_5
REMARK    4  A    between atoms: C_5  and  N_6
REMARK    5  A    between atoms: C_23  and  N_24
REMARK                            x       y       z     vdW  Elec       q    Type
REMARK                         _______ _______ _______ _____ _____    ______ ____
ROOT
ATOM      1  C   UNL     1      -0.389  12.791  20.742  0.00  0.00    +0.000 A 
ATOM      2  C   UNL     1      -1.083  13.194  21.899  0.00  0.00    +0.000 A 
ATOM      3  C   UNL     1      -1.283  12.327  22.965  0.00  0.00    +0.000 A 
ATOM      4  C   UNL     1      -0.812  11.028  22.872  0.00  0.00    +0.000 A 
ATOM      5  C   UNL     1      -0.104  10.615  21.733  0.00  0.00    +0.000 A 
ATOM      6  C   UNL     1       0.151  11.483  20.668  0.00  0.00    +0.000 A 
ATOM      7  C   UNL     1       1.056  11.086  19.554  0.00  0.00    +0.000 C 
ATOM      8  O   UNL     1       1.576  11.926  18.841  0.00  0.00    +0.000 OA
ATOM      9  C   UNL     1       1.495   9.699  19.319  0.00  0.00    +0.000 A 
ATOM     10  C   UNL     1       2.200   9.442  18.138  0.00  0.00    +0.000 A 
ATOM     11  C   UNL     1       2.661   8.162  17.853  0.00  0.00    +0.000 A 
ATOM     12  C   UNL     1       2.418   7.092  18.719  0.00  0.00    +0.000 A 
ATOM     13  C   UNL     1       1.729   7.358  19.908  0.00  0.00    +0.000 A 
ATOM     14  C   UNL     1       1.285   8.657  20.198  0.00  0.00    +0.000 A 
ATOM     15  S   UNL     1       0.447   8.947  21.697  0.00  0.00    +0.000 S 
ATOM     16  O   UNL     1       1.428   8.820  22.760  0.00  0.00    +0.000 OA
ATOM     17  O   UNL     1      -0.748   8.132  21.670  0.00  0.00    +0.000 OA
ENDROOT
BRANCH  12  18
ATOM     18  N   UNL     1       2.853   5.838  18.346  0.00  0.00    +0.000 N 
ATOM     19  C   UNL     1       2.784   4.683  19.229  0.00  0.00    +0.000 C 
ATOM     20  C   UNL     1       4.178   4.082  19.163  0.00  0.00    +0.000 C 
ATOM     21  C   UNL     1       4.633   4.400  17.747  0.00  0.00    +0.000 C 
ATOM     22  C   UNL     1       4.013   5.764  17.452  0.00  0.00    +0.000 C 
ENDBRANCH  12  18
BRANCH   1  24
ATOM     23  O   UNL     1      -1.053  13.724  18.670  0.00  0.00    +0.000 OA
ATOM     24  C   UNL     1      -0.304  13.776  19.620  0.00  0.00    +0.000 C 
ATOM     25  N   UNL     1       0.605  14.825  19.791  0.00  0.00    +0.000 N 
ATOM     26  H   UNL     1       0.746  15.189  20.716  0.00  0.00    +0.000 HD
BRANCH  25  27
ATOM     27  C   UNL     1       0.739  15.779  18.725  0.00  0.00    +0.000 C 
BRANCH  27  28
ATOM     28  C   UNL     1       2.196  16.204  18.444  0.00  0.00    +0.000 C 
BRANCH  28  29
ATOM     29  N   UNL     1       3.143  15.600  19.398  0.00  0.00    +0.000 NA
ATOM     30  C   UNL     1       4.096  16.594  19.956  0.00  0.00    +0.000 C 
ATOM     31  C   UNL     1       5.224  17.022  18.997  0.00  0.00    +0.000 C 
ATOM     32  O   UNL     1       5.920  15.897  18.445  0.00  0.00    +0.000 OA
ATOM     33  C   UNL     1       5.007  14.996  17.810  0.00  0.00    +0.000 C 
ATOM     34  C   UNL     1       3.944  14.506  18.806  0.00  0.00    +0.000 C 
ENDBRANCH  28  29
ENDBRANCH  27  28
ENDBRANCH  25  27
ENDBRANCH   1  24
TORSDOF 5
ENDMDL
MODEL 3
REMARK VINA RESULT:      -7.5      4.142      7.223
REMARK  Name = 
REMARK  5 active torsions:
REMARK  status: ('A' for Active; 'I' for Inactive)
REMARK    1  A    between atoms: C_2  and  C_12
REMARK    2  A    between atoms: N_3  and  C_4
REMARK    3  A    between atoms: C_4  and  C_5
REMARK    4  A    between atoms: C_5  and  N_6
REMARK    5  A    between atoms: C_23  and  N_24
REMARK                            x       y       z     vdW  Elec       q    Type
REMARK                         _______ _______ _______ _____ _____    ______ ____
ROOT
ATOM      1  C   UNL     1      -1.397  12.621  21.262  0.00  0.00    +0.000 A 
ATOM      2  C   UNL     1      -2.042  12.780  22.504  0.00  0.00    +0.000 A 
ATOM      3  C   UNL     1      -1.928  11.827  23.508  0.00  0.00    +0.000 A 
ATOM      4  C   UNL     1      -1.186  10.684  23.269  0.00  0.00    +0.000 A 
ATOM      5  C   UNL     1      -0.523  10.518  22.043  0.00  0.00    +0.000 A 
ATOM      6  C   UNL     1      -0.585  11.483  21.034  0.00  0.00    +0.000 A 
ATOM      7  C   UNL     1       0.267  11.376  19.818  0.00  0.00    +0.000 C 
ATOM      8  O   UNL     1       0.505  12.356  19.133  0.00  0.00    +0.000 OA
ATOM      9  C   UNL     1       0.983  10.148  19.432  0.00  0.00    +0.000 A 
ATOM     10  C   UNL     1       1.602  10.135  18.177  0.00  0.00    +0.000 A 
ATOM     11  C   UNL     1       2.312   9.017  17.749  0.00  0.00    +0.000 A 
ATOM     12  C   UNL     1       2.409   7.870  18.542  0.00  0.00    +0.000 A 
ATOM     13  C   UNL     1       1.804   7.896  19.805  0.00  0.00    +0.000 A 
ATOM     14  C   UNL     1       1.109   9.035  20.237  0.00  0.00    +0.000 A 
ATOM     15  S   UNL     1       0.386   9.031  21.823  0.00  0.00    +0.000 S 
ATOM     16  O   UNL     1       1.475   9.074  22.782  0.00  0.00    +0.000 OA
ATOM     17  O   UNL     1      -0.588   7.961  21.832  0.00  0.00    +0.000 OA
ENDROOT
BRANCH  12  18
ATOM     18  N   UNL     1       3.077   6.778  18.032  0.00  0.00    +0.000 N 
ATOM     19  C   UNL     1       3.097   5.483  18.695  0.00  0.00    +0.000 C 
ATOM     20  C   UNL     1       4.568   5.102  18.722  0.00  0.00    +0.000 C 
ATOM     21  C   UNL     1       5.120   5.734  17.454  0.00  0.00    +0.000 C 
ATOM     22  C   UNL     1       4.326   7.030  17.304  0.00  0.00    +0.000 C 
ENDBRANCH  12  18
BRANCH   1  24
ATOM     23  O   UNL     1      -2.437  13.477  19.314  0.00  0.00    +0.000 OA
ATOM     24  C   UNL     1      -1.656  13.663  20.222  0.00  0.00    +0.000 C 
ATOM     25  N   UNL     1      -1.039  14.901  20.426  0.00  0.00    +0.000 N 
ATOM     26  H   UNL     1      -0.926  15.230  21.368  0.00  0.00    +0.000 HD
BRANCH  25  27
ATOM     27  C   UNL     1      -1.237  15.923  19.436  0.00  0.00    +0.000 C 
BRANCH  27  28
ATOM     28  C   UNL     1      -0.057  16.084  18.455  0.00  0.00    +0.000 C 
BRANCH  28  29
ATOM     29  N   UNL     1       0.842  17.185  18.846  0.00  0.00    +0.000 NA
ATOM     30  C   UNL     1       0.635  18.404  18.023  0.00  0.00    +0.000 C 
ATOM     31  C   UNL     1       1.221  18.335  16.599  0.00  0.00    +0.000 C 
ATOM     32  O   UNL     1       2.600  17.946  16.602  0.00  0.00    +0.000 OA
ATOM     33  C   UNL     1       2.779  16.711  17.302  0.00  0.00    +0.000 C 
ATOM     34  C   UNL     1       2.274  16.827  18.749  0.00  0.00    +0.000 C 
ENDBRANCH  28  29
ENDBRANCH  27  28
ENDBRANCH  25  27
ENDBRANCH   1  24
TORSDOF 5
ENDMDL
MODEL 4
REMARK VINA RESULT:      -7.5      1.511      1.840
REMARK  Name = 
REMARK  5 active torsions:
REMARK  status: ('A' for Active; 'I' for Inactive)
REMARK    1  A    between atoms: C_2  and  C_12
REMARK    2  A    between atoms: N_3  and  C_4
REMARK    3  A    between atoms: C_4  and  C_5
REMARK    4  A    between atoms: C_5  and  N_6
REMARK    5  A    between atoms: C_23  and  N_24
REMARK                            x       y       z     vdW  Elec       q    Type
REMARK                         _______ _______ _______ _____ _____    ______ ____
ROOT
ATOM      1  C   UNL     1       1.858   5.921  20.092  0.00  0.00    +0.000 A 
ATOM      2  C   UNL     1       1.008   5.147  20.905  0.00  0.00    +0.000 A 
ATOM      3  C   UNL     1       0.928   3.767  20.765  0.00  0.00    +0.000 A 
ATOM      4  C   UNL     1       1.683   3.146  19.785  0.00  0.00    +0.000 A 
ATOM      5  C   UNL     1       2.549   3.901  18.977  0.00  0.00    +0.000 A 
ATOM      6  C   UNL     1       2.680   5.284  19.130  0.00  0.00    +0.000 A 
ATOM      7  C   UNL     1       3.731   6.040  18.393  0.00  0.00    +0.000 C 
ATOM      8  O   UNL     1       4.101   7.135  18.781  0.00  0.00    +0.000 OA
ATOM      9  C   UNL     1       4.485   5.485  17.255  0.00  0.00    +0.000 A 
ATOM     10  C   UNL     1       5.314   6.362  16.548  0.00  0.00    +0.000 A 
ATOM     11  C   UNL     1       6.071   5.909  15.472  0.00  0.00    +0.000 A 
ATOM     12  C   UNL     1       6.009   4.578  15.050  0.00  0.00    +0.000 A 
ATOM     13  C   UNL     1       5.192   3.700  15.773  0.00  0.00    +0.000 A 
ATOM     14  C   UNL     1       4.449   4.161  16.870  0.00  0.00    +0.000 A 
ATOM     15  S   UNL     1       3.459   3.031  17.753  0.00  0.00    +0.000 S 
ATOM     16  O   UNL     1       4.363   2.149  18.469  0.00  0.00    +0.000 OA
ATOM     17  O   UNL     1       2.482   2.517  16.817  0.00  0.00    +0.000 OA
ENDROOT
BRANCH  12  18
ATOM     18  N   UNL     1       6.740   4.211  13.940  0.00  0.00    +0.000 N 
ATOM     19  C   UNL     1       7.790   5.044  13.374  0.00  0.00    +0.000 C 
ATOM     20  C   UNL     1       7.462   5.099  11.892  0.00  0.00    +0.000 C 
ATOM     21  C   UNL     1       6.819   3.747  11.622  0.00  0.00    +0.000 C 
ATOM     22  C   UNL     1       6.050   3.435  12.904  0.00  0.00    +0.000 C 
ENDBRANCH  12  18
BRANCH   1  24
ATOM     23  O   UNL     1       1.772   8.157  19.318  0.00  0.00    +0.000 OA
ATOM     24  C   UNL     1       1.803   7.405  20.266  0.00  0.00    +0.000 C 
ATOM     25  N   UNL     1       1.666   7.864  21.581  0.00  0.00    +0.000 N 
ATOM     26  H   UNL     1       1.121   7.318  22.223  0.00  0.00    +0.000 HD
BRANCH  25  27
ATOM     27  C   UNL     1       1.637   9.283  21.798  0.00  0.00    +0.000 C 
BRANCH  27  28
ATOM     28  C   UNL     1       0.222   9.897  21.749  0.00  0.00    +0.000 C 
BRANCH  28  29
ATOM     29  N   UNL     1       0.259  11.367  21.646  0.00  0.00    +0.000 NA
ATOM     30  C   UNL     1      -1.083  11.951  21.396  0.00  0.00    +0.000 C 
ATOM     31  C   UNL     1      -1.604  11.791  19.955  0.00  0.00    +0.000 C 
ATOM     32  O   UNL     1      -0.655  12.252  18.984  0.00  0.00    +0.000 OA
ATOM     33  C   UNL     1       0.607  11.602  19.159  0.00  0.00    +0.000 C 
ATOM     34  C   UNL     1       1.156  11.850  20.573  0.00  0.00    +0.000 C 
ENDBRANCH  28  29
ENDBRANCH  27  28
ENDBRANCH  25  27
ENDBRANCH   1  24
TORSDOF 5
ENDMDL
MODEL 5
REMARK VINA RESULT:      -7.5      1.154      1.433
REMARK  Name = 
REMARK  5 active torsions:
REMARK  status: ('A' for Active; 'I' for Inactive)
REMARK    1  A    between atoms: C_2  and  C_12
REMARK    2  A    between atoms: N_3  and  C_4
REMARK    3  A    between atoms: C_4  and  C_5
REMARK    4  A    between atoms: C_5  and  N_6
REMARK    5  A    between atoms: C_23  and  N_24
REMARK                            x       y       z     vdW  Elec       q    Type
REMARK                         _______ _______ _______ _____ _____    ______ ____
ROOT
ATOM      1  C   UNL     1       1.876   6.285  19.893  0.00  0.00    +0.000 A 
ATOM      2  C   UNL     1       1.086   5.566  20.811  0.00  0.00    +0.000 A 
ATOM      3  C   UNL     1       1.070   4.177  20.822  0.00  0.00    +0.000 A 
ATOM      4  C   UNL     1       1.827   3.488  19.891  0.00  0.00    +0.000 A 
ATOM      5  C   UNL     1       2.633   4.189  18.980  0.00  0.00    +0.000 A 
ATOM      6  C   UNL     1       2.701   5.585  18.979  0.00  0.00    +0.000 A 
ATOM      7  C   UNL     1       3.694   6.303  18.132  0.00  0.00    +0.000 C 
ATOM      8  O   UNL     1       4.021   7.449  18.387  0.00  0.00    +0.000 OA
ATOM      9  C   UNL     1       4.442   5.662  17.036  0.00  0.00    +0.000 A 
ATOM     10  C   UNL     1       5.209   6.494  16.213  0.00  0.00    +0.000 A 
ATOM     11  C   UNL     1       5.957   5.961  15.168  0.00  0.00    +0.000 A 
ATOM     12  C   UNL     1       5.949   4.591  14.893  0.00  0.00    +0.000 A 
ATOM     13  C   UNL     1       5.195   3.761  15.732  0.00  0.00    +0.000 A 
ATOM     14  C   UNL     1       4.461   4.304  16.797  0.00  0.00    +0.000 A 
ATOM     15  S   UNL     1       3.550   3.233  17.827  0.00  0.00    +0.000 S 
ATOM     16  O   UNL     1       4.515   2.475  18.604  0.00  0.00    +0.000 OA
ATOM     17  O   UNL     1       2.574   2.577  16.984  0.00  0.00    +0.000 OA
ENDROOT
BRANCH  12  18
ATOM     18  N   UNL     1       6.666   4.138  13.806  0.00  0.00    +0.000 N 
ATOM     19  C   UNL     1       7.769   4.886  13.220  0.00  0.00    +0.000 C 
ATOM     20  C   UNL     1       7.457   4.903  11.733  0.00  0.00    +0.000 C 
ATOM     21  C   UNL     1       6.738   3.582  11.508  0.00  0.00    +0.000 C 
ATOM     22  C   UNL     1       5.940   3.366  12.793  0.00  0.00    +0.000 C 
ENDBRANCH  12  18
BRANCH   1  24
ATOM     23  O   UNL     1       2.006   8.424  20.899  0.00  0.00    +0.000 OA
ATOM     24  C   UNL     1       1.753   7.775  19.909  0.00  0.00    +0.000 C 
ATOM     25  N   UNL     1       1.448   8.379  18.684  0.00  0.00    +0.000 N 
ATOM     26  H   UNL     1       1.817   7.971  17.845  0.00  0.00    +0.000 HD
BRANCH  25  27
ATOM     27  C   UNL     1       1.293   9.807  18.659  0.00  0.00    +0.000 C 
BRANCH  27  28
ATOM     28  C   UNL     1      -0.155  10.285  18.894  0.00  0.00    +0.000 C 
BRANCH  28  29
ATOM     29  N   UNL     1      -0.288  11.745  18.740  0.00  0.00    +0.000 NA
ATOM     30  C   UNL     1       0.670  12.494  19.593  0.00  0.00    +0.000 C 
ATOM     31  C   UNL     1       0.305  12.546  21.090  0.00  0.00    +0.000 C 
ATOM     32  O   UNL     1      -1.037  13.003  21.302  0.00  0.00    +0.000 OA
ATOM     33  C   UNL     1      -1.968  12.206  20.564  0.00  0.00    +0.000 C 
ATOM     34  C   UNL     1      -1.644  12.242  19.062  0.00  0.00    +0.000 C 
ENDBRANCH  28  29
ENDBRANCH  27  28
ENDBRANCH  25  27
ENDBRANCH   1  24
TORSDOF 5
ENDMDL
MODEL 6
REMARK VINA RESULT:      -7.4      1.218      1.533
REMARK  Name = 
REMARK  5 active torsions:
REMARK  status: ('A' for Active; 'I' for Inactive)
REMARK    1  A    between atoms: C_2  and  C_12
REMARK    2  A    between atoms: N_3  and  C_4
REMARK    3  A    between atoms: C_4  and  C_5
REMARK    4  A    between atoms: C_5  and  N_6
REMARK    5  A    between atoms: C_23  and  N_24
REMARK                            x       y       z     vdW  Elec       q    Type
REMARK                         _______ _______ _______ _____ _____    ______ ____
ROOT
ATOM      1  C   UNL     1       1.885   6.258  19.890  0.00  0.00    +0.000 A 
ATOM      2  C   UNL     1       1.089   5.531  20.795  0.00  0.00    +0.000 A 
ATOM      3  C   UNL     1       1.070   4.143  20.793  0.00  0.00    +0.000 A 
ATOM      4  C   UNL     1       1.831   3.462  19.859  0.00  0.00    +0.000 A 
ATOM      5  C   UNL     1       2.644   4.171  18.960  0.00  0.00    +0.000 A 
ATOM      6  C   UNL     1       2.715   5.566  18.973  0.00  0.00    +0.000 A 
ATOM      7  C   UNL     1       3.714   6.291  18.140  0.00  0.00    +0.000 C 
ATOM      8  O   UNL     1       4.042   7.434  18.410  0.00  0.00    +0.000 OA
ATOM      9  C   UNL     1       4.468   5.660  17.043  0.00  0.00    +0.000 A 
ATOM     10  C   UNL     1       5.242   6.499  16.233  0.00  0.00    +0.000 A 
ATOM     11  C   UNL     1       5.995   5.976  15.187  0.00  0.00    +0.000 A 
ATOM     12  C   UNL     1       5.986   4.608  14.898  0.00  0.00    +0.000 A 
ATOM     13  C   UNL     1       5.225   3.771  15.724  0.00  0.00    +0.000 A 
ATOM     14  C   UNL     1       4.485   4.305  16.789  0.00  0.00    +0.000 A 
ATOM     15  S   UNL     1       3.567   3.225  17.803  0.00  0.00    +0.000 S 
ATOM     16  O   UNL     1       4.525   2.457  18.578  0.00  0.00    +0.000 OA
ATOM     17  O   UNL     1       2.595   2.579  16.947  0.00  0.00    +0.000 OA
ENDROOT
BRANCH  12  18
ATOM     18  N   UNL     1       6.709   4.166  13.811  0.00  0.00    +0.000 N 
ATOM     19  C   UNL     1       7.796   4.932  13.220  0.00  0.00    +0.000 C 
ATOM     20  C   UNL     1       7.481   4.937  11.734  0.00  0.00    +0.000 C 
ATOM     21  C   UNL     1       6.785   3.602  11.514  0.00  0.00    +0.000 C 
ATOM     22  C   UNL     1       5.996   3.376  12.802  0.00  0.00    +0.000 C 
ENDBRANCH  12  18
BRANCH   1  24
ATOM     23  O   UNL     1       2.049   8.390  20.907  0.00  0.00    +0.000 OA
ATOM     24  C   UNL     1       1.765   7.748  19.920  0.00  0.00    +0.000 C 
ATOM     25  N   UNL     1       1.425   8.362  18.710  0.00  0.00    +0.000 N 
ATOM     26  H   UNL     1       1.768   7.960  17.857  0.00  0.00    +0.000 HD
BRANCH  25  27
ATOM     27  C   UNL     1       1.271   9.790  18.700  0.00  0.00    +0.000 C 
BRANCH  27  28
ATOM     28  C   UNL     1      -0.085  10.280  19.250  0.00  0.00    +0.000 C 
BRANCH  28  29
ATOM     29  N   UNL     1       0.081  11.228  20.367  0.00  0.00    +0.000 NA
ATOM     30  C   UNL     1      -1.218  11.642  20.956  0.00  0.00    +0.000 C 
ATOM     31  C   UNL     1      -2.018  12.658  20.117  0.00  0.00    +0.000 C 
ATOM     32  O   UNL     1      -1.230  13.800  19.757  0.00  0.00    +0.000 OA
ATOM     33  C   UNL     1      -0.029  13.400  19.089  0.00  0.00    +0.000 C 
ATOM     34  C   UNL     1       0.801  12.461  19.978  0.00  0.00    +0.000 C 
ENDBRANCH  28  29
ENDBRANCH  27  28
ENDBRANCH  25  27
ENDBRANCH   1  24
TORSDOF 5
ENDMDL
MODEL 7
REMARK VINA RESULT:      -7.4      4.381      7.137
REMARK  Name = 
REMARK  5 active torsions:
REMARK  status: ('A' for Active; 'I' for Inactive)
REMARK    1  A    between atoms: C_2  and  C_12
REMARK    2  A    between atoms: N_3  and  C_4
REMARK    3  A    between atoms: C_4  and  C_5
REMARK    4  A    between atoms: C_5  and  N_6
REMARK    5  A    between atoms: C_23  and  N_24
REMARK                            x       y       z     vdW  Elec       q    Type
REMARK                         _______ _______ _______ _____ _____    ______ ____
ROOT
ATOM      1  C   UNL     1      -0.620  12.643  20.791  0.00  0.00    +0.000 A 
ATOM      2  C   UNL     1      -1.312  13.005  21.963  0.00  0.00    +0.000 A 
ATOM      3  C   UNL     1      -1.433  12.129  23.034  0.00  0.00    +0.000 A 
ATOM      4  C   UNL     1      -0.884  10.863  22.933  0.00  0.00    +0.000 A 
ATOM      5  C   UNL     1      -0.177  10.492  21.778  0.00  0.00    +0.000 A 
ATOM      6  C   UNL     1      -0.002  11.371  20.706  0.00  0.00    +0.000 A 
ATOM      7  C   UNL     1       0.901  11.028  19.572  0.00  0.00    +0.000 C 
ATOM      8  O   UNL     1       1.351  11.897  18.846  0.00  0.00    +0.000 OA
ATOM      9  C   UNL     1       1.420   9.670  19.329  0.00  0.00    +0.000 A 
ATOM     10  C   UNL     1       2.112   9.455  18.132  0.00  0.00    +0.000 A 
ATOM     11  C   UNL     1       2.647   8.205  17.838  0.00  0.00    +0.000 A 
ATOM     12  C   UNL     1       2.491   7.124  18.711  0.00  0.00    +0.000 A 
ATOM     13  C   UNL     1       1.814   7.350  19.916  0.00  0.00    +0.000 A 
ATOM     14  C   UNL     1       1.296   8.620  20.214  0.00  0.00    +0.000 A 
ATOM     15  S   UNL     1       0.476   8.862  21.732  0.00  0.00    +0.000 S 
ATOM     16  O   UNL     1       1.487   8.799  22.772  0.00  0.00    +0.000 OA
ATOM     17  O   UNL     1      -0.666   7.973  21.733  0.00  0.00    +0.000 OA
ENDROOT
BRANCH  12  18
ATOM     18  N   UNL     1       2.995   5.899  18.331  0.00  0.00    +0.000 N 
ATOM     19  C   UNL     1       2.150   4.742  18.074  0.00  0.00    +0.000 C 
ATOM     20  C   UNL     1       2.793   3.626  18.880  0.00  0.00    +0.000 C 
ATOM     21  C   UNL     1       4.273   3.978  18.851  0.00  0.00    +0.000 C 
ATOM     22  C   UNL     1       4.296   5.504  18.880  0.00  0.00    +0.000 C 
ENDBRANCH  12  18
BRANCH   1  24
ATOM     23  O   UNL     1      -1.320  13.474  18.687  0.00  0.00    +0.000 OA
ATOM     24  C   UNL     1      -0.623  13.627  19.665  0.00  0.00    +0.000 C 
ATOM     25  N   UNL     1       0.130  14.789  19.864  0.00  0.00    +0.000 N 
ATOM     26  H   UNL     1       0.184  15.171  20.791  0.00  0.00    +0.000 HD
BRANCH  25  27
ATOM     27  C   UNL     1       0.178  15.750  18.797  0.00  0.00    +0.000 C 
BRANCH  27  28
ATOM     28  C   UNL     1       1.429  16.653  18.822  0.00  0.00    +0.000 C 
BRANCH  28  29
ATOM     29  N   UNL     1       2.483  16.163  17.916  0.00  0.00    +0.000 NA
ATOM     30  C   UNL     1       2.839  14.745  18.176  0.00  0.00    +0.000 C 
ATOM     31  C   UNL     1       3.706  14.510  19.428  0.00  0.00    +0.000 C 
ATOM     32  O   UNL     1       4.873  15.342  19.440  0.00  0.00    +0.000 OA
ATOM     33  C   UNL     1       4.517  16.720  19.301  0.00  0.00    +0.000 C 
ATOM     34  C   UNL     1       3.732  16.951  17.999  0.00  0.00    +0.000 C 
ENDBRANCH  28  29
ENDBRANCH  27  28
ENDBRANCH  25  27
ENDBRANCH   1  24
TORSDOF 5
ENDMDL
MODEL 8
REMARK VINA RESULT:      -7.4      4.594      7.542
REMARK  Name = 
REMARK  5 active torsions:
REMARK  status: ('A' for Active; 'I' for Inactive)
REMARK    1  A    between atoms: C_2  and  C_12
REMARK    2  A    between atoms: N_3  and  C_4
REMARK    3  A    between atoms: C_4  and  C_5
REMARK    4  A    between atoms: C_5  and  N_6
REMARK    5  A    between atoms: C_23  and  N_24
REMARK                            x       y       z     vdW  Elec       q    Type
REMARK                         _______ _______ _______ _____ _____    ______ ____
ROOT
ATOM      1  C   UNL     1      -0.237  12.914  20.649  0.00  0.00    +0.000 A 
ATOM      2  C   UNL     1      -0.936  13.469  21.738  0.00  0.00    +0.000 A 
ATOM      3  C   UNL     1      -1.223  12.723  22.873  0.00  0.00    +0.000 A 
ATOM      4  C   UNL     1      -0.835  11.395  22.920  0.00  0.00    +0.000 A 
ATOM      5  C   UNL     1      -0.123  10.830  21.851  0.00  0.00    +0.000 A 
ATOM      6  C   UNL     1       0.218  11.574  20.717  0.00  0.00    +0.000 A 
ATOM      7  C   UNL     1       1.126  11.014  19.678  0.00  0.00    +0.000 C 
ATOM      8  O   UNL     1       1.720  11.748  18.907  0.00  0.00    +0.000 OA
ATOM      9  C   UNL     1       1.479   9.587  19.591  0.00  0.00    +0.000 A 
ATOM     10  C   UNL     1       2.199   9.174  18.464  0.00  0.00    +0.000 A 
ATOM     11  C   UNL     1       2.584   7.845  18.317  0.00  0.00    +0.000 A 
ATOM     12  C   UNL     1       2.246   6.881  19.272  0.00  0.00    +0.000 A 
ATOM     13  C   UNL     1       1.543   7.304  20.406  0.00  0.00    +0.000 A 
ATOM     14  C   UNL     1       1.177   8.650  20.556  0.00  0.00    +0.000 A 
ATOM     15  S   UNL     1       0.318   9.136  21.992  0.00  0.00    +0.000 S 
ATOM     16  O   UNL     1       1.258   9.051  23.095  0.00  0.00    +0.000 OA
ATOM     17  O   UNL     1      -0.927   8.398  22.000  0.00  0.00    +0.000 OA
ENDROOT
BRANCH  12  18
ATOM     18  N   UNL     1       2.609   5.572  19.035  0.00  0.00    +0.000 N 
ATOM     19  C   UNL     1       2.388   4.910  17.758  0.00  0.00    +0.000 C 
ATOM     20  C   UNL     1       1.718   3.599  18.131  0.00  0.00    +0.000 C 
ATOM     21  C   UNL     1       2.317   3.269  19.490  0.00  0.00    +0.000 C 
ATOM     22  C   UNL     1       2.508   4.631  20.155  0.00  0.00    +0.000 C 
ENDBRANCH  12  18
BRANCH   1  24
ATOM     23  O   UNL     1      -0.813  13.720  18.498  0.00  0.00    +0.000 OA
ATOM     24  C   UNL     1      -0.057  13.778  19.442  0.00  0.00    +0.000 C 
ATOM     25  N   UNL     1       0.960  14.736  19.519  0.00  0.00    +0.000 N 
ATOM     26  H   UNL     1       1.145  15.166  20.408  0.00  0.00    +0.000 HD
BRANCH  25  27
ATOM     27  C   UNL     1       1.187  15.570  18.372  0.00  0.00    +0.000 C 
BRANCH  27  28
ATOM     28  C   UNL     1       2.514  16.356  18.420  0.00  0.00    +0.000 C 
BRANCH  28  29
ATOM     29  N   UNL     1       3.450  15.800  19.413  0.00  0.00    +0.000 NA
ATOM     30  C   UNL     1       4.472  16.788  19.844  0.00  0.00    +0.000 C 
ATOM     31  C   UNL     1       5.596  17.049  18.822  0.00  0.00    +0.000 C 
ATOM     32  O   UNL     1       6.213  15.833  18.377  0.00  0.00    +0.000 OA
ATOM     33  C   UNL     1       5.235  14.926  17.859  0.00  0.00    +0.000 C 
ATOM     34  C   UNL     1       4.173  14.606  18.923  0.00  0.00    +0.000 C 
ENDBRANCH  28  29
ENDBRANCH  27  28
ENDBRANCH  25  27
ENDBRANCH   1  24
TORSDOF 5
ENDMDL
MODEL 9
REMARK VINA RESULT:      -7.3      1.848      2.081
REMARK  Name = 
REMARK  5 active torsions:
REMARK  status: ('A' for Active; 'I' for Inactive)
REMARK    1  A    between atoms: C_2  and  C_12
REMARK    2  A    between atoms: N_3  and  C_4
REMARK    3  A    between atoms: C_4  and  C_5
REMARK    4  A    between atoms: C_5  and  N_6
REMARK    5  A    between atoms: C_23  and  N_24
REMARK                            x       y       z     vdW  Elec       q    Type
REMARK                         _______ _______ _______ _____ _____    ______ ____
ROOT
ATOM      1  C   UNL     1       2.040   6.470  19.960  0.00  0.00    +0.000 A 
ATOM      2  C   UNL     1       1.475   5.781  21.051  0.00  0.00    +0.000 A 
ATOM      3  C   UNL     1       1.748   4.439  21.282  0.00  0.00    +0.000 A 
ATOM      4  C   UNL     1       2.573   3.760  20.403  0.00  0.00    +0.000 A 
ATOM      5  C   UNL     1       3.159   4.436  19.321  0.00  0.00    +0.000 A 
ATOM      6  C   UNL     1       2.936   5.797  19.094  0.00  0.00    +0.000 A 
ATOM      7  C   UNL     1       3.705   6.537  18.055  0.00  0.00    +0.000 C 
ATOM      8  O   UNL     1       3.802   7.752  18.095  0.00  0.00    +0.000 OA
ATOM      9  C   UNL     1       4.502   5.874  17.008  0.00  0.00    +0.000 A 
ATOM     10  C   UNL     1       5.028   6.684  15.995  0.00  0.00    +0.000 A 
ATOM     11  C   UNL     1       5.805   6.135  14.980  0.00  0.00    +0.000 A 
ATOM     12  C   UNL     1       6.065   4.762  14.926  0.00  0.00    +0.000 A 
ATOM     13  C   UNL     1       5.552   3.959  15.953  0.00  0.00    +0.000 A 
ATOM     14  C   UNL     1       4.787   4.525  16.983  0.00  0.00    +0.000 A 
ATOM     15  S   UNL     1       4.183   3.493  18.250  0.00  0.00    +0.000 S 
ATOM     16  O   UNL     1       5.329   3.083  19.042  0.00  0.00    +0.000 OA
ATOM     17  O   UNL     1       3.316   2.523  17.617  0.00  0.00    +0.000 OA
ENDROOT
BRANCH  12  18
ATOM     18  N   UNL     1       6.793   4.277  13.861  0.00  0.00    +0.000 N 
ATOM     19  C   UNL     1       7.833   5.049  13.197  0.00  0.00    +0.000 C 
ATOM     20  C   UNL     1       7.497   4.932  11.720  0.00  0.00    +0.000 C 
ATOM     21  C   UNL     1       6.864   3.553  11.610  0.00  0.00    +0.000 C 
ATOM     22  C   UNL     1       6.105   3.383  12.924  0.00  0.00    +0.000 C 
ENDBRANCH  12  18
BRANCH   1  24
ATOM     23  O   UNL     1       1.363   8.324  18.652  0.00  0.00    +0.000 OA
ATOM     24  C   UNL     1       1.612   7.888  19.754  0.00  0.00    +0.000 C 
ATOM     25  N   UNL     1       1.401   8.641  20.914  0.00  0.00    +0.000 N 
ATOM     26  H   UNL     1       1.032   8.177  21.724  0.00  0.00    +0.000 HD
BRANCH  25  27
ATOM     27  C   UNL     1       1.016  10.016  20.762  0.00  0.00    +0.000 C 
BRANCH  27  28
ATOM     28  C   UNL     1      -0.229  10.414  21.583  0.00  0.00    +0.000 C 
BRANCH  28  29
ATOM     29  N   UNL     1      -0.113  11.772  22.143  0.00  0.00    +0.000 NA
ATOM     30  C   UNL     1      -1.296  12.152  22.956  0.00  0.00    +0.000 C 
ATOM     31  C   UNL     1      -2.554  12.517  22.144  0.00  0.00    +0.000 C 
ATOM     32  O   UNL     1      -2.281  13.505  21.142  0.00  0.00    +0.000 OA
ATOM     33  C   UNL     1      -1.212  13.083  20.289  0.00  0.00    +0.000 C 
ATOM     34  C   UNL     1       0.062  12.813  21.107  0.00  0.00    +0.000 C 
ENDBRANCH  28  29
ENDBRANCH  27  28
ENDBRANCH  25  27
ENDBRANCH   1  24
TORSDOF 5
ENDMDL
