MODEL 1
REMARK VINA RESULT:      -7.5      0.000      0.000
REMARK  Name = 
REMARK  8 active torsions:
REMARK  status: ('A' for Active; 'I' for Inactive)
REMARK    1  A    between atoms: C_1  and  C_2
REMARK    2  A    between atoms: C_7  and  C_8
REMARK    3  A    between atoms: N_10  and  C_11
REMARK    4  A    between atoms: C_11  and  C_12
REMARK    5  A    between atoms: C_11  and  C_23
REMARK    6  A    between atoms: N_14  and  C_15
REMARK    7  A    between atoms: C_23  and  C_24
REMARK    8  A    between atoms: C_23  and  C_25
REMARK                            x       y       z     vdW  Elec       q    Type
REMARK                         _______ _______ _______ _____ _____    ______ ____
ROOT
ATOM      1  C   UNL     1       2.357   3.819  19.668  0.00  0.00    +0.000 C 
ENDROOT
BRANCH   1   4
ATOM      2  C   UNL     1       3.467   3.990  17.461  0.00  0.00    +0.000 C 
ATOM      3  O   UNL     1       2.549   3.366  16.934  0.00  0.00    +0.000 OA
ATOM      4  N   UNL     1       3.526   4.175  18.815  0.00  0.00    +0.000 N 
ATOM      5  H   UNL     1       4.248   4.744  19.224  0.00  0.00    +0.000 HD
BRANCH   2  12
ATOM      6  C   UNL     1       4.435   7.026  17.148  0.00  0.00    +0.000 C 
ATOM      7  C   UNL     1       4.998   5.844  16.418  0.00  0.00    +0.000 A 
ATOM      8  C   UNL     1       6.031   6.108  15.487  0.00  0.00    +0.000 A 
ATOM      9  C   UNL     1       6.616   5.088  14.727  0.00  0.00    +0.000 A 
ATOM     10  C   UNL     1       6.193   3.788  14.894  0.00  0.00    +0.000 A 
ATOM     11  C   UNL     1       5.187   3.499  15.808  0.00  0.00    +0.000 A 
ATOM     12  C   UNL     1       4.574   4.507  16.584  0.00  0.00    +0.000 A 
ENDBRANCH   2  12
ENDBRANCH   1   4
BRANCH   1  13
ATOM     13  C   UNL     1       1.739   5.208  20.019  0.00  0.00    +0.000 C 
ATOM     14  O   UNL     1       0.561   5.201  20.407  0.00  0.00    +0.000 OA
ATOM     15  N   UNL     1       2.446   6.389  19.899  0.00  0.00    +0.000 N 
ATOM     16  H   UNL     1       3.457   6.339  19.873  0.00  0.00    +0.000 HD
BRANCH  15  17
ATOM     17  C   UNL     1       1.852   7.673  20.160  0.00  0.00    +0.000 A 
ATOM     18  C   UNL     1       1.661   8.644  19.163  0.00  0.00    +0.000 A 
ATOM     19  C   UNL     1       0.965   9.835  19.405  0.00  0.00    +0.000 A 
ATOM     20  C   UNL     1       0.460  10.097  20.672  0.00  0.00    +0.000 A 
ATOM     21 CL   UNL     1      -0.455  11.547  20.892  0.00  0.00    +0.000 Cl
ATOM     22  C   UNL     1       0.703   9.180  21.704  0.00  0.00    +0.000 A 
ATOM     23 CL   UNL     1       0.119   9.452  23.310  0.00  0.00    +0.000 Cl
ATOM     24  C   UNL     1       1.411   7.985  21.453  0.00  0.00    +0.000 A 
ENDBRANCH  15  17
ENDBRANCH   1  13
BRANCH   1  25
ATOM     25  C   UNL     1       2.726   2.596  20.538  0.00  0.00    +0.000 C 
ATOM     26  C   UNL     1       4.201   2.217  20.599  0.00  0.00    +0.000 C 
ATOM     27  C   UNL     1       2.099   2.557  21.933  0.00  0.00    +0.000 C 
ENDBRANCH   1  25
TORSDOF 5
ENDMDL
MODEL 2
REMARK VINA RESULT:      -7.3      4.503      8.216
REMARK  Name = 
REMARK  8 active torsions:
REMARK  status: ('A' for Active; 'I' for Inactive)
REMARK    1  A    between atoms: C_1  and  C_2
REMARK    2  A    between atoms: C_7  and  C_8
REMARK    3  A    between atoms: N_10  and  C_11
REMARK    4  A    between atoms: C_11  and  C_12
REMARK    5  A    between atoms: C_11  and  C_23
REMARK    6  A    between atoms: N_14  and  C_15
REMARK    7  A    between atoms: C_23  and  C_24
REMARK    8  A    between atoms: C_23  and  C_25
REMARK                            x       y       z     vdW  Elec       q    Type
REMARK                         _______ _______ _______ _____ _____    ______ ____
ROOT
ATOM      1  C   UNL     1       0.711   9.801  19.908  0.00  0.00    +0.000 C 
ENDROOT
BRANCH   1   4
ATOM      2  C   UNL     1      -1.003  11.069  18.647  0.00  0.00    +0.000 C 
ATOM      3  O   UNL     1      -0.376  12.113  18.817  0.00  0.00    +0.000 OA
ATOM      4  N   UNL     1      -0.614   9.895  19.232  0.00  0.00    +0.000 N 
ATOM      5  H   UNL     1      -1.098   9.037  19.030  0.00  0.00    +0.000 HD
BRANCH   2  12
ATOM      6  C   UNL     1      -3.848  12.263  19.505  0.00  0.00    +0.000 C 
ATOM      7  C   UNL     1      -3.524  11.619  18.190  0.00  0.00    +0.000 A 
ATOM      8  C   UNL     1      -4.587  11.506  17.262  0.00  0.00    +0.000 A 
ATOM      9  C   UNL     1      -4.412  10.900  16.012  0.00  0.00    +0.000 A 
ATOM     10  C   UNL     1      -3.174  10.411  15.661  0.00  0.00    +0.000 A 
ATOM     11  C   UNL     1      -2.110  10.515  16.550  0.00  0.00    +0.000 A 
ATOM     12  C   UNL     1      -2.257  11.116  17.820  0.00  0.00    +0.000 A 
ENDBRANCH   2  12
ENDBRANCH   1   4
BRANCH   1  13
ATOM     13  C   UNL     1       1.528   8.871  18.957  0.00  0.00    +0.000 C 
ATOM     14  O   UNL     1       1.606   9.231  17.773  0.00  0.00    +0.000 OA
ATOM     15  N   UNL     1       2.125   7.703  19.392  0.00  0.00    +0.000 N 
ATOM     16  H   UNL     1       2.295   7.595  20.384  0.00  0.00    +0.000 HD
BRANCH  15  17
ATOM     17  C   UNL     1       2.821   6.815  18.499  0.00  0.00    +0.000 A 
ATOM     18  C   UNL     1       3.988   7.185  17.810  0.00  0.00    +0.000 A 
ATOM     19  C   UNL     1       4.725   6.270  17.047  0.00  0.00    +0.000 A 
ATOM     20  C   UNL     1       4.292   4.954  16.934  0.00  0.00    +0.000 A 
ATOM     21 CL   UNL     1       5.282   3.853  16.043  0.00  0.00    +0.000 Cl
ATOM     22  C   UNL     1       3.090   4.579  17.549  0.00  0.00    +0.000 A 
ATOM     23 CL   UNL     1       2.483   2.963  17.434  0.00  0.00    +0.000 Cl
ATOM     24  C   UNL     1       2.350   5.509  18.310  0.00  0.00    +0.000 A 
ENDBRANCH  15  17
ENDBRANCH   1  13
BRANCH   1  25
ATOM     25  C   UNL     1       0.493   9.791  21.437  0.00  0.00    +0.000 C 
ATOM     26  C   UNL     1      -0.024  11.079  22.065  0.00  0.00    +0.000 C 
ATOM     27  C   UNL     1      -0.256   8.579  21.995  0.00  0.00    +0.000 C 
ENDBRANCH   1  25
TORSDOF 5
ENDMDL
MODEL 3
REMARK VINA RESULT:      -7.2      4.857      8.386
REMARK  Name = 
REMARK  8 active torsions:
REMARK  status: ('A' for Active; 'I' for Inactive)
REMARK    1  A    between atoms: C_1  and  C_2
REMARK    2  A    between atoms: C_7  and  C_8
REMARK    3  A    between atoms: N_10  and  C_11
REMARK    4  A    between atoms: C_11  and  C_12
REMARK    5  A    between atoms: C_11  and  C_23
REMARK    6  A    between atoms: N_14  and  C_15
REMARK    7  A    between atoms: C_23  and  C_24
REMARK    8  A    between atoms: C_23  and  C_25
REMARK                            x       y       z     vdW  Elec       q    Type
REMARK                         _______ _______ _______ _____ _____    ______ ____
ROOT
ATOM      1  C   UNL     1       5.882   5.905  17.430  0.00  0.00    +0.000 C 
ENDROOT
BRANCH   1   4
ATOM      2  C   UNL     1       3.728   5.196  18.427  0.00  0.00    +0.000 C 
ATOM      3  O   UNL     1       3.141   6.102  17.838  0.00  0.00    +0.000 OA
ATOM      4  N   UNL     1       5.090   5.075  18.381  0.00  0.00    +0.000 N 
ATOM      5  H   UNL     1       5.549   4.291  18.813  0.00  0.00    +0.000 HD
BRANCH   2  12
ATOM      6  C   UNL     1       2.557   2.356  17.527  0.00  0.00    +0.000 C 
ATOM      7  C   UNL     1       2.374   2.997  18.870  0.00  0.00    +0.000 A 
ATOM      8  C   UNL     1       1.586   2.288  19.808  0.00  0.00    +0.000 A 
ATOM      9  C   UNL     1       1.324   2.799  21.085  0.00  0.00    +0.000 A 
ATOM     10  C   UNL     1       1.855   4.015  21.453  0.00  0.00    +0.000 A 
ATOM     11  C   UNL     1       2.639   4.729  20.555  0.00  0.00    +0.000 A 
ATOM     12  C   UNL     1       2.916   4.242  19.258  0.00  0.00    +0.000 A 
ENDBRANCH   2  12
ENDBRANCH   1   4
BRANCH   1  13
ATOM     13  C   UNL     1       5.988   4.993  16.168  0.00  0.00    +0.000 C 
ATOM     14  O   UNL     1       6.079   3.774  16.380  0.00  0.00    +0.000 OA
ATOM     15  N   UNL     1       5.995   5.499  14.883  0.00  0.00    +0.000 N 
ATOM     16  H   UNL     1       5.627   6.431  14.735  0.00  0.00    +0.000 HD
BRANCH  15  17
ATOM     17  C   UNL     1       6.159   4.660  13.725  0.00  0.00    +0.000 A 
ATOM     18  C   UNL     1       7.417   4.250  13.252  0.00  0.00    +0.000 A 
ATOM     19  C   UNL     1       7.555   3.330  12.205  0.00  0.00    +0.000 A 
ATOM     20  C   UNL     1       6.426   2.813  11.582  0.00  0.00    +0.000 A 
ATOM     21 CL   UNL     1       6.657   1.625  10.348  0.00  0.00    +0.000 Cl
ATOM     22  C   UNL     1       5.161   3.264  11.985  0.00  0.00    +0.000 A 
ATOM     23 CL   UNL     1       3.714   2.676  11.241  0.00  0.00    +0.000 Cl
ATOM     24  C   UNL     1       5.031   4.196  13.037  0.00  0.00    +0.000 A 
ENDBRANCH  15  17
ENDBRANCH   1  13
BRANCH   1  25
ATOM     25  C   UNL     1       6.937   6.707  18.225  0.00  0.00    +0.000 C 
ATOM     26  C   UNL     1       7.900   5.904  19.091  0.00  0.00    +0.000 C 
ATOM     27  C   UNL     1       7.687   7.784  17.438  0.00  0.00    +0.000 C 
ENDBRANCH   1  25
TORSDOF 5
ENDMDL
MODEL 4
REMARK VINA RESULT:      -7.2      4.966      8.465
REMARK  Name = 
REMARK  8 active torsions:
REMARK  status: ('A' for Active; 'I' for Inactive)
REMARK    1  A    between atoms: C_1  and  C_2
REMARK    2  A    between atoms: C_7  and  C_8
REMARK    3  A    between atoms: N_10  and  C_11
REMARK    4  A    between atoms: C_11  and  C_12
REMARK    5  A    between atoms: C_11  and  C_23
REMARK    6  A    between atoms: N_14  and  C_15
REMARK    7  A    between atoms: C_23  and  C_24
REMARK    8  A    between atoms: C_23  and  C_25
REMARK                            x       y       z     vdW  Elec       q    Type
REMARK                         _______ _______ _______ _____ _____    ______ ____
ROOT
ATOM      1  C   UNL     1       6.404   5.915  17.077  0.00  0.00    +0.000 C 
ENDROOT
BRANCH   1   4
ATOM      2  C   UNL     1       4.092   5.848  17.963  0.00  0.00    +0.000 C 
ATOM      3  O   UNL     1       3.789   6.827  17.284  0.00  0.00    +0.000 OA
ATOM      4  N   UNL     1       5.378   5.384  18.017  0.00  0.00    +0.000 N 
ATOM      5  H   UNL     1       5.598   4.543  18.524  0.00  0.00    +0.000 HD
BRANCH   2  12
ATOM      6  C   UNL     1       2.573   3.100  17.340  0.00  0.00    +0.000 C 
ATOM      7  C   UNL     1       2.326   3.994  18.518  0.00  0.00    +0.000 A 
ATOM      8  C   UNL     1       1.307   3.593  19.415  0.00  0.00    +0.000 A 
ATOM      9  C   UNL     1       0.969   4.360  20.537  0.00  0.00    +0.000 A 
ATOM     10  C   UNL     1       1.651   5.529  20.791  0.00  0.00    +0.000 A 
ATOM     11  C   UNL     1       2.662   5.943  19.932  0.00  0.00    +0.000 A 
ATOM     12  C   UNL     1       3.021   5.193  18.789  0.00  0.00    +0.000 A 
ENDBRANCH   2  12
ENDBRANCH   1   4
BRANCH   1  13
ATOM     13  C   UNL     1       6.321   4.930  15.869  0.00  0.00    +0.000 C 
ATOM     14  O   UNL     1       6.299   3.722  16.148  0.00  0.00    +0.000 OA
ATOM     15  N   UNL     1       6.285   5.363  14.557  0.00  0.00    +0.000 N 
ATOM     16  H   UNL     1       6.007   6.320  14.378  0.00  0.00    +0.000 HD
BRANCH  15  17
ATOM     17  C   UNL     1       6.274   4.450  13.445  0.00  0.00    +0.000 A 
ATOM     18  C   UNL     1       7.440   3.851  12.938  0.00  0.00    +0.000 A 
ATOM     19  C   UNL     1       7.399   2.867  11.941  0.00  0.00    +0.000 A 
ATOM     20  C   UNL     1       6.179   2.474  11.405  0.00  0.00    +0.000 A 
ATOM     21 CL   UNL     1       6.185   1.204  10.233  0.00  0.00    +0.000 Cl
ATOM     22  C   UNL     1       5.008   3.112  11.839  0.00  0.00    +0.000 A 
ATOM     23 CL   UNL     1       3.459   2.684  11.200  0.00  0.00    +0.000 Cl
ATOM     24  C   UNL     1       5.059   4.106  12.839  0.00  0.00    +0.000 A 
ENDBRANCH  15  17
ENDBRANCH   1  13
BRANCH   1  25
ATOM     25  C   UNL     1       7.598   6.459  17.894  0.00  0.00    +0.000 C 
ATOM     26  C   UNL     1       7.824   7.966  17.857  0.00  0.00    +0.000 C 
ATOM     27  C   UNL     1       7.725   5.928  19.323  0.00  0.00    +0.000 C 
ENDBRANCH   1  25
TORSDOF 5
ENDMDL
MODEL 5
REMARK VINA RESULT:      -7.2      3.817      5.936
REMARK  Name = 
REMARK  8 active torsions:
REMARK  status: ('A' for Active; 'I' for Inactive)
REMARK    1  A    between atoms: C_1  and  C_2
REMARK    2  A    between atoms: C_7  and  C_8
REMARK    3  A    between atoms: N_10  and  C_11
REMARK    4  A    between atoms: C_11  and  C_12
REMARK    5  A    between atoms: C_11  and  C_23
REMARK    6  A    between atoms: N_14  and  C_15
REMARK    7  A    between atoms: C_23  and  C_24
REMARK    8  A    between atoms: C_23  and  C_25
REMARK                            x       y       z     vdW  Elec       q    Type
REMARK                         _______ _______ _______ _____ _____    ______ ____
ROOT
ATOM      1  C   UNL     1       7.661   6.819  17.712  0.00  0.00    +0.000 C 
ENDROOT
BRANCH   1   4
ATOM      2  C   UNL     1       7.497   5.093  15.944  0.00  0.00    +0.000 C 
ATOM      3  O   UNL     1       8.000   4.258  16.692  0.00  0.00    +0.000 OA
ATOM      4  N   UNL     1       7.384   6.407  16.308  0.00  0.00    +0.000 N 
ATOM      5  H   UNL     1       6.909   7.064  15.712  0.00  0.00    +0.000 HD
BRANCH   2  12
ATOM      6  C   UNL     1       8.868   5.796  13.137  0.00  0.00    +0.000 C 
ATOM      7  C   UNL     1       7.632   4.970  13.330  0.00  0.00    +0.000 A 
ATOM      8  C   UNL     1       7.005   4.487  12.156  0.00  0.00    +0.000 A 
ATOM      9  C   UNL     1       5.830   3.727  12.209  0.00  0.00    +0.000 A 
ATOM     10  C   UNL     1       5.271   3.423  13.431  0.00  0.00    +0.000 A 
ATOM     11  C   UNL     1       5.870   3.878  14.599  0.00  0.00    +0.000 A 
ATOM     12  C   UNL     1       7.052   4.651  14.578  0.00  0.00    +0.000 A 
ENDBRANCH   2  12
ENDBRANCH   1   4
BRANCH   1  13
ATOM     13  C   UNL     1       6.588   6.035  18.530  0.00  0.00    +0.000 C 
ATOM     14  O   UNL     1       6.977   5.517  19.589  0.00  0.00    +0.000 OA
ATOM     15  N   UNL     1       5.279   5.904  18.107  0.00  0.00    +0.000 N 
ATOM     16  H   UNL     1       4.931   6.565  17.424  0.00  0.00    +0.000 HD
BRANCH  15  17
ATOM     17  C   UNL     1       4.309   5.125  18.831  0.00  0.00    +0.000 A 
ATOM     18  C   UNL     1       3.453   5.678  19.797  0.00  0.00    +0.000 A 
ATOM     19  C   UNL     1       2.429   4.935  20.398  0.00  0.00    +0.000 A 
ATOM     20  C   UNL     1       2.251   3.599  20.061  0.00  0.00    +0.000 A 
ATOM     21 CL   UNL     1       0.925   2.755  20.777  0.00  0.00    +0.000 Cl
ATOM     22  C   UNL     1       3.141   3.003  19.155  0.00  0.00    +0.000 A 
ATOM     23 CL   UNL     1       2.989   1.340  18.704  0.00  0.00    +0.000 Cl
ATOM     24  C   UNL     1       4.174   3.757  18.559  0.00  0.00    +0.000 A 
ENDBRANCH  15  17
ENDBRANCH   1  13
BRANCH   1  25
ATOM     25  C   UNL     1       8.097   8.302  17.722  0.00  0.00    +0.000 C 
ATOM     26  C   UNL     1       7.039   9.330  17.339  0.00  0.00    +0.000 C 
ATOM     27  C   UNL     1       8.873   8.760  18.958  0.00  0.00    +0.000 C 
ENDBRANCH   1  25
TORSDOF 5
ENDMDL
MODEL 6
REMARK VINA RESULT:      -7.2      3.997      7.086
REMARK  Name = 
REMARK  8 active torsions:
REMARK  status: ('A' for Active; 'I' for Inactive)
REMARK    1  A    between atoms: C_1  and  C_2
REMARK    2  A    between atoms: C_7  and  C_8
REMARK    3  A    between atoms: N_10  and  C_11
REMARK    4  A    between atoms: C_11  and  C_12
REMARK    5  A    between atoms: C_11  and  C_23
REMARK    6  A    between atoms: N_14  and  C_15
REMARK    7  A    between atoms: C_23  and  C_24
REMARK    8  A    between atoms: C_23  and  C_25
REMARK                            x       y       z     vdW  Elec       q    Type
REMARK                         _______ _______ _______ _____ _____    ______ ____
ROOT
ATOM      1  C   UNL     1       3.707   4.187  19.869  0.00  0.00    +0.000 C 
ENDROOT
BRANCH   1   4
ATOM      2  C   UNL     1       2.310   6.186  19.434  0.00  0.00    +0.000 C 
ATOM      3  O   UNL     1       1.878   5.677  18.402  0.00  0.00    +0.000 OA
ATOM      4  N   UNL     1       3.293   5.586  20.173  0.00  0.00    +0.000 N 
ATOM      5  H   UNL     1       3.588   5.981  21.049  0.00  0.00    +0.000 HD
BRANCH   2  12
ATOM      6  C   UNL     1       2.120   8.833  17.643  0.00  0.00    +0.000 C 
ATOM      7  C   UNL     1       1.702   8.709  19.077  0.00  0.00    +0.000 A 
ATOM      8  C   UNL     1       1.208   9.883  19.695  0.00  0.00    +0.000 A 
ATOM      9  C   UNL     1       0.811   9.897  21.039  0.00  0.00    +0.000 A 
ATOM     10  C   UNL     1       0.886   8.740  21.781  0.00  0.00    +0.000 A 
ATOM     11  C   UNL     1       1.360   7.571  21.197  0.00  0.00    +0.000 A 
ATOM     12  C   UNL     1       1.773   7.527  19.847  0.00  0.00    +0.000 A 
ENDBRANCH   2  12
ENDBRANCH   1   4
BRANCH   1  13
ATOM     13  C   UNL     1       4.697   4.363  18.675  0.00  0.00    +0.000 C 
ATOM     14  O   UNL     1       5.904   4.257  18.944  0.00  0.00    +0.000 OA
ATOM     15  N   UNL     1       4.271   4.635  17.389  0.00  0.00    +0.000 N 
ATOM     16  H   UNL     1       3.310   4.422  17.150  0.00  0.00    +0.000 HD
BRANCH  15  17
ATOM     17  C   UNL     1       5.190   4.862  16.304  0.00  0.00    +0.000 A 
ATOM     18  C   UNL     1       6.272   5.753  16.394  0.00  0.00    +0.000 A 
ATOM     19  C   UNL     1       7.231   5.866  15.379  0.00  0.00    +0.000 A 
ATOM     20  C   UNL     1       7.114   5.099  14.227  0.00  0.00    +0.000 A 
ATOM     21 CL   UNL     1       8.367   5.225  13.043  0.00  0.00    +0.000 Cl
ATOM     22  C   UNL     1       6.002   4.258  14.080  0.00  0.00    +0.000 A 
ATOM     23 CL   UNL     1       5.784   3.289  12.663  0.00  0.00    +0.000 Cl
ATOM     24  C   UNL     1       5.037   4.155  15.104  0.00  0.00    +0.000 A 
ENDBRANCH  15  17
ENDBRANCH   1  13
BRANCH   1  25
ATOM     25  C   UNL     1       2.499   3.249  20.087  0.00  0.00    +0.000 C 
ATOM     26  C   UNL     1       2.374   2.061  19.141  0.00  0.00    +0.000 C 
ATOM     27  C   UNL     1       2.243   2.819  21.533  0.00  0.00    +0.000 C 
ENDBRANCH   1  25
TORSDOF 5
ENDMDL
MODEL 7
REMARK VINA RESULT:      -7.2      1.034      1.294
REMARK  Name = 
REMARK  8 active torsions:
REMARK  status: ('A' for Active; 'I' for Inactive)
REMARK    1  A    between atoms: C_1  and  C_2
REMARK    2  A    between atoms: C_7  and  C_8
REMARK    3  A    between atoms: N_10  and  C_11
REMARK    4  A    between atoms: C_11  and  C_12
REMARK    5  A    between atoms: C_11  and  C_23
REMARK    6  A    between atoms: N_14  and  C_15
REMARK    7  A    between atoms: C_23  and  C_24
REMARK    8  A    between atoms: C_23  and  C_25
REMARK                            x       y       z     vdW  Elec       q    Type
REMARK                         _______ _______ _______ _____ _____    ______ ____
ROOT
ATOM      1  C   UNL     1       3.092   3.789  19.618  0.00  0.00    +0.000 C 
ENDROOT
BRANCH   1   4
ATOM      2  C   UNL     1       4.144   3.896  17.378  0.00  0.00    +0.000 C 
ATOM      3  O   UNL     1       3.146   3.388  16.870  0.00  0.00    +0.000 OA
ATOM      4  N   UNL     1       4.264   4.038  18.734  0.00  0.00    +0.000 N 
ATOM      5  H   UNL     1       5.056   4.516  19.130  0.00  0.00    +0.000 HD
BRANCH   2  12
ATOM      6  C   UNL     1       6.437   6.041  18.005  0.00  0.00    +0.000 C 
ATOM      7  C   UNL     1       6.277   5.272  16.728  0.00  0.00    +0.000 A 
ATOM      8  C   UNL     1       7.212   5.548  15.702  0.00  0.00    +0.000 A 
ATOM      9  C   UNL     1       7.147   4.912  14.456  0.00  0.00    +0.000 A 
ATOM     10  C   UNL     1       6.162   3.980  14.219  0.00  0.00    +0.000 A 
ATOM     11  C   UNL     1       5.235   3.683  15.212  0.00  0.00    +0.000 A 
ATOM     12  C   UNL     1       5.271   4.313  16.476  0.00  0.00    +0.000 A 
ENDBRANCH   2  12
ENDBRANCH   1   4
BRANCH   1  13
ATOM     13  C   UNL     1       2.302   5.133  19.546  0.00  0.00    +0.000 C 
ATOM     14  O   UNL     1       1.089   5.043  19.300  0.00  0.00    +0.000 OA
ATOM     15  N   UNL     1       2.906   6.362  19.732  0.00  0.00    +0.000 N 
ATOM     16  H   UNL     1       3.797   6.388  20.213  0.00  0.00    +0.000 HD
BRANCH  15  17
ATOM     17  C   UNL     1       2.187   7.602  19.599  0.00  0.00    +0.000 A 
ATOM     18  C   UNL     1       2.132   8.328  18.398  0.00  0.00    +0.000 A 
ATOM     19  C   UNL     1       1.324   9.462  18.249  0.00  0.00    +0.000 A 
ATOM     20  C   UNL     1       0.563   9.916  19.319  0.00  0.00    +0.000 A 
ATOM     21 CL   UNL     1      -0.472  11.274  19.054  0.00  0.00    +0.000 Cl
ATOM     22  C   UNL     1       0.659   9.254  20.551  0.00  0.00    +0.000 A 
ATOM     23 CL   UNL     1      -0.247   9.777  21.929  0.00  0.00    +0.000 Cl
ATOM     24  C   UNL     1       1.480   8.116  20.694  0.00  0.00    +0.000 A 
ENDBRANCH  15  17
ENDBRANCH   1  13
BRANCH   1  25
ATOM     25  C   UNL     1       3.540   2.909  20.807  0.00  0.00    +0.000 C 
ATOM     26  C   UNL     1       2.443   2.392  21.729  0.00  0.00    +0.000 C 
ATOM     27  C   UNL     1       4.535   1.796  20.474  0.00  0.00    +0.000 C 
ENDBRANCH   1  25
TORSDOF 5
ENDMDL
MODEL 8
REMARK VINA RESULT:      -7.1      1.804      2.526
REMARK  Name = 
REMARK  8 active torsions:
REMARK  status: ('A' for Active; 'I' for Inactive)
REMARK    1  A    between atoms: C_1  and  C_2
REMARK    2  A    between atoms: C_7  and  C_8
REMARK    3  A    between atoms: N_10  and  C_11
REMARK    4  A    between atoms: C_11  and  C_12
REMARK    5  A    between atoms: C_11  and  C_23
REMARK    6  A    between atoms: N_14  and  C_15
REMARK    7  A    between atoms: C_23  and  C_24
REMARK    8  A    between atoms: C_23  and  C_25
REMARK                            x       y       z     vdW  Elec       q    Type
REMARK                         _______ _______ _______ _____ _____    ______ ____
ROOT
ATOM      1  C   UNL     1       2.377   4.629  20.413  0.00  0.00    +0.000 C 
ENDROOT
BRANCH   1   4
ATOM      2  C   UNL     1       4.205   5.092  18.808  0.00  0.00    +0.000 C 
ATOM      3  O   UNL     1       3.652   4.400  17.956  0.00  0.00    +0.000 OA
ATOM      4  N   UNL     1       3.719   5.185  20.083  0.00  0.00    +0.000 N 
ATOM      5  H   UNL     1       4.145   5.807  20.749  0.00  0.00    +0.000 HD
BRANCH   2  12
ATOM      6  C   UNL     1       4.692   7.003  16.285  0.00  0.00    +0.000 C 
ATOM      7  C   UNL     1       5.715   6.629  17.316  0.00  0.00    +0.000 A 
ATOM      8  C   UNL     1       7.018   7.149  17.131  0.00  0.00    +0.000 A 
ATOM      9  C   UNL     1       8.063   6.848  18.014  0.00  0.00    +0.000 A 
ATOM     10  C   UNL     1       7.822   6.038  19.101  0.00  0.00    +0.000 A 
ATOM     11  C   UNL     1       6.549   5.520  19.311  0.00  0.00    +0.000 A 
ATOM     12  C   UNL     1       5.477   5.801  18.435  0.00  0.00    +0.000 A 
ENDBRANCH   2  12
ENDBRANCH   1   4
BRANCH   1  13
ATOM     13  C   UNL     1       1.509   5.908  20.635  0.00  0.00    +0.000 C 
ATOM     14  O   UNL     1       0.279   5.748  20.600  0.00  0.00    +0.000 OA
ATOM     15  N   UNL     1       2.064   7.156  20.847  0.00  0.00    +0.000 N 
ATOM     16  H   UNL     1       3.025   7.203  21.161  0.00  0.00    +0.000 HD
BRANCH  15  17
ATOM     17  C   UNL     1       1.261   8.342  20.985  0.00  0.00    +0.000 A 
ATOM     18  C   UNL     1       0.718   8.758  22.213  0.00  0.00    +0.000 A 
ATOM     19  C   UNL     1       0.050   9.981  22.357  0.00  0.00    +0.000 A 
ATOM     20  C   UNL     1      -0.115  10.813  21.257  0.00  0.00    +0.000 A 
ATOM     21 CL   UNL     1      -0.880  12.342  21.511  0.00  0.00    +0.000 Cl
ATOM     22  C   UNL     1       0.350  10.387  20.005  0.00  0.00    +0.000 A 
ATOM     23 CL   UNL     1       0.162  11.366  18.591  0.00  0.00    +0.000 Cl
ATOM     24  C   UNL     1       1.017   9.151  19.868  0.00  0.00    +0.000 A 
ENDBRANCH  15  17
ENDBRANCH   1  13
BRANCH   1  25
ATOM     25  C   UNL     1       2.559   3.340  21.244  0.00  0.00    +0.000 C 
ATOM     26  C   UNL     1       1.290   2.604  21.656  0.00  0.00    +0.000 C 
ATOM     27  C   UNL     1       3.611   2.357  20.727  0.00  0.00    +0.000 C 
ENDBRANCH   1  25
TORSDOF 5
ENDMDL
MODEL 9
REMARK VINA RESULT:      -7.1      4.240      8.062
REMARK  Name = 
REMARK  8 active torsions:
REMARK  status: ('A' for Active; 'I' for Inactive)
REMARK    1  A    between atoms: C_1  and  C_2
REMARK    2  A    between atoms: C_7  and  C_8
REMARK    3  A    between atoms: N_10  and  C_11
REMARK    4  A    between atoms: C_11  and  C_12
REMARK    5  A    between atoms: C_11  and  C_23
REMARK    6  A    between atoms: N_14  and  C_15
REMARK    7  A    between atoms: C_23  and  C_24
REMARK    8  A    between atoms: C_23  and  C_25
REMARK                            x       y       z     vdW  Elec       q    Type
REMARK                         _______ _______ _______ _____ _____    ______ ____
ROOT
ATOM      1  C   UNL     1       0.529   9.961  20.895  0.00  0.00    +0.000 C 
ENDROOT
BRANCH   1   4
ATOM      2  C   UNL     1      -0.809  10.926  19.047  0.00  0.00    +0.000 C 
ATOM      3  O   UNL     1       0.017  11.824  18.899  0.00  0.00    +0.000 OA
ATOM      4  N   UNL     1      -0.709  10.021  20.069  0.00  0.00    +0.000 N 
ATOM      5  H   UNL     1      -1.356   9.253  20.137  0.00  0.00    +0.000 HD
BRANCH   2  12
ATOM      6  C   UNL     1      -3.675  12.296  19.443  0.00  0.00    +0.000 C 
ATOM      7  C   UNL     1      -3.257  11.452  18.276  0.00  0.00    +0.000 A 
ATOM      8  C   UNL     1      -4.236  11.221  17.280  0.00  0.00    +0.000 A 
ATOM      9  C   UNL     1      -3.970  10.426  16.157  0.00  0.00    +0.000 A 
ATOM     10  C   UNL     1      -2.723   9.863  16.003  0.00  0.00    +0.000 A 
ATOM     11  C   UNL     1      -1.741  10.080  16.962  0.00  0.00    +0.000 A 
ATOM     12  C   UNL     1      -1.981  10.872  18.107  0.00  0.00    +0.000 A 
ENDBRANCH   2  12
ENDBRANCH   1   4
BRANCH   1  13
ATOM     13  C   UNL     1       1.222   8.653  20.399  0.00  0.00    +0.000 C 
ATOM     14  O   UNL     1       1.226   7.700  21.194  0.00  0.00    +0.000 OA
ATOM     15  N   UNL     1       1.813   8.550  19.155  0.00  0.00    +0.000 N 
ATOM     16  H   UNL     1       1.540   9.213  18.440  0.00  0.00    +0.000 HD
BRANCH  15  17
ATOM     17  C   UNL     1       2.508   7.364  18.728  0.00  0.00    +0.000 A 
ATOM     18  C   UNL     1       2.251   6.092  19.267  0.00  0.00    +0.000 A 
ATOM     19  C   UNL     1       2.842   4.931  18.752  0.00  0.00    +0.000 A 
ATOM     20  C   UNL     1       3.733   5.019  17.690  0.00  0.00    +0.000 A 
ATOM     21 CL   UNL     1       4.370   3.547  17.048  0.00  0.00    +0.000 Cl
ATOM     22  C   UNL     1       4.064   6.284  17.183  0.00  0.00    +0.000 A 
ATOM     23 CL   UNL     1       5.179   6.468  15.874  0.00  0.00    +0.000 Cl
ATOM     24  C   UNL     1       3.469   7.449  17.712  0.00  0.00    +0.000 A 
ENDBRANCH  15  17
ENDBRANCH   1  13
BRANCH   1  25
ATOM     25  C   UNL     1       0.213  10.498  22.309  0.00  0.00    +0.000 C 
ATOM     26  C   UNL     1      -0.708  11.709  22.392  0.00  0.00    +0.000 C 
ATOM     27  C   UNL     1      -0.179   9.447  23.349  0.00  0.00    +0.000 C 
ENDBRANCH   1  25
TORSDOF 5
ENDMDL
