MODEL 1
REMARK VINA RESULT:      -7.6      0.000      0.000
REMARK  Name = 
REMARK  8 active torsions:
REMARK  status: ('A' for Active; 'I' for Inactive)
REMARK    1  A    between atoms: C_1  and  O_2
REMARK    2  A    between atoms: O_2  and  C_3
REMARK    3  A    between atoms: C_5  and  C_6
REMARK    4  A    between atoms: C_6  and  C_8
REMARK    5  A    between atoms: C_30  and  O_31
REMARK    6  A    between atoms: O_31  and  C_32
REMARK    7  A    between atoms: C_33  and  O_34
REMARK    8  A    between atoms: O_34  and  C_35
REMARK                            x       y       z     vdW  Elec       q    Type
REMARK                         _______ _______ _______ _____ _____    ______ ____
ROOT
ATOM      1  C   UNL     1       1.855   6.196  17.986  0.00  0.00    +0.000 C 
ATOM      2  O   UNL     1       0.924   6.198  17.190  0.00  0.00    +0.000 OA
ATOM      3  N   UNL     1       2.238   5.102  18.748  0.00  0.00    +0.000 N 
ATOM      4  C   UNL     1       1.606   3.805  18.552  0.00  0.00    +0.000 C 
ATOM      5  C   UNL     1       0.995   3.294  19.849  0.00  0.00    +0.000 C 
ATOM      6  C   UNL     1       1.865   3.511  21.090  0.00  0.00    +0.000 C 
ATOM      7  C   UNL     1       2.887   4.653  21.023  0.00  0.00    +0.000 C 
ATOM      8  C   UNL     1       3.404   5.040  19.627  0.00  0.00    +0.000 C 
ATOM      9  C   UNL     1       4.497   4.091  19.018  0.00  0.00    +0.000 C 
ATOM     10  C   UNL     1       5.553   4.934  18.285  0.00  0.00    +0.000 A 
ATOM     11  C   UNL     1       6.548   5.618  18.978  0.00  0.00    +0.000 A 
ATOM     12  F   UNL     1       6.683   5.437  20.299  0.00  0.00    +0.000 F 
ATOM     13  C   UNL     1       7.429   6.473  18.318  0.00  0.00    +0.000 A 
ATOM     14  C   UNL     1       7.286   6.697  16.950  0.00  0.00    +0.000 A 
ATOM     15  C   UNL     1       6.337   5.975  16.226  0.00  0.00    +0.000 A 
ATOM     16  C   UNL     1       5.538   5.033  16.873  0.00  0.00    +0.000 A 
ATOM     17  C   UNL     1       4.723   4.044  16.085  0.00  0.00    +0.000 C 
ATOM     18  C   UNL     1       4.710   2.752  16.906  0.00  0.00    +0.000 C 
ATOM     19  N   UNL     1       3.949   3.029  18.124  0.00  0.00    +0.000 N 
ATOM     20  C   UNL     1       2.593   2.773  17.974  0.00  0.00    +0.000 C 
ATOM     21  O   UNL     1       2.174   1.751  17.426  0.00  0.00    +0.000 OA
ENDROOT
BRANCH   1  22
ATOM     22  C   UNL     1       2.626   7.493  18.182  0.00  0.00    +0.000 C 
ATOM     23  O   UNL     1       3.756   7.592  17.717  0.00  0.00    +0.000 OA
BRANCH  22  26
ATOM     24  C   UNL     1       1.128   9.475  21.019  0.00  0.00    +0.000 A 
ATOM     25  C   UNL     1       1.609   8.419  20.227  0.00  0.00    +0.000 A 
ATOM     26  C   UNL     1       1.996   8.624  18.900  0.00  0.00    +0.000 A 
ATOM     27  C   UNL     1       1.815   9.877  18.330  0.00  0.00    +0.000 A 
ATOM     28  C   UNL     1       1.270  10.929  19.081  0.00  0.00    +0.000 A 
ATOM     29  C   UNL     1       0.909  10.740  20.437  0.00  0.00    +0.000 A 
BRANCH  24  31
ATOM     30  C   UNL     1      -0.518   8.914  22.633  0.00  0.00    +0.000 C 
ATOM     31  O   UNL     1       0.837   9.267  22.342  0.00  0.00    +0.000 OA
ENDBRANCH  24  31
BRANCH  28  32
ATOM     32  O   UNL     1       1.101  12.072  18.339  0.00  0.00    +0.000 OA
ATOM     33  C   UNL     1       2.216  12.955  18.270  0.00  0.00    +0.000 C 
ENDBRANCH  28  32
BRANCH  29  34
ATOM     34  O   UNL     1       0.341  11.827  21.042  0.00  0.00    +0.000 OA
ATOM     35  C   UNL     1      -1.048  12.089  20.928  0.00  0.00    +0.000 C 
ENDBRANCH  29  34
ENDBRANCH  22  26
ENDBRANCH   1  22
TORSDOF 5
ENDMDL
MODEL 2
REMARK VINA RESULT:      -7.5      0.109      2.126
REMARK  Name = 
REMARK  8 active torsions:
REMARK  status: ('A' for Active; 'I' for Inactive)
REMARK    1  A    between atoms: C_1  and  O_2
REMARK    2  A    between atoms: O_2  and  C_3
REMARK    3  A    between atoms: C_5  and  C_6
REMARK    4  A    between atoms: C_6  and  C_8
REMARK    5  A    between atoms: C_30  and  O_31
REMARK    6  A    between atoms: O_31  and  C_32
REMARK    7  A    between atoms: C_33  and  O_34
REMARK    8  A    between atoms: O_34  and  C_35
REMARK                            x       y       z     vdW  Elec       q    Type
REMARK                         _______ _______ _______ _____ _____    ______ ____
ROOT
ATOM      1  C   UNL     1       1.856   6.233  17.982  0.00  0.00    +0.000 C 
ATOM      2  O   UNL     1       0.922   6.234  17.191  0.00  0.00    +0.000 OA
ATOM      3  N   UNL     1       2.229   5.147  18.761  0.00  0.00    +0.000 N 
ATOM      4  C   UNL     1       1.579   3.854  18.588  0.00  0.00    +0.000 C 
ATOM      5  C   UNL     1       0.967   3.373  19.896  0.00  0.00    +0.000 C 
ATOM      6  C   UNL     1       1.845   3.599  21.129  0.00  0.00    +0.000 C 
ATOM      7  C   UNL     1       2.881   4.726  21.040  0.00  0.00    +0.000 C 
ATOM      8  C   UNL     1       3.397   5.084  19.635  0.00  0.00    +0.000 C 
ATOM      9  C   UNL     1       4.476   4.111  19.037  0.00  0.00    +0.000 C 
ATOM     10  C   UNL     1       5.539   4.928  18.287  0.00  0.00    +0.000 A 
ATOM     11  C   UNL     1       6.546   5.610  18.964  0.00  0.00    +0.000 A 
ATOM     12  F   UNL     1       6.685   5.449  20.287  0.00  0.00    +0.000 F 
ATOM     13  C   UNL     1       7.434   6.443  18.286  0.00  0.00    +0.000 A 
ATOM     14  C   UNL     1       7.288   6.647  16.915  0.00  0.00    +0.000 A 
ATOM     15  C   UNL     1       6.327   5.926  16.208  0.00  0.00    +0.000 A 
ATOM     16  C   UNL     1       5.519   5.005  16.873  0.00  0.00    +0.000 A 
ATOM     17  C   UNL     1       4.687   4.014  16.104  0.00  0.00    +0.000 C 
ATOM     18  C   UNL     1       4.662   2.736  16.947  0.00  0.00    +0.000 C 
ATOM     19  N   UNL     1       3.910   3.042  18.163  0.00  0.00    +0.000 N 
ATOM     20  C   UNL     1       2.550   2.801  18.023  0.00  0.00    +0.000 C 
ATOM     21  O   UNL     1       2.116   1.776  17.493  0.00  0.00    +0.000 OA
ENDROOT
BRANCH   1  22
ATOM     22  C   UNL     1       2.645   7.523  18.154  0.00  0.00    +0.000 C 
ATOM     23  O   UNL     1       3.742   7.628  17.617  0.00  0.00    +0.000 OA
BRANCH  22  26
ATOM     24  C   UNL     1       1.288  10.955  18.926  0.00  0.00    +0.000 A 
ATOM     25  C   UNL     1       1.943   9.880  18.304  0.00  0.00    +0.000 A 
ATOM     26  C   UNL     1       2.069   8.641  18.936  0.00  0.00    +0.000 A 
ATOM     27  C   UNL     1       1.616   8.499  20.241  0.00  0.00    +0.000 A 
ATOM     28  C   UNL     1       1.022   9.580  20.909  0.00  0.00    +0.000 A 
ATOM     29  C   UNL     1       0.857  10.829  20.263  0.00  0.00    +0.000 A 
BRANCH  24  31
ATOM     30  C   UNL     1       2.188  13.061  18.306  0.00  0.00    +0.000 C 
ATOM     31  O   UNL     1       1.100  12.134  18.252  0.00  0.00    +0.000 OA
ENDBRANCH  24  31
BRANCH  28  32
ATOM     32  O   UNL     1       0.697   9.280  22.209  0.00  0.00    +0.000 OA
ATOM     33  C   UNL     1      -0.555   8.636  22.419  0.00  0.00    +0.000 C 
ENDBRANCH  28  32
BRANCH  29  34
ATOM     34  O   UNL     1       0.312  11.815  21.039  0.00  0.00    +0.000 OA
ATOM     35  C   UNL     1      -1.082  12.080  21.017  0.00  0.00    +0.000 C 
ENDBRANCH  29  34
ENDBRANCH  22  26
ENDBRANCH   1  22
TORSDOF 5
ENDMDL
MODEL 3
REMARK VINA RESULT:      -6.9      7.995     10.078
REMARK  Name = 
REMARK  8 active torsions:
REMARK  status: ('A' for Active; 'I' for Inactive)
REMARK    1  A    between atoms: C_1  and  O_2
REMARK    2  A    between atoms: O_2  and  C_3
REMARK    3  A    between atoms: C_5  and  C_6
REMARK    4  A    between atoms: C_6  and  C_8
REMARK    5  A    between atoms: C_30  and  O_31
REMARK    6  A    between atoms: O_31  and  C_32
REMARK    7  A    between atoms: C_33  and  O_34
REMARK    8  A    between atoms: O_34  and  C_35
REMARK                            x       y       z     vdW  Elec       q    Type
REMARK                         _______ _______ _______ _____ _____    ______ ____
ROOT
ATOM      1  C   UNL     1       7.769  13.663  18.019  0.00  0.00    +0.000 C 
ATOM      2  O   UNL     1       7.386  12.984  17.075  0.00  0.00    +0.000 OA
ATOM      3  N   UNL     1       8.755  13.282  18.917  0.00  0.00    +0.000 N 
ATOM      4  C   UNL     1       9.508  12.051  18.710  0.00  0.00    +0.000 C 
ATOM      5  C   UNL     1       9.385  11.129  19.916  0.00  0.00    +0.000 C 
ATOM      6  C   UNL     1       9.484  11.837  21.269  0.00  0.00    +0.000 C 
ATOM      7  C   UNL     1       9.115  13.325  21.297  0.00  0.00    +0.000 C 
ATOM      8  C   UNL     1       9.303  14.111  19.987  0.00  0.00    +0.000 C 
ATOM      9  C   UNL     1      10.779  14.532  19.651  0.00  0.00    +0.000 C 
ATOM     10  C   UNL     1      10.781  15.948  19.054  0.00  0.00    +0.000 A 
ATOM     11  C   UNL     1      10.652  17.078  19.856  0.00  0.00    +0.000 A 
ATOM     12  F   UNL     1      10.664  16.951  21.190  0.00  0.00    +0.000 F 
ATOM     13  C   UNL     1      10.537  18.350  19.298  0.00  0.00    +0.000 A 
ATOM     14  C   UNL     1      10.494  18.499  17.913  0.00  0.00    +0.000 A 
ATOM     15  C   UNL     1      10.684  17.389  17.091  0.00  0.00    +0.000 A 
ATOM     16  C   UNL     1      10.917  16.137  17.657  0.00  0.00    +0.000 A 
ATOM     17  C   UNL     1      11.410  14.991  16.815  0.00  0.00    +0.000 C 
ATOM     18  C   UNL     1      12.333  14.167  17.716  0.00  0.00    +0.000 C 
ATOM     19  N   UNL     1      11.495  13.575  18.758  0.00  0.00    +0.000 N 
ATOM     20  C   UNL     1      10.988  12.336  18.393  0.00  0.00    +0.000 C 
ATOM     21  O   UNL     1      11.686  11.472  17.859  0.00  0.00    +0.000 OA
ENDROOT
BRANCH   1  22
ATOM     22  C   UNL     1       7.094  15.008  18.249  0.00  0.00    +0.000 C 
ATOM     23  O   UNL     1       7.627  16.025  17.820  0.00  0.00    +0.000 OA
BRANCH  22  26
ATOM     24  C   UNL     1       4.630  15.057  21.104  0.00  0.00    +0.000 A 
ATOM     25  C   UNL     1       5.797  14.884  20.341  0.00  0.00    +0.000 A 
ATOM     26  C   UNL     1       5.794  15.069  18.956  0.00  0.00    +0.000 A 
ATOM     27  C   UNL     1       4.594  15.341  18.313  0.00  0.00    +0.000 A 
ATOM     28  C   UNL     1       3.403  15.449  19.046  0.00  0.00    +0.000 A 
ATOM     29  C   UNL     1       3.402  15.299  20.454  0.00  0.00    +0.000 A 
BRANCH  24  31
ATOM     30  C   UNL     1       5.401  13.835  22.985  0.00  0.00    +0.000 C 
ATOM     31  O   UNL     1       4.677  14.956  22.470  0.00  0.00    +0.000 OA
ENDBRANCH  24  31
BRANCH  28  32
ATOM     32  O   UNL     1       2.308  15.653  18.243  0.00  0.00    +0.000 OA
ATOM     33  C   UNL     1       1.792  16.979  18.198  0.00  0.00    +0.000 C 
ENDBRANCH  28  32
BRANCH  29  34
ATOM     34  O   UNL     1       2.171  15.375  21.044  0.00  0.00    +0.000 OA
ATOM     35  C   UNL     1       1.425  14.206  21.342  0.00  0.00    +0.000 C 
ENDBRANCH  29  34
ENDBRANCH  22  26
ENDBRANCH   1  22
TORSDOF 5
ENDMDL
MODEL 4
REMARK VINA RESULT:      -6.8      8.030     10.226
REMARK  Name = 
REMARK  8 active torsions:
REMARK  status: ('A' for Active; 'I' for Inactive)
REMARK    1  A    between atoms: C_1  and  O_2
REMARK    2  A    between atoms: O_2  and  C_3
REMARK    3  A    between atoms: C_5  and  C_6
REMARK    4  A    between atoms: C_6  and  C_8
REMARK    5  A    between atoms: C_30  and  O_31
REMARK    6  A    between atoms: O_31  and  C_32
REMARK    7  A    between atoms: C_33  and  O_34
REMARK    8  A    between atoms: O_34  and  C_35
REMARK                            x       y       z     vdW  Elec       q    Type
REMARK                         _______ _______ _______ _____ _____    ______ ____
ROOT
ATOM      1  C   UNL     1       7.781  13.770  18.172  0.00  0.00    +0.000 C 
ATOM      2  O   UNL     1       7.325  13.246  17.163  0.00  0.00    +0.000 OA
ATOM      3  N   UNL     1       8.804  13.239  18.943  0.00  0.00    +0.000 N 
ATOM      4  C   UNL     1       9.507  12.037  18.514  0.00  0.00    +0.000 C 
ATOM      5  C   UNL     1       9.425  10.949  19.576  0.00  0.00    +0.000 C 
ATOM      6  C   UNL     1       9.620  11.446  21.010  0.00  0.00    +0.000 C 
ATOM      7  C   UNL     1       9.297  12.921  21.278  0.00  0.00    +0.000 C 
ATOM      8  C   UNL     1       9.435  13.888  20.090  0.00  0.00    +0.000 C 
ATOM      9  C   UNL     1      10.901  14.324  19.732  0.00  0.00    +0.000 C 
ATOM     10  C   UNL     1      10.911  15.812  19.350  0.00  0.00    +0.000 A 
ATOM     11  C   UNL     1      10.860  16.813  20.316  0.00  0.00    +0.000 A 
ATOM     12  F   UNL     1      10.943  16.489  21.614  0.00  0.00    +0.000 F 
ATOM     13  C   UNL     1      10.752  18.156  19.959  0.00  0.00    +0.000 A 
ATOM     14  C   UNL     1      10.636  18.510  18.616  0.00  0.00    +0.000 A 
ATOM     15  C   UNL     1      10.747  17.531  17.630  0.00  0.00    +0.000 A 
ATOM     16  C   UNL     1      10.975  16.204  17.991  0.00  0.00    +0.000 A 
ATOM     17  C   UNL     1      11.386  15.186  16.961  0.00  0.00    +0.000 C 
ATOM     18  C   UNL     1      12.333  14.218  17.675  0.00  0.00    +0.000 C 
ATOM     19  N   UNL     1      11.537  13.496  18.666  0.00  0.00    +0.000 N 
ATOM     20  C   UNL     1      10.975  12.335  18.154  0.00  0.00    +0.000 C 
ATOM     21  O   UNL     1      11.616  11.545  17.458  0.00  0.00    +0.000 OA
ENDROOT
BRANCH   1  22
ATOM     22  C   UNL     1       7.159  15.078  18.637  0.00  0.00    +0.000 C 
ATOM     23  O   UNL     1       7.559  16.134  18.157  0.00  0.00    +0.000 OA
BRANCH  22  26
ATOM     24  C   UNL     1       3.689  14.675  20.057  0.00  0.00    +0.000 A 
ATOM     25  C   UNL     1       4.764  14.839  19.169  0.00  0.00    +0.000 A 
ATOM     26  C   UNL     1       6.063  15.062  19.633  0.00  0.00    +0.000 A 
ATOM     27  C   UNL     1       6.276  15.215  20.996  0.00  0.00    +0.000 A 
ATOM     28  C   UNL     1       5.206  15.126  21.898  0.00  0.00    +0.000 A 
ATOM     29  C   UNL     1       3.892  14.864  21.440  0.00  0.00    +0.000 A 
BRANCH  24  31
ATOM     30  C   UNL     1       1.844  15.352  18.727  0.00  0.00    +0.000 C 
ATOM     31  O   UNL     1       2.440  14.371  19.581  0.00  0.00    +0.000 OA
ENDBRANCH  24  31
BRANCH  28  32
ATOM     32  O   UNL     1       5.588  15.370  23.195  0.00  0.00    +0.000 OA
ATOM     33  C   UNL     1       6.921  15.832  23.387  0.00  0.00    +0.000 C 
ENDBRANCH  28  32
BRANCH  29  34
ATOM     34  O   UNL     1       2.930  14.854  22.412  0.00  0.00    +0.000 OA
ATOM     35  C   UNL     1       2.101  15.983  22.637  0.00  0.00    +0.000 C 
ENDBRANCH  29  34
ENDBRANCH  22  26
ENDBRANCH   1  22
TORSDOF 5
ENDMDL
MODEL 5
REMARK VINA RESULT:      -6.8      5.569     11.340
REMARK  Name = 
REMARK  8 active torsions:
REMARK  status: ('A' for Active; 'I' for Inactive)
REMARK    1  A    between atoms: C_1  and  O_2
REMARK    2  A    between atoms: O_2  and  C_3
REMARK    3  A    between atoms: C_5  and  C_6
REMARK    4  A    between atoms: C_6  and  C_8
REMARK    5  A    between atoms: C_30  and  O_31
REMARK    6  A    between atoms: O_31  and  C_32
REMARK    7  A    between atoms: C_33  and  O_34
REMARK    8  A    between atoms: O_34  and  C_35
REMARK                            x       y       z     vdW  Elec       q    Type
REMARK                         _______ _______ _______ _____ _____    ______ ____
ROOT
ATOM      1  C   UNL     1      -2.505  13.904  20.660  0.00  0.00    +0.000 C 
ATOM      2  O   UNL     1      -1.748  14.814  20.347  0.00  0.00    +0.000 OA
ATOM      3  N   UNL     1      -3.384  13.942  21.732  0.00  0.00    +0.000 N 
ATOM      4  C   UNL     1      -3.552  15.163  22.508  0.00  0.00    +0.000 C 
ATOM      5  C   UNL     1      -3.260  14.917  23.981  0.00  0.00    +0.000 C 
ATOM      6  C   UNL     1      -3.831  13.608  24.532  0.00  0.00    +0.000 C 
ATOM      7  C   UNL     1      -4.085  12.487  23.518  0.00  0.00    +0.000 C 
ATOM      8  C   UNL     1      -4.367  12.915  22.067  0.00  0.00    +0.000 C 
ATOM      9  C   UNL     1      -5.821  13.437  21.782  0.00  0.00    +0.000 C 
ATOM     10  C   UNL     1      -6.290  12.918  20.413  0.00  0.00    +0.000 A 
ATOM     11  C   UNL     1      -6.737  11.611  20.244  0.00  0.00    +0.000 A 
ATOM     12  F   UNL     1      -6.898  10.819  21.313  0.00  0.00    +0.000 F 
ATOM     13  C   UNL     1      -7.048  11.113  18.980  0.00  0.00    +0.000 A 
ATOM     14  C   UNL     1      -6.860  11.911  17.853  0.00  0.00    +0.000 A 
ATOM     15  C   UNL     1      -6.473  13.242  18.005  0.00  0.00    +0.000 A 
ATOM     16  C   UNL     1      -6.278  13.768  19.281  0.00  0.00    +0.000 A 
ATOM     17  C   UNL     1      -6.149  15.253  19.490  0.00  0.00    +0.000 C 
ATOM     18  C   UNL     1      -6.798  15.550  20.845  0.00  0.00    +0.000 C 
ATOM     19  N   UNL     1      -5.961  14.920  21.865  0.00  0.00    +0.000 N 
ATOM     20  C   UNL     1      -4.959  15.764  22.326  0.00  0.00    +0.000 C 
ATOM     21  O   UNL     1      -5.173  16.943  22.611  0.00  0.00    +0.000 OA
ENDROOT
BRANCH   1  22
ATOM     22  C   UNL     1      -2.454  12.623  19.840  0.00  0.00    +0.000 C 
ATOM     23  O   UNL     1      -3.276  12.454  18.945  0.00  0.00    +0.000 OA
BRANCH  22  26
ATOM     24  C   UNL     1       0.190  10.020  19.165  0.00  0.00    +0.000 A 
ATOM     25  C   UNL     1      -0.899  10.895  19.020  0.00  0.00    +0.000 A 
ATOM     26  C   UNL     1      -1.401  11.616  20.107  0.00  0.00    +0.000 A 
ATOM     27  C   UNL     1      -0.870  11.392  21.370  0.00  0.00    +0.000 A 
ATOM     28  C   UNL     1       0.171  10.470  21.550  0.00  0.00    +0.000 A 
ATOM     29  C   UNL     1       0.711   9.762  20.449  0.00  0.00    +0.000 A 
BRANCH  24  31
ATOM     30  C   UNL     1       2.061   9.755  17.731  0.00  0.00    +0.000 C 
ATOM     31  O   UNL     1       0.720   9.391  18.068  0.00  0.00    +0.000 OA
ENDBRANCH  24  31
BRANCH  28  32
ATOM     32  O   UNL     1       0.525  10.328  22.870  0.00  0.00    +0.000 OA
ATOM     33  C   UNL     1      -0.225   9.387  23.630  0.00  0.00    +0.000 C 
ENDBRANCH  28  32
BRANCH  29  34
ATOM     34  O   UNL     1       1.685   8.855  20.765  0.00  0.00    +0.000 OA
ATOM     35  C   UNL     1       1.405   7.466  20.819  0.00  0.00    +0.000 C 
ENDBRANCH  29  34
ENDBRANCH  22  26
ENDBRANCH   1  22
TORSDOF 5
ENDMDL
MODEL 6
REMARK VINA RESULT:      -6.8      6.190     11.680
REMARK  Name = 
REMARK  8 active torsions:
REMARK  status: ('A' for Active; 'I' for Inactive)
REMARK    1  A    between atoms: C_1  and  O_2
REMARK    2  A    between atoms: O_2  and  C_3
REMARK    3  A    between atoms: C_5  and  C_6
REMARK    4  A    between atoms: C_6  and  C_8
REMARK    5  A    between atoms: C_30  and  O_31
REMARK    6  A    between atoms: O_31  and  C_32
REMARK    7  A    between atoms: C_33  and  O_34
REMARK    8  A    between atoms: O_34  and  C_35
REMARK                            x       y       z     vdW  Elec       q    Type
REMARK                         _______ _______ _______ _____ _____    ______ ____
ROOT
ATOM      1  C   UNL     1      -3.485  12.594  23.030  0.00  0.00    +0.000 C 
ATOM      2  O   UNL     1      -3.567  11.814  23.970  0.00  0.00    +0.000 OA
ATOM      3  N   UNL     1      -4.570  13.183  22.397  0.00  0.00    +0.000 N 
ATOM      4  C   UNL     1      -5.920  12.993  22.911  0.00  0.00    +0.000 C 
ATOM      5  C   UNL     1      -6.830  12.400  21.845  0.00  0.00    +0.000 C 
ATOM      6  C   UNL     1      -6.649  13.001  20.449  0.00  0.00    +0.000 C 
ATOM      7  C   UNL     1      -5.288  13.639  20.145  0.00  0.00    +0.000 C 
ATOM      8  C   UNL     1      -4.498  14.193  21.343  0.00  0.00    +0.000 C 
ATOM      9  C   UNL     1      -4.976  15.586  21.889  0.00  0.00    +0.000 C 
ATOM     10  C   UNL     1      -3.751  16.430  22.273  0.00  0.00    +0.000 A 
ATOM     11  C   UNL     1      -2.984  17.081  21.310  0.00  0.00    +0.000 A 
ATOM     12  F   UNL     1      -3.390  17.094  20.033  0.00  0.00    +0.000 F 
ATOM     13  C   UNL     1      -1.809  17.747  21.654  0.00  0.00    +0.000 A 
ATOM     14  C   UNL     1      -1.354  17.720  22.971  0.00  0.00    +0.000 A 
ATOM     15  C   UNL     1      -2.137  17.128  23.961  0.00  0.00    +0.000 A 
ATOM     16  C   UNL     1      -3.370  16.567  23.629  0.00  0.00    +0.000 A 
ATOM     17  C   UNL     1      -4.357  16.188  24.701  0.00  0.00    +0.000 C 
ATOM     18  C   UNL     1      -5.745  16.453  24.114  0.00  0.00    +0.000 C 
ATOM     19  N   UNL     1      -5.938  15.495  23.026  0.00  0.00    +0.000 N 
ATOM     20  C   UNL     1      -6.510  14.307  23.459  0.00  0.00    +0.000 C 
ATOM     21  O   UNL     1      -7.470  14.282  24.230  0.00  0.00    +0.000 OA
ENDROOT
BRANCH   1  22
ATOM     22  C   UNL     1      -2.099  12.916  22.492  0.00  0.00    +0.000 C 
ATOM     23  O   UNL     1      -1.464  13.840  22.990  0.00  0.00    +0.000 OA
BRANCH  22  26
ATOM     24  C   UNL     1      -0.254  10.098  20.796  0.00  0.00    +0.000 A 
ATOM     25  C   UNL     1      -0.729  11.003  21.759  0.00  0.00    +0.000 A 
ATOM     26  C   UNL     1      -1.522  12.096  21.402  0.00  0.00    +0.000 A 
ATOM     27  C   UNL     1      -1.769  12.341  20.058  0.00  0.00    +0.000 A 
ATOM     28  C   UNL     1      -1.246  11.490  19.072  0.00  0.00    +0.000 A 
ATOM     29  C   UNL     1      -0.471  10.359  19.427  0.00  0.00    +0.000 A 
BRANCH  24  31
ATOM     30  C   UNL     1       1.300   9.151  22.317  0.00  0.00    +0.000 C 
ATOM     31  O   UNL     1       0.448   8.986  21.180  0.00  0.00    +0.000 OA
ENDBRANCH  24  31
BRANCH  28  32
ATOM     32  O   UNL     1      -1.532  11.921  17.800  0.00  0.00    +0.000 OA
ATOM     33  C   UNL     1      -2.734  11.428  17.217  0.00  0.00    +0.000 C 
ENDBRANCH  28  32
BRANCH  29  34
ATOM     34  O   UNL     1       0.023   9.641  18.373  0.00  0.00    +0.000 OA
ATOM     35  C   UNL     1       1.394   9.708  18.018  0.00  0.00    +0.000 C 
ENDBRANCH  29  34
ENDBRANCH  22  26
ENDBRANCH   1  22
TORSDOF 5
ENDMDL
MODEL 7
REMARK VINA RESULT:      -6.7      7.502     10.219
REMARK  Name = 
REMARK  8 active torsions:
REMARK  status: ('A' for Active; 'I' for Inactive)
REMARK    1  A    between atoms: C_1  and  O_2
REMARK    2  A    between atoms: O_2  and  C_3
REMARK    3  A    between atoms: C_5  and  C_6
REMARK    4  A    between atoms: C_6  and  C_8
REMARK    5  A    between atoms: C_30  and  O_31
REMARK    6  A    between atoms: O_31  and  C_32
REMARK    7  A    between atoms: C_33  and  O_34
REMARK    8  A    between atoms: O_34  and  C_35
REMARK                            x       y       z     vdW  Elec       q    Type
REMARK                         _______ _______ _______ _____ _____    ______ ____
ROOT
ATOM      1  C   UNL     1       7.742  13.686  18.001  0.00  0.00    +0.000 C 
ATOM      2  O   UNL     1       7.432  12.885  17.129  0.00  0.00    +0.000 OA
ATOM      3  N   UNL     1       8.570  13.402  19.076  0.00  0.00    +0.000 N 
ATOM      4  C   UNL     1       9.244  12.113  19.171  0.00  0.00    +0.000 C 
ATOM      5  C   UNL     1       8.894  11.410  20.475  0.00  0.00    +0.000 C 
ATOM      6  C   UNL     1       8.872  12.324  21.703  0.00  0.00    +0.000 C 
ATOM      7  C   UNL     1       8.621  13.815  21.448  0.00  0.00    +0.000 C 
ATOM      8  C   UNL     1       9.038  14.363  20.072  0.00  0.00    +0.000 C 
ATOM      9  C   UNL     1      10.573  14.639  19.886  0.00  0.00    +0.000 C 
ATOM     10  C   UNL     1      10.764  15.935  19.083  0.00  0.00    +0.000 A 
ATOM     11  C   UNL     1      10.621  17.187  19.674  0.00  0.00    +0.000 A 
ATOM     12  F   UNL     1      10.449  17.280  21.000  0.00  0.00    +0.000 F 
ATOM     13  C   UNL     1      10.679  18.355  18.916  0.00  0.00    +0.000 A 
ATOM     14  C   UNL     1      10.828  18.277  17.532  0.00  0.00    +0.000 A 
ATOM     15  C   UNL     1      11.035  17.039  16.927  0.00  0.00    +0.000 A 
ATOM     16  C   UNL     1      11.094  15.885  17.707  0.00  0.00    +0.000 A 
ATOM     17  C   UNL     1      11.601  14.590  17.130  0.00  0.00    +0.000 C 
ATOM     18  C   UNL     1      12.332  13.874  18.268  0.00  0.00    +0.000 C 
ATOM     19  N   UNL     1      11.321  13.510  19.260  0.00  0.00    +0.000 N 
ATOM     20  C   UNL     1      10.771  12.258  19.024  0.00  0.00    +0.000 C 
ATOM     21  O   UNL     1      11.462  11.280  18.734  0.00  0.00    +0.000 OA
ENDROOT
BRANCH   1  22
ATOM     22  C   UNL     1       7.150  15.086  17.923  0.00  0.00    +0.000 C 
ATOM     23  O   UNL     1       7.828  15.997  17.460  0.00  0.00    +0.000 OA
BRANCH  22  26
ATOM     24  C   UNL     1       4.221  16.803  19.565  0.00  0.00    +0.000 A 
ATOM     25  C   UNL     1       5.524  16.428  19.201  0.00  0.00    +0.000 A 
ATOM     26  C   UNL     1       5.760  15.326  18.375  0.00  0.00    +0.000 A 
ATOM     27  C   UNL     1       4.689  14.535  17.982  0.00  0.00    +0.000 A 
ATOM     28  C   UNL     1       3.385  14.849  18.391  0.00  0.00    +0.000 A 
ATOM     29  C   UNL     1       3.132  15.985  19.198  0.00  0.00    +0.000 A 
BRANCH  24  31
ATOM     30  C   UNL     1       4.091  17.779  21.723  0.00  0.00    +0.000 C 
ATOM     31  O   UNL     1       4.010  17.937  20.304  0.00  0.00    +0.000 OA
ENDBRANCH  24  31
BRANCH  28  32
ATOM     32  O   UNL     1       2.463  13.924  17.966  0.00  0.00    +0.000 OA
ATOM     33  C   UNL     1       2.838  12.555  18.081  0.00  0.00    +0.000 C 
ENDBRANCH  28  32
BRANCH  29  34
ATOM     34  O   UNL     1       1.827  16.152  19.572  0.00  0.00    +0.000 OA
ATOM     35  C   UNL     1       0.930  16.918  18.784  0.00  0.00    +0.000 C 
ENDBRANCH  29  34
ENDBRANCH  22  26
ENDBRANCH   1  22
TORSDOF 5
ENDMDL
MODEL 8
REMARK VINA RESULT:      -6.7      8.029     10.568
REMARK  Name = 
REMARK  8 active torsions:
REMARK  status: ('A' for Active; 'I' for Inactive)
REMARK    1  A    between atoms: C_1  and  O_2
REMARK    2  A    between atoms: O_2  and  C_3
REMARK    3  A    between atoms: C_5  and  C_6
REMARK    4  A    between atoms: C_6  and  C_8
REMARK    5  A    between atoms: C_30  and  O_31
REMARK    6  A    between atoms: O_31  and  C_32
REMARK    7  A    between atoms: C_33  and  O_34
REMARK    8  A    between atoms: O_34  and  C_35
REMARK                            x       y       z     vdW  Elec       q    Type
REMARK                         _______ _______ _______ _____ _____    ______ ____
ROOT
ATOM      1  C   UNL     1       8.855  15.306  21.485  0.00  0.00    +0.000 C 
ATOM      2  O   UNL     1       9.393  15.736  22.498  0.00  0.00    +0.000 OA
ATOM      3  N   UNL     1       9.071  15.800  20.207  0.00  0.00    +0.000 N 
ATOM      4  C   UNL     1      10.082  16.822  19.969  0.00  0.00    +0.000 C 
ATOM      5  C   UNL     1       9.469  18.052  19.314  0.00  0.00    +0.000 C 
ATOM      6  C   UNL     1       8.456  17.744  18.209  0.00  0.00    +0.000 C 
ATOM      7  C   UNL     1       7.759  16.380  18.273  0.00  0.00    +0.000 C 
ATOM      8  C   UNL     1       8.524  15.243  18.972  0.00  0.00    +0.000 C 
ATOM      9  C   UNL     1       9.662  14.566  18.127  0.00  0.00    +0.000 C 
ATOM     10  C   UNL     1       9.654  13.051  18.381  0.00  0.00    +0.000 A 
ATOM     11  C   UNL     1       8.721  12.215  17.774  0.00  0.00    +0.000 A 
ATOM     12  F   UNL     1       7.894  12.708  16.841  0.00  0.00    +0.000 F 
ATOM     13  C   UNL     1       8.645  10.862  18.099  0.00  0.00    +0.000 A 
ATOM     14  C   UNL     1       9.476  10.338  19.087  0.00  0.00    +0.000 A 
ATOM     15  C   UNL     1      10.459  11.141  19.663  0.00  0.00    +0.000 A 
ATOM     16  C   UNL     1      10.607  12.464  19.247  0.00  0.00    +0.000 A 
ATOM     17  C   UNL     1      11.827  13.259  19.629  0.00  0.00    +0.000 C 
ATOM     18  C   UNL     1      12.121  14.182  18.444  0.00  0.00    +0.000 C 
ATOM     19  N   UNL     1      11.018  15.140  18.367  0.00  0.00    +0.000 N 
ATOM     20  C   UNL     1      11.250  16.280  19.124  0.00  0.00    +0.000 C 
ATOM     21  O   UNL     1      12.333  16.868  19.112  0.00  0.00    +0.000 OA
ENDROOT
BRANCH   1  22
ATOM     22  C   UNL     1       7.850  14.173  21.639  0.00  0.00    +0.000 C 
ATOM     23  O   UNL     1       8.242  13.013  21.565  0.00  0.00    +0.000 OA
BRANCH  22  26
ATOM     24  C   UNL     1       4.761  15.204  23.540  0.00  0.00    +0.000 A 
ATOM     25  C   UNL     1       6.059  14.773  23.222  0.00  0.00    +0.000 A 
ATOM     26  C   UNL     1       6.426  14.481  21.906  0.00  0.00    +0.000 A 
ATOM     27  C   UNL     1       5.462  14.532  20.909  0.00  0.00    +0.000 A 
ATOM     28  C   UNL     1       4.142  14.892  21.214  0.00  0.00    +0.000 A 
ATOM     29  C   UNL     1       3.769  15.224  22.539  0.00  0.00    +0.000 A 
BRANCH  24  31
ATOM     30  C   UNL     1       4.982  16.821  25.262  0.00  0.00    +0.000 C 
ATOM     31  O   UNL     1       4.450  15.567  24.824  0.00  0.00    +0.000 OA
ENDBRANCH  24  31
BRANCH  28  32
ATOM     32  O   UNL     1       3.312  14.824  20.121  0.00  0.00    +0.000 OA
ATOM     33  C   UNL     1       3.328  15.943  19.241  0.00  0.00    +0.000 C 
ENDBRANCH  28  32
BRANCH  29  34
ATOM     34  O   UNL     1       2.441  15.506  22.714  0.00  0.00    +0.000 OA
ATOM     35  C   UNL     1       1.968  16.843  22.704  0.00  0.00    +0.000 C 
ENDBRANCH  29  34
ENDBRANCH  22  26
ENDBRANCH   1  22
TORSDOF 5
ENDMDL
MODEL 9
REMARK VINA RESULT:      -6.7      6.252     11.851
REMARK  Name = 
REMARK  8 active torsions:
REMARK  status: ('A' for Active; 'I' for Inactive)
REMARK    1  A    between atoms: C_1  and  O_2
REMARK    2  A    between atoms: O_2  and  C_3
REMARK    3  A    between atoms: C_5  and  C_6
REMARK    4  A    between atoms: C_6  and  C_8
REMARK    5  A    between atoms: C_30  and  O_31
REMARK    6  A    between atoms: O_31  and  C_32
REMARK    7  A    between atoms: C_33  and  O_34
REMARK    8  A    between atoms: O_34  and  C_35
REMARK                            x       y       z     vdW  Elec       q    Type
REMARK                         _______ _______ _______ _____ _____    ______ ____
ROOT
ATOM      1  C   UNL     1      -3.588  12.597  23.160  0.00  0.00    +0.000 C 
ATOM      2  O   UNL     1      -3.695  11.837  24.114  0.00  0.00    +0.000 OA
ATOM      3  N   UNL     1      -4.653  13.193  22.502  0.00  0.00    +0.000 N 
ATOM      4  C   UNL     1      -6.012  13.039  23.004  0.00  0.00    +0.000 C 
ATOM      5  C   UNL     1      -6.921  12.442  21.939  0.00  0.00    +0.000 C 
ATOM      6  C   UNL     1      -6.713  13.012  20.534  0.00  0.00    +0.000 C 
ATOM      7  C   UNL     1      -5.337  13.619  20.233  0.00  0.00    +0.000 C 
ATOM      8  C   UNL     1      -4.551  14.181  21.431  0.00  0.00    +0.000 C 
ATOM      9  C   UNL     1      -5.008  15.594  21.944  0.00  0.00    +0.000 C 
ATOM     10  C   UNL     1      -3.772  16.422  22.326  0.00  0.00    +0.000 A 
ATOM     11  C   UNL     1      -2.982  17.040  21.361  0.00  0.00    +0.000 A 
ATOM     12  F   UNL     1      -3.373  17.036  20.079  0.00  0.00    +0.000 F 
ATOM     13  C   UNL     1      -1.798  17.690  21.705  0.00  0.00    +0.000 A 
ATOM     14  C   UNL     1      -1.360  17.680  23.028  0.00  0.00    +0.000 A 
ATOM     15  C   UNL     1      -2.165  17.122  24.019  0.00  0.00    +0.000 A 
ATOM     16  C   UNL     1      -3.404  16.578  23.684  0.00  0.00    +0.000 A 
ATOM     17  C   UNL     1      -4.410  16.238  24.751  0.00  0.00    +0.000 C 
ATOM     18  C   UNL     1      -5.787  16.518  24.143  0.00  0.00    +0.000 C 
ATOM     19  N   UNL     1      -5.985  15.543  23.071  0.00  0.00    +0.000 N 
ATOM     20  C   UNL     1      -6.584  14.374  23.519  0.00  0.00    +0.000 C 
ATOM     21  O   UNL     1      -7.554  14.382  24.280  0.00  0.00    +0.000 OA
ENDROOT
BRANCH   1  22
ATOM     22  C   UNL     1      -2.189  12.882  22.631  0.00  0.00    +0.000 C 
ATOM     23  O   UNL     1      -1.556  13.825  23.096  0.00  0.00    +0.000 OA
BRANCH  22  26
ATOM     24  C   UNL     1      -1.242  11.616  19.208  0.00  0.00    +0.000 A 
ATOM     25  C   UNL     1      -1.867  12.312  20.255  0.00  0.00    +0.000 A 
ATOM     26  C   UNL     1      -1.600  12.007  21.593  0.00  0.00    +0.000 A 
ATOM     27  C   UNL     1      -0.770  10.934  21.888  0.00  0.00    +0.000 A 
ATOM     28  C   UNL     1      -0.190  10.179  20.858  0.00  0.00    +0.000 A 
ATOM     29  C   UNL     1      -0.426  10.504  19.500  0.00  0.00    +0.000 A 
BRANCH  24  31
ATOM     30  C   UNL     1      -2.631  11.463  17.291  0.00  0.00    +0.000 C 
ATOM     31  O   UNL     1      -1.453  11.991  17.907  0.00  0.00    +0.000 OA
ENDBRANCH  24  31
BRANCH  28  32
ATOM     32  O   UNL     1       0.544   9.119  21.332  0.00  0.00    +0.000 OA
ATOM     33  C   UNL     1       1.097   9.263  22.636  0.00  0.00    +0.000 C 
ENDBRANCH  28  32
BRANCH  29  34
ATOM     34  O   UNL     1       0.155   9.660  18.593  0.00  0.00    +0.000 OA
ATOM     35  C   UNL     1       1.471   9.889  18.115  0.00  0.00    +0.000 C 
ENDBRANCH  29  34
ENDBRANCH  22  26
ENDBRANCH   1  22
TORSDOF 5
ENDMDL
