MODEL 1
REMARK VINA RESULT:      -7.0      0.000      0.000
REMARK  Name = 
REMARK  11 active torsions:
REMARK  status: ('A' for Active; 'I' for Inactive)
REMARK    1  A    between atoms: C_1  and  C_2
REMARK    2  A    between atoms: C_2  and  N_3
REMARK    3  A    between atoms: C_8  and  C_9
REMARK    4  A    between atoms: N_11  and  C_12
REMARK    5  A    between atoms: N_11  and  C_22
REMARK    6  A    between atoms: C_12  and  C_13
REMARK    7  A    between atoms: C_16  and  N_17
REMARK    8  A    between atoms: N_17  and  C_18
REMARK    9  A    between atoms: N_17  and  C_19
REMARK   10  A    between atoms: C_22  and  C_23
REMARK   11  A    between atoms: C_28  and  C_29
REMARK                            x       y       z     vdW  Elec       q    Type
REMARK                         _______ _______ _______ _____ _____    ______ ____
ROOT
ATOM      1  C   UNL     1       0.609  11.265  20.411  0.00  0.00    +0.000 C 
ATOM      2  O   UNL     1       0.878  11.422  21.609  0.00  0.00    +0.000 OA
ATOM      3  N   UNL     1      -0.040  12.316  19.735  0.00  0.00    +0.000 N 
ENDROOT
BRANCH   1   9
ATOM      4  N   UNL     1       3.106   5.890  18.835  0.00  0.00    +0.000 N 
ATOM      5  C   UNL     1       3.564   6.646  17.771  0.00  0.00    +0.000 A 
ATOM      6  N   UNL     1       3.222   7.867  17.512  0.00  0.00    +0.000 NA
ATOM      7  C   UNL     1       2.372   8.409  18.414  0.00  0.00    +0.000 A 
ATOM      8  S   UNL     1       1.898  10.019  18.283  0.00  0.00    +0.000 S 
ATOM      9  C   UNL     1       1.031  10.009  19.756  0.00  0.00    +0.000 A 
ATOM     10  C   UNL     1       1.012   8.716  20.298  0.00  0.00    +0.000 A 
ATOM     11  C   UNL     1       0.323   8.310  21.567  0.00  0.00    +0.000 C 
ATOM     12  C   UNL     1       1.835   7.806  19.527  0.00  0.00    +0.000 A 
ATOM     13  C   UNL     1       2.209   6.412  19.773  0.00  0.00    +0.000 A 
ATOM     14  O   UNL     1       1.782   5.772  20.731  0.00  0.00    +0.000 OA
BRANCH   4  16
ATOM     15  C   UNL     1       2.935   3.577  17.983  0.00  0.00    +0.000 C 
ATOM     16  C   UNL     1       3.595   4.527  18.973  0.00  0.00    +0.000 C 
ENDBRANCH   4  16
ENDBRANCH   1   9
BRANCH   3  17
ATOM     17  C   UNL     1      -0.664  12.263  18.410  0.00  0.00    +0.000 C 
BRANCH  17  18
ATOM     18  C   UNL     1      -2.143  11.910  18.389  0.00  0.00    +0.000 A 
ATOM     19  C   UNL     1      -3.026  12.203  19.433  0.00  0.00    +0.000 A 
ATOM     20  C   UNL     1      -4.413  12.058  19.266  0.00  0.00    +0.000 A 
ATOM     21  C   UNL     1      -4.982  11.594  18.069  0.00  0.00    +0.000 A 
ATOM     22  C   UNL     1      -4.078  11.194  17.076  0.00  0.00    +0.000 A 
ATOM     23  C   UNL     1      -2.688  11.353  17.225  0.00  0.00    +0.000 A 
BRANCH  21  24
ATOM     24  N   UNL     1      -6.364  11.529  17.909  0.00  0.00    +0.000 N 
ATOM     25  C   UNL     1      -7.103  10.497  18.640  0.00  0.00    +0.000 C 
ATOM     26  C   UNL     1      -7.140  12.702  17.527  0.00  0.00    +0.000 C 
ENDBRANCH  21  24
ENDBRANCH  17  18
ENDBRANCH   3  17
BRANCH   3  27
ATOM     27  C   UNL     1      -0.215  13.573  20.469  0.00  0.00    +0.000 C 
BRANCH  27  28
ATOM     28  C   UNL     1       0.255  14.745  19.677  0.00  0.00    +0.000 A 
ATOM     29  C   UNL     1      -0.383  15.861  19.170  0.00  0.00    +0.000 A 
ATOM     30  C   UNL     1       0.621  16.666  18.582  0.00  0.00    +0.000 A 
ATOM     31  C   UNL     1       1.805  15.992  18.758  0.00  0.00    +0.000 A 
ATOM     32  O   UNL     1       1.595  14.823  19.418  0.00  0.00    +0.000 OA
ENDBRANCH  27  28
ENDBRANCH   3  27
TORSDOF 7
ENDMDL
MODEL 2
REMARK VINA RESULT:      -7.0      0.786      1.172
REMARK  Name = 
REMARK  11 active torsions:
REMARK  status: ('A' for Active; 'I' for Inactive)
REMARK    1  A    between atoms: C_1  and  C_2
REMARK    2  A    between atoms: C_2  and  N_3
REMARK    3  A    between atoms: C_8  and  C_9
REMARK    4  A    between atoms: N_11  and  C_12
REMARK    5  A    between atoms: N_11  and  C_22
REMARK    6  A    between atoms: C_12  and  C_13
REMARK    7  A    between atoms: C_16  and  N_17
REMARK    8  A    between atoms: N_17  and  C_18
REMARK    9  A    between atoms: N_17  and  C_19
REMARK   10  A    between atoms: C_22  and  C_23
REMARK   11  A    between atoms: C_28  and  C_29
REMARK                            x       y       z     vdW  Elec       q    Type
REMARK                         _______ _______ _______ _____ _____    ______ ____
ROOT
ATOM      1  C   UNL     1       0.835  11.505  20.164  0.00  0.00    +0.000 C 
ATOM      2  O   UNL     1       1.356  11.842  21.234  0.00  0.00    +0.000 OA
ATOM      3  N   UNL     1      -0.008  12.430  19.518  0.00  0.00    +0.000 N 
ENDROOT
BRANCH   1   9
ATOM      4  N   UNL     1       2.989   5.884  18.990  0.00  0.00    +0.000 N 
ATOM      5  C   UNL     1       3.459   6.523  17.857  0.00  0.00    +0.000 A 
ATOM      6  N   UNL     1       3.179   7.735  17.503  0.00  0.00    +0.000 NA
ATOM      7  C   UNL     1       2.384   8.397  18.375  0.00  0.00    +0.000 A 
ATOM      8  S   UNL     1       1.996  10.016  18.119  0.00  0.00    +0.000 S 
ATOM      9  C   UNL     1       1.169  10.177  19.607  0.00  0.00    +0.000 A 
ATOM     10  C   UNL     1       1.094   8.936  20.256  0.00  0.00    +0.000 A 
ATOM     11  C   UNL     1       0.418   8.677  21.569  0.00  0.00    +0.000 C 
ATOM     12  C   UNL     1       1.845   7.920  19.546  0.00  0.00    +0.000 A 
ATOM     13  C   UNL     1       2.148   6.532  19.900  0.00  0.00    +0.000 A 
ATOM     14  O   UNL     1       1.712   5.999  20.918  0.00  0.00    +0.000 OA
BRANCH   4  16
ATOM     15  C   UNL     1       4.911   4.335  19.096  0.00  0.00    +0.000 C 
ATOM     16  C   UNL     1       3.405   4.511  19.231  0.00  0.00    +0.000 C 
ENDBRANCH   4  16
ENDBRANCH   1   9
BRANCH   3  17
ATOM     17  C   UNL     1      -0.909  12.168  18.392  0.00  0.00    +0.000 C 
BRANCH  17  18
ATOM     18  C   UNL     1      -2.376  11.980  18.748  0.00  0.00    +0.000 A 
ATOM     19  C   UNL     1      -2.970  12.512  19.897  0.00  0.00    +0.000 A 
ATOM     20  C   UNL     1      -4.365  12.497  20.059  0.00  0.00    +0.000 A 
ATOM     21  C   UNL     1      -5.227  11.933  19.105  0.00  0.00    +0.000 A 
ATOM     22  C   UNL     1      -4.608  11.300  18.019  0.00  0.00    +0.000 A 
ATOM     23  C   UNL     1      -3.214  11.326  17.836  0.00  0.00    +0.000 A 
BRANCH  21  24
ATOM     24  N   UNL     1      -6.610  11.997  19.261  0.00  0.00    +0.000 N 
ATOM     25  C   UNL     1      -7.395  12.687  18.236  0.00  0.00    +0.000 C 
ATOM     26  C   UNL     1      -7.333  10.997  20.036  0.00  0.00    +0.000 C 
ENDBRANCH  21  24
ENDBRANCH  17  18
ENDBRANCH   3  17
BRANCH   3  27
ATOM     27  C   UNL     1      -0.084  13.776  20.093  0.00  0.00    +0.000 C 
BRANCH  27  28
ATOM     28  C   UNL     1       0.820  14.730  19.389  0.00  0.00    +0.000 A 
ATOM     29  C   UNL     1       2.060  14.594  18.795  0.00  0.00    +0.000 A 
ATOM     30  C   UNL     1       2.365  15.846  18.211  0.00  0.00    +0.000 A 
ATOM     31  C   UNL     1       1.301  16.669  18.489  0.00  0.00    +0.000 A 
ATOM     32  O   UNL     1       0.358  16.004  19.207  0.00  0.00    +0.000 OA
ENDBRANCH  27  28
ENDBRANCH   3  27
TORSDOF 7
ENDMDL
MODEL 3
REMARK VINA RESULT:      -6.9      2.539      7.830
REMARK  Name = 
REMARK  11 active torsions:
REMARK  status: ('A' for Active; 'I' for Inactive)
REMARK    1  A    between atoms: C_1  and  C_2
REMARK    2  A    between atoms: C_2  and  N_3
REMARK    3  A    between atoms: C_8  and  C_9
REMARK    4  A    between atoms: N_11  and  C_12
REMARK    5  A    between atoms: N_11  and  C_22
REMARK    6  A    between atoms: C_12  and  C_13
REMARK    7  A    between atoms: C_16  and  N_17
REMARK    8  A    between atoms: N_17  and  C_18
REMARK    9  A    between atoms: N_17  and  C_19
REMARK   10  A    between atoms: C_22  and  C_23
REMARK   11  A    between atoms: C_28  and  C_29
REMARK                            x       y       z     vdW  Elec       q    Type
REMARK                         _______ _______ _______ _____ _____    ______ ____
ROOT
ATOM      1  C   UNL     1      -0.655  11.911  19.944  0.00  0.00    +0.000 C 
ATOM      2  O   UNL     1      -1.665  11.973  20.656  0.00  0.00    +0.000 OA
ATOM      3  N   UNL     1      -0.598  10.905  18.961  0.00  0.00    +0.000 N 
ENDROOT
BRANCH   1   9
ATOM      4  N   UNL     1       3.962  15.912  19.403  0.00  0.00    +0.000 N 
ATOM      5  C   UNL     1       4.511  15.098  20.377  0.00  0.00    +0.000 A 
ATOM      6  N   UNL     1       3.900  14.134  20.987  0.00  0.00    +0.000 NA
ATOM      7  C   UNL     1       2.631  13.929  20.568  0.00  0.00    +0.000 A 
ATOM      8  S   UNL     1       1.721  12.654  21.188  0.00  0.00    +0.000 S 
ATOM      9  C   UNL     1       0.401  12.927  20.136  0.00  0.00    +0.000 A 
ATOM     10  C   UNL     1       0.619  14.085  19.376  0.00  0.00    +0.000 A 
ATOM     11  C   UNL     1      -0.331  14.660  18.367  0.00  0.00    +0.000 C 
ATOM     12  C   UNL     1       1.941  14.631  19.608  0.00  0.00    +0.000 A 
ATOM     13  C   UNL     1       2.645  15.741  18.963  0.00  0.00    +0.000 A 
ATOM     14  O   UNL     1       2.123  16.442  18.099  0.00  0.00    +0.000 OA
BRANCH   4  16
ATOM     15  C   UNL     1       6.279  16.629  18.931  0.00  0.00    +0.000 C 
ATOM     16  C   UNL     1       4.796  16.953  18.823  0.00  0.00    +0.000 C 
ENDBRANCH   4  16
ENDBRANCH   1   9
BRANCH   3  17
ATOM     17  C   UNL     1       0.574  10.493  18.184  0.00  0.00    +0.000 C 
BRANCH  17  18
ATOM     18  C   UNL     1       1.336   9.292  18.721  0.00  0.00    +0.000 A 
ATOM     19  C   UNL     1       1.295   8.882  20.058  0.00  0.00    +0.000 A 
ATOM     20  C   UNL     1       1.833   7.645  20.448  0.00  0.00    +0.000 A 
ATOM     21  C   UNL     1       2.456   6.775  19.539  0.00  0.00    +0.000 A 
ATOM     22  C   UNL     1       2.593   7.253  18.229  0.00  0.00    +0.000 A 
ATOM     23  C   UNL     1       2.040   8.481  17.823  0.00  0.00    +0.000 A 
BRANCH  21  24
ATOM     24  N   UNL     1       2.917   5.524  19.943  0.00  0.00    +0.000 N 
ATOM     25  C   UNL     1       1.940   4.539  20.413  0.00  0.00    +0.000 C 
ATOM     26  C   UNL     1       4.163   4.971  19.428  0.00  0.00    +0.000 C 
ENDBRANCH  21  24
ENDBRANCH  17  18
ENDBRANCH   3  17
BRANCH   3  27
ATOM     27  C   UNL     1      -1.807  10.099  18.761  0.00  0.00    +0.000 C 
BRANCH  27  28
ATOM     28  C   UNL     1      -2.529  10.486  17.516  0.00  0.00    +0.000 A 
ATOM     29  C   UNL     1      -2.428  10.080  16.199  0.00  0.00    +0.000 A 
ATOM     30  C   UNL     1      -3.454  10.748  15.492  0.00  0.00    +0.000 A 
ATOM     31  C   UNL     1      -4.113  11.525  16.414  0.00  0.00    +0.000 A 
ATOM     32  O   UNL     1      -3.558  11.376  17.646  0.00  0.00    +0.000 OA
ENDBRANCH  27  28
ENDBRANCH   3  27
TORSDOF 7
ENDMDL
MODEL 4
REMARK VINA RESULT:      -6.9      2.887      5.118
REMARK  Name = 
REMARK  11 active torsions:
REMARK  status: ('A' for Active; 'I' for Inactive)
REMARK    1  A    between atoms: C_1  and  C_2
REMARK    2  A    between atoms: C_2  and  N_3
REMARK    3  A    between atoms: C_8  and  C_9
REMARK    4  A    between atoms: N_11  and  C_12
REMARK    5  A    between atoms: N_11  and  C_22
REMARK    6  A    between atoms: C_12  and  C_13
REMARK    7  A    between atoms: C_16  and  N_17
REMARK    8  A    between atoms: N_17  and  C_18
REMARK    9  A    between atoms: N_17  and  C_19
REMARK   10  A    between atoms: C_22  and  C_23
REMARK   11  A    between atoms: C_28  and  C_29
REMARK                            x       y       z     vdW  Elec       q    Type
REMARK                         _______ _______ _______ _____ _____    ______ ____
ROOT
ATOM      1  C   UNL     1       1.502   9.271  18.608  0.00  0.00    +0.000 C 
ATOM      2  O   UNL     1       1.894   9.650  17.497  0.00  0.00    +0.000 OA
ATOM      3  N   UNL     1       0.504  10.029  19.251  0.00  0.00    +0.000 N 
ENDROOT
BRANCH   1   9
ATOM      4  N   UNL     1       3.462   3.564  19.704  0.00  0.00    +0.000 N 
ATOM      5  C   UNL     1       2.572   3.680  20.758  0.00  0.00    +0.000 A 
ATOM      6  N   UNL     1       1.948   4.759  21.103  0.00  0.00    +0.000 NA
ATOM      7  C   UNL     1       2.199   5.824  20.306  0.00  0.00    +0.000 A 
ATOM      8  S   UNL     1       1.398   7.284  20.554  0.00  0.00    +0.000 S 
ATOM      9  C   UNL     1       2.065   8.023  19.164  0.00  0.00    +0.000 A 
ATOM     10  C   UNL     1       3.004   7.171  18.566  0.00  0.00    +0.000 A 
ATOM     11  C   UNL     1       3.818   7.485  17.345  0.00  0.00    +0.000 C 
ATOM     12  C   UNL     1       3.037   5.877  19.218  0.00  0.00    +0.000 A 
ATOM     13  C   UNL     1       3.760   4.651  18.875  0.00  0.00    +0.000 A 
ATOM     14  O   UNL     1       4.541   4.586  17.929  0.00  0.00    +0.000 OA
BRANCH   4  16
ATOM     15  C   UNL     1       3.346   1.479  18.385  0.00  0.00    +0.000 C 
ATOM     16  C   UNL     1       4.077   2.269  19.460  0.00  0.00    +0.000 C 
ENDBRANCH   4  16
ENDBRANCH   1   9
BRANCH   3  17
ATOM     17  C   UNL     1       0.069   9.916  20.646  0.00  0.00    +0.000 C 
BRANCH  17  18
ATOM     18  C   UNL     1      -0.044  11.225  21.412  0.00  0.00    +0.000 A 
ATOM     19  C   UNL     1       0.680  12.377  21.091  0.00  0.00    +0.000 A 
ATOM     20  C   UNL     1       0.371  13.611  21.685  0.00  0.00    +0.000 A 
ATOM     21  C   UNL     1      -0.648  13.752  22.641  0.00  0.00    +0.000 A 
ATOM     22  C   UNL     1      -1.284  12.567  23.036  0.00  0.00    +0.000 A 
ATOM     23  C   UNL     1      -0.997  11.329  22.433  0.00  0.00    +0.000 A 
BRANCH  21  24
ATOM     24  N   UNL     1      -0.979  15.001  23.160  0.00  0.00    +0.000 N 
ATOM     25  C   UNL     1      -1.160  16.117  22.229  0.00  0.00    +0.000 C 
ATOM     26  C   UNL     1      -1.666  15.135  24.438  0.00  0.00    +0.000 C 
ENDBRANCH  21  24
ENDBRANCH  17  18
ENDBRANCH   3  17
BRANCH   3  27
ATOM     27  C   UNL     1      -0.095  11.127  18.487  0.00  0.00    +0.000 C 
BRANCH  27  28
ATOM     28  C   UNL     1      -1.459  10.778  17.995  0.00  0.00    +0.000 A 
ATOM     29  C   UNL     1      -1.931   9.825  17.113  0.00  0.00    +0.000 A 
ATOM     30  C   UNL     1      -3.342   9.929  17.125  0.00  0.00    +0.000 A 
ATOM     31  C   UNL     1      -3.644  10.940  18.004  0.00  0.00    +0.000 A 
ATOM     32  O   UNL     1      -2.509  11.466  18.536  0.00  0.00    +0.000 OA
ENDBRANCH  27  28
ENDBRANCH   3  27
TORSDOF 7
ENDMDL
MODEL 5
REMARK VINA RESULT:      -6.9      1.828      2.651
REMARK  Name = 
REMARK  11 active torsions:
REMARK  status: ('A' for Active; 'I' for Inactive)
REMARK    1  A    between atoms: C_1  and  C_2
REMARK    2  A    between atoms: C_2  and  N_3
REMARK    3  A    between atoms: C_8  and  C_9
REMARK    4  A    between atoms: N_11  and  C_12
REMARK    5  A    between atoms: N_11  and  C_22
REMARK    6  A    between atoms: C_12  and  C_13
REMARK    7  A    between atoms: C_16  and  N_17
REMARK    8  A    between atoms: N_17  and  C_18
REMARK    9  A    between atoms: N_17  and  C_19
REMARK   10  A    between atoms: C_22  and  C_23
REMARK   11  A    between atoms: C_28  and  C_29
REMARK                            x       y       z     vdW  Elec       q    Type
REMARK                         _______ _______ _______ _____ _____    ______ ____
ROOT
ATOM      1  C   UNL     1       1.028   8.779  20.277  0.00  0.00    +0.000 C 
ATOM      2  O   UNL     1       0.972   8.423  21.461  0.00  0.00    +0.000 OA
ATOM      3  N   UNL     1       0.372   9.970  19.912  0.00  0.00    +0.000 N 
ENDROOT
BRANCH   1   9
ATOM      4  N   UNL     1       5.159   5.237  17.448  0.00  0.00    +0.000 N 
ATOM      5  C   UNL     1       5.232   6.339  16.616  0.00  0.00    +0.000 A 
ATOM      6  N   UNL     1       4.457   7.374  16.665  0.00  0.00    +0.000 NA
ATOM      7  C   UNL     1       3.540   7.334  17.658  0.00  0.00    +0.000 A 
ATOM      8  S   UNL     1       2.512   8.640  17.927  0.00  0.00    +0.000 S 
ATOM      9  C   UNL     1       1.821   7.961  19.335  0.00  0.00    +0.000 A 
ATOM     10  C   UNL     1       2.309   6.662  19.535  0.00  0.00    +0.000 A 
ATOM     11  C   UNL     1       1.910   5.740  20.650  0.00  0.00    +0.000 C 
ATOM     12  C   UNL     1       3.342   6.329  18.575  0.00  0.00    +0.000 A 
ATOM     13  C   UNL     1       4.208   5.153  18.471  0.00  0.00    +0.000 A 
ATOM     14  O   UNL     1       4.114   4.192  19.231  0.00  0.00    +0.000 OA
BRANCH   4  16
ATOM     15  C   UNL     1       7.545   4.599  17.514  0.00  0.00    +0.000 C 
ATOM     16  C   UNL     1       6.113   4.157  17.248  0.00  0.00    +0.000 C 
ENDBRANCH   4  16
ENDBRANCH   1   9
BRANCH   3  17
ATOM     17  C   UNL     1       0.101  10.449  18.554  0.00  0.00    +0.000 C 
BRANCH  17  18
ATOM     18  C   UNL     1      -1.366  10.650  18.204  0.00  0.00    +0.000 A 
ATOM     19  C   UNL     1      -2.166   9.664  17.617  0.00  0.00    +0.000 A 
ATOM     20  C   UNL     1      -3.558   9.828  17.525  0.00  0.00    +0.000 A 
ATOM     21  C   UNL     1      -4.212  10.983  17.984  0.00  0.00    +0.000 A 
ATOM     22  C   UNL     1      -3.383  12.007  18.460  0.00  0.00    +0.000 A 
ATOM     23  C   UNL     1      -1.991  11.847  18.576  0.00  0.00    +0.000 A 
BRANCH  21  24
ATOM     24  N   UNL     1      -5.601  11.085  17.943  0.00  0.00    +0.000 N 
ATOM     25  C   UNL     1      -6.386  10.314  18.909  0.00  0.00    +0.000 C 
ATOM     26  C   UNL     1      -6.259  12.269  17.406  0.00  0.00    +0.000 C 
ENDBRANCH  21  24
ENDBRANCH  17  18
ENDBRANCH   3  17
BRANCH   3  27
ATOM     27  C   UNL     1      -0.204  10.772  20.995  0.00  0.00    +0.000 C 
BRANCH  27  28
ATOM     28  C   UNL     1       0.476  12.093  21.127  0.00  0.00    +0.000 A 
ATOM     29  C   UNL     1       1.672  12.592  20.647  0.00  0.00    +0.000 A 
ATOM     30  C   UNL     1       1.724  13.952  21.035  0.00  0.00    +0.000 A 
ATOM     31  C   UNL     1       0.566  14.197  21.732  0.00  0.00    +0.000 A 
ATOM     32  O   UNL     1      -0.198  13.075  21.797  0.00  0.00    +0.000 OA
ENDBRANCH  27  28
ENDBRANCH   3  27
TORSDOF 7
ENDMDL
MODEL 6
REMARK VINA RESULT:      -6.8      2.974      4.899
REMARK  Name = 
REMARK  11 active torsions:
REMARK  status: ('A' for Active; 'I' for Inactive)
REMARK    1  A    between atoms: C_1  and  C_2
REMARK    2  A    between atoms: C_2  and  N_3
REMARK    3  A    between atoms: C_8  and  C_9
REMARK    4  A    between atoms: N_11  and  C_12
REMARK    5  A    between atoms: N_11  and  C_22
REMARK    6  A    between atoms: C_12  and  C_13
REMARK    7  A    between atoms: C_16  and  N_17
REMARK    8  A    between atoms: N_17  and  C_18
REMARK    9  A    between atoms: N_17  and  C_19
REMARK   10  A    between atoms: C_22  and  C_23
REMARK   11  A    between atoms: C_28  and  C_29
REMARK                            x       y       z     vdW  Elec       q    Type
REMARK                         _______ _______ _______ _____ _____    ______ ____
ROOT
ATOM      1  C   UNL     1       1.571   9.225  18.627  0.00  0.00    +0.000 C 
ATOM      2  O   UNL     1       1.612   9.388  17.401  0.00  0.00    +0.000 OA
ATOM      3  N   UNL     1       0.972  10.231  19.409  0.00  0.00    +0.000 N 
ENDROOT
BRANCH   1   9
ATOM      4  N   UNL     1       3.440   3.487  19.719  0.00  0.00    +0.000 N 
ATOM      5  C   UNL     1       2.523   3.601  20.749  0.00  0.00    +0.000 A 
ATOM      6  N   UNL     1       1.901   4.684  21.087  0.00  0.00    +0.000 NA
ATOM      7  C   UNL     1       2.185   5.753  20.309  0.00  0.00    +0.000 A 
ATOM      8  S   UNL     1       1.393   7.220  20.549  0.00  0.00    +0.000 S 
ATOM      9  C   UNL     1       2.106   7.965  19.186  0.00  0.00    +0.000 A 
ATOM     10  C   UNL     1       3.052   7.109  18.606  0.00  0.00    +0.000 A 
ATOM     11  C   UNL     1       3.903   7.426  17.411  0.00  0.00    +0.000 C 
ATOM     12  C   UNL     1       3.053   5.808  19.245  0.00  0.00    +0.000 A 
ATOM     13  C   UNL     1       3.772   4.578  18.909  0.00  0.00    +0.000 A 
ATOM     14  O   UNL     1       4.579   4.514  17.985  0.00  0.00    +0.000 OA
BRANCH   4  16
ATOM     15  C   UNL     1       3.392   1.451  18.320  0.00  0.00    +0.000 C 
ATOM     16  C   UNL     1       4.048   2.188  19.479  0.00  0.00    +0.000 C 
ENDBRANCH   4  16
ENDBRANCH   1   9
BRANCH   3  17
ATOM     17  C   UNL     1       1.026  10.367  20.867  0.00  0.00    +0.000 C 
BRANCH  17  18
ATOM     18  C   UNL     1       0.083  11.397  21.471  0.00  0.00    +0.000 A 
ATOM     19  C   UNL     1      -1.094  11.067  22.150  0.00  0.00    +0.000 A 
ATOM     20  C   UNL     1      -1.803  12.038  22.876  0.00  0.00    +0.000 A 
ATOM     21  C   UNL     1      -1.391  13.378  22.940  0.00  0.00    +0.000 A 
ATOM     22  C   UNL     1      -0.277  13.715  22.160  0.00  0.00    +0.000 A 
ATOM     23  C   UNL     1       0.452  12.747  21.444  0.00  0.00    +0.000 A 
BRANCH  21  24
ATOM     24  N   UNL     1      -2.075  14.303  23.726  0.00  0.00    +0.000 N 
ATOM     25  C   UNL     1      -1.297  15.280  24.491  0.00  0.00    +0.000 C 
ATOM     26  C   UNL     1      -3.444  14.697  23.417  0.00  0.00    +0.000 C 
ENDBRANCH  21  24
ENDBRANCH  17  18
ENDBRANCH   3  17
BRANCH   3  27
ATOM     27  C   UNL     1       0.311  11.326  18.694  0.00  0.00    +0.000 C 
BRANCH  27  28
ATOM     28  C   UNL     1      -1.100  10.989  18.347  0.00  0.00    +0.000 A 
ATOM     29  C   UNL     1      -1.687   9.908  17.719  0.00  0.00    +0.000 A 
ATOM     30  C   UNL     1      -3.084  10.126  17.765  0.00  0.00    +0.000 A 
ATOM     31  C   UNL     1      -3.264  11.325  18.410  0.00  0.00    +0.000 A 
ATOM     32  O   UNL     1      -2.067  11.861  18.765  0.00  0.00    +0.000 OA
ENDBRANCH  27  28
ENDBRANCH   3  27
TORSDOF 7
ENDMDL
MODEL 7
REMARK VINA RESULT:      -6.8      3.062      5.434
REMARK  Name = 
REMARK  11 active torsions:
REMARK  status: ('A' for Active; 'I' for Inactive)
REMARK    1  A    between atoms: C_1  and  C_2
REMARK    2  A    between atoms: C_2  and  N_3
REMARK    3  A    between atoms: C_8  and  C_9
REMARK    4  A    between atoms: N_11  and  C_12
REMARK    5  A    between atoms: N_11  and  C_22
REMARK    6  A    between atoms: C_12  and  C_13
REMARK    7  A    between atoms: C_16  and  N_17
REMARK    8  A    between atoms: N_17  and  C_18
REMARK    9  A    between atoms: N_17  and  C_19
REMARK   10  A    between atoms: C_22  and  C_23
REMARK   11  A    between atoms: C_28  and  C_29
REMARK                            x       y       z     vdW  Elec       q    Type
REMARK                         _______ _______ _______ _____ _____    ______ ____
ROOT
ATOM      1  C   UNL     1      -0.198  10.274  19.726  0.00  0.00    +0.000 C 
ATOM      2  O   UNL     1      -1.253  10.036  19.126  0.00  0.00    +0.000 OA
ATOM      3  N   UNL     1      -0.044  11.544  20.315  0.00  0.00    +0.000 N 
ENDROOT
BRANCH   1   9
ATOM      4  N   UNL     1       3.483   5.433  18.938  0.00  0.00    +0.000 N 
ATOM      5  C   UNL     1       2.875   5.036  20.115  0.00  0.00    +0.000 A 
ATOM      6  N   UNL     1       2.075   5.759  20.831  0.00  0.00    +0.000 NA
ATOM      7  C   UNL     1       1.820   6.982  20.314  0.00  0.00    +0.000 A 
ATOM      8  S   UNL     1       0.726   8.017  21.067  0.00  0.00    +0.000 S 
ATOM      9  C   UNL     1       0.808   9.197  19.832  0.00  0.00    +0.000 A 
ATOM     10  C   UNL     1       1.777   8.838  18.885  0.00  0.00    +0.000 A 
ATOM     11  C   UNL     1       2.155   9.640  17.674  0.00  0.00    +0.000 C 
ATOM     12  C   UNL     1       2.325   7.525  19.157  0.00  0.00    +0.000 A 
ATOM     13  C   UNL     1       3.258   6.699  18.388  0.00  0.00    +0.000 A 
ATOM     14  O   UNL     1       3.778   7.086  17.344  0.00  0.00    +0.000 OA
BRANCH   4  16
ATOM     15  C   UNL     1       3.637   3.206  17.879  0.00  0.00    +0.000 C 
ATOM     16  C   UNL     1       4.360   4.489  18.263  0.00  0.00    +0.000 C 
ENDBRANCH   4  16
ENDBRANCH   1   9
BRANCH   3  17
ATOM     17  C   UNL     1       1.189  12.125  20.853  0.00  0.00    +0.000 C 
BRANCH  17  18
ATOM     18  C   UNL     1       1.627  13.442  20.231  0.00  0.00    +0.000 A 
ATOM     19  C   UNL     1       2.154  13.552  18.939  0.00  0.00    +0.000 A 
ATOM     20  C   UNL     1       2.328  14.810  18.339  0.00  0.00    +0.000 A 
ATOM     21  C   UNL     1       2.016  16.009  18.998  0.00  0.00    +0.000 A 
ATOM     22  C   UNL     1       1.602  15.885  20.331  0.00  0.00    +0.000 A 
ATOM     23  C   UNL     1       1.404  14.630  20.936  0.00  0.00    +0.000 A 
BRANCH  21  24
ATOM     24  N   UNL     1       2.133  17.237  18.350  0.00  0.00    +0.000 N 
ATOM     25  C   UNL     1       2.631  17.254  16.973  0.00  0.00    +0.000 C 
ATOM     26  C   UNL     1       1.311  18.378  18.732  0.00  0.00    +0.000 C 
ENDBRANCH  21  24
ENDBRANCH  17  18
ENDBRANCH   3  17
BRANCH   3  27
ATOM     27  C   UNL     1      -1.208  12.434  20.294  0.00  0.00    +0.000 C 
BRANCH  27  28
ATOM     28  C   UNL     1      -2.020  12.313  21.539  0.00  0.00    +0.000 A 
ATOM     29  C   UNL     1      -1.739  11.848  22.809  0.00  0.00    +0.000 A 
ATOM     30  C   UNL     1      -2.899  12.074  23.586  0.00  0.00    +0.000 A 
ATOM     31  C   UNL     1      -3.818  12.653  22.745  0.00  0.00    +0.000 A 
ATOM     32  O   UNL     1      -3.296  12.800  21.498  0.00  0.00    +0.000 OA
ENDBRANCH  27  28
ENDBRANCH   3  27
TORSDOF 7
ENDMDL
MODEL 8
REMARK VINA RESULT:      -6.8      3.021      5.634
REMARK  Name = 
REMARK  11 active torsions:
REMARK  status: ('A' for Active; 'I' for Inactive)
REMARK    1  A    between atoms: C_1  and  C_2
REMARK    2  A    between atoms: C_2  and  N_3
REMARK    3  A    between atoms: C_8  and  C_9
REMARK    4  A    between atoms: N_11  and  C_12
REMARK    5  A    between atoms: N_11  and  C_22
REMARK    6  A    between atoms: C_12  and  C_13
REMARK    7  A    between atoms: C_16  and  N_17
REMARK    8  A    between atoms: N_17  and  C_18
REMARK    9  A    between atoms: N_17  and  C_19
REMARK   10  A    between atoms: C_22  and  C_23
REMARK   11  A    between atoms: C_28  and  C_29
REMARK                            x       y       z     vdW  Elec       q    Type
REMARK                         _______ _______ _______ _____ _____    ______ ____
ROOT
ATOM      1  C   UNL     1      -0.473  10.318  19.746  0.00  0.00    +0.000 C 
ATOM      2  O   UNL     1      -1.513  10.028  19.141  0.00  0.00    +0.000 OA
ATOM      3  N   UNL     1      -0.383  11.594  20.333  0.00  0.00    +0.000 N 
ENDROOT
BRANCH   1   9
ATOM      4  N   UNL     1       3.444   5.662  18.976  0.00  0.00    +0.000 N 
ATOM      5  C   UNL     1       2.849   5.235  20.149  0.00  0.00    +0.000 A 
ATOM      6  N   UNL     1       2.010   5.916  20.861  0.00  0.00    +0.000 NA
ATOM      7  C   UNL     1       1.699   7.127  20.344  0.00  0.00    +0.000 A 
ATOM      8  S   UNL     1       0.551   8.107  21.090  0.00  0.00    +0.000 S 
ATOM      9  C   UNL     1       0.584   9.290  19.857  0.00  0.00    +0.000 A 
ATOM     10  C   UNL     1       1.575   8.980  18.915  0.00  0.00    +0.000 A 
ATOM     11  C   UNL     1       1.920   9.801  17.708  0.00  0.00    +0.000 C 
ATOM     12  C   UNL     1       2.184   7.695  19.190  0.00  0.00    +0.000 A 
ATOM     13  C   UNL     1       3.162   6.917  18.426  0.00  0.00    +0.000 A 
ATOM     14  O   UNL     1       3.668   7.329  17.385  0.00  0.00    +0.000 OA
BRANCH   4  16
ATOM     15  C   UNL     1       3.654   3.775  17.395  0.00  0.00    +0.000 C 
ATOM     16  C   UNL     1       4.370   4.763  18.306  0.00  0.00    +0.000 C 
ENDBRANCH   4  16
ENDBRANCH   1   9
BRANCH   3  17
ATOM     17  C   UNL     1       0.818  12.234  20.877  0.00  0.00    +0.000 C 
BRANCH  17  18
ATOM     18  C   UNL     1       1.358  13.412  20.080  0.00  0.00    +0.000 A 
ATOM     19  C   UNL     1       1.193  14.748  20.461  0.00  0.00    +0.000 A 
ATOM     20  C   UNL     1       1.900  15.773  19.813  0.00  0.00    +0.000 A 
ATOM     21  C   UNL     1       2.778  15.525  18.746  0.00  0.00    +0.000 A 
ATOM     22  C   UNL     1       2.840  14.197  18.301  0.00  0.00    +0.000 A 
ATOM     23  C   UNL     1       2.153  13.159  18.955  0.00  0.00    +0.000 A 
BRANCH  21  24
ATOM     24  N   UNL     1       3.519  16.555  18.170  0.00  0.00    +0.000 N 
ATOM     25  C   UNL     1       4.932  16.682  18.531  0.00  0.00    +0.000 C 
ATOM     26  C   UNL     1       3.147  17.130  16.885  0.00  0.00    +0.000 C 
ENDBRANCH  21  24
ENDBRANCH  17  18
ENDBRANCH   3  17
BRANCH   3  27
ATOM     27  C   UNL     1      -1.589  12.427  20.307  0.00  0.00    +0.000 C 
BRANCH  27  28
ATOM     28  C   UNL     1      -2.337  12.359  21.595  0.00  0.00    +0.000 A 
ATOM     29  C   UNL     1      -2.004  11.911  22.859  0.00  0.00    +0.000 A 
ATOM     30  C   UNL     1      -3.113  12.193  23.691  0.00  0.00    +0.000 A 
ATOM     31  C   UNL     1      -4.055  12.786  22.886  0.00  0.00    +0.000 A 
ATOM     32  O   UNL     1      -3.597  12.889  21.611  0.00  0.00    +0.000 OA
ENDBRANCH  27  28
ENDBRANCH   3  27
TORSDOF 7
ENDMDL
MODEL 9
REMARK VINA RESULT:      -6.8      3.152      6.023
REMARK  Name = 
REMARK  11 active torsions:
REMARK  status: ('A' for Active; 'I' for Inactive)
REMARK    1  A    between atoms: C_1  and  C_2
REMARK    2  A    between atoms: C_2  and  N_3
REMARK    3  A    between atoms: C_8  and  C_9
REMARK    4  A    between atoms: N_11  and  C_12
REMARK    5  A    between atoms: N_11  and  C_22
REMARK    6  A    between atoms: C_12  and  C_13
REMARK    7  A    between atoms: C_16  and  N_17
REMARK    8  A    between atoms: N_17  and  C_18
REMARK    9  A    between atoms: N_17  and  C_19
REMARK   10  A    between atoms: C_22  and  C_23
REMARK   11  A    between atoms: C_28  and  C_29
REMARK                            x       y       z     vdW  Elec       q    Type
REMARK                         _______ _______ _______ _____ _____    ______ ____
ROOT
ATOM      1  C   UNL     1      -0.294  10.772  19.839  0.00  0.00    +0.000 C 
ATOM      2  O   UNL     1      -1.285  10.654  19.106  0.00  0.00    +0.000 OA
ATOM      3  N   UNL     1      -0.153  11.966  20.573  0.00  0.00    +0.000 N 
ENDROOT
BRANCH   1   9
ATOM      4  N   UNL     1       3.052   5.696  19.040  0.00  0.00    +0.000 N 
ATOM      5  C   UNL     1       2.463   5.363  20.247  0.00  0.00    +0.000 A 
ATOM      6  N   UNL     1       1.734   6.148  20.972  0.00  0.00    +0.000 NA
ATOM      7  C   UNL     1       1.537   7.374  20.435  0.00  0.00    +0.000 A 
ATOM      8  S   UNL     1       0.535   8.491  21.200  0.00  0.00    +0.000 S 
ATOM      9  C   UNL     1       0.647   9.637  19.936  0.00  0.00    +0.000 A 
ATOM     10  C   UNL     1       1.558   9.199  18.965  0.00  0.00    +0.000 A 
ATOM     11  C   UNL     1       1.941   9.950  17.724  0.00  0.00    +0.000 C 
ATOM     12  C   UNL     1       2.034   7.860  19.249  0.00  0.00    +0.000 A 
ATOM     13  C   UNL     1       2.887   6.961  18.469  0.00  0.00    +0.000 A 
ATOM     14  O   UNL     1       3.392   7.293  17.399  0.00  0.00    +0.000 OA
BRANCH   4  16
ATOM     15  C   UNL     1       5.041   4.236  19.186  0.00  0.00    +0.000 C 
ATOM     16  C   UNL     1       3.845   4.685  18.358  0.00  0.00    +0.000 C 
ENDBRANCH   4  16
ENDBRANCH   1   9
BRANCH   3  17
ATOM     17  C   UNL     1       1.035  12.421  21.299  0.00  0.00    +0.000 C 
BRANCH  17  18
ATOM     18  C   UNL     1       1.940  13.387  20.549  0.00  0.00    +0.000 A 
ATOM     19  C   UNL     1       2.546  14.500  21.140  0.00  0.00    +0.000 A 
ATOM     20  C   UNL     1       3.542  15.222  20.462  0.00  0.00    +0.000 A 
ATOM     21  C   UNL     1       3.960  14.889  19.163  0.00  0.00    +0.000 A 
ATOM     22  C   UNL     1       3.260  13.846  18.543  0.00  0.00    +0.000 A 
ATOM     23  C   UNL     1       2.275  13.104  19.219  0.00  0.00    +0.000 A 
BRANCH  21  24
ATOM     24  N   UNL     1       5.000  15.580  18.545  0.00  0.00    +0.000 N 
ATOM     25  C   UNL     1       5.360  16.904  19.057  0.00  0.00    +0.000 C 
ATOM     26  C   UNL     1       6.057  14.878  17.829  0.00  0.00    +0.000 C 
ENDBRANCH  21  24
ENDBRANCH  17  18
ENDBRANCH   3  17
BRANCH   3  27
ATOM     27  C   UNL     1      -1.269  12.915  20.523  0.00  0.00    +0.000 C 
BRANCH  27  28
ATOM     28  C   UNL     1      -2.194  12.743  21.679  0.00  0.00    +0.000 A 
ATOM     29  C   UNL     1      -1.992  12.610  23.040  0.00  0.00    +0.000 A 
ATOM     30  C   UNL     1      -3.275  12.572  23.635  0.00  0.00    +0.000 A 
ATOM     31  C   UNL     1      -4.179  12.676  22.605  0.00  0.00    +0.000 A 
ATOM     32  O   UNL     1      -3.534  12.777  21.413  0.00  0.00    +0.000 OA
ENDBRANCH  27  28
ENDBRANCH   3  27
TORSDOF 7
ENDMDL
