MODEL 1
REMARK VINA RESULT:      -7.6      0.000      0.000
REMARK  Name = 
REMARK  7 active torsions:
REMARK  status: ('A' for Active; 'I' for Inactive)
REMARK    1  A    between atoms: C_1  and  O_2
REMARK    2  A    between atoms: O_2  and  C_3
REMARK    3  A    between atoms: C_7  and  C_8
REMARK    4  A    between atoms: C_8  and  N_9
REMARK    5  A    between atoms: N_9  and  C_24
REMARK    6  A    between atoms: N_12  and  C_13
REMARK    7  A    between atoms: C_16  and  C_17
REMARK                            x       y       z     vdW  Elec       q    Type
REMARK                         _______ _______ _______ _____ _____    ______ ____
ROOT
ATOM      1  N   UNL     1      -0.274  11.671  19.382  0.00  0.00    +0.000 N 
ATOM      2  C   UNL     1      -0.018  10.291  19.457  0.00  0.00    +0.000 C 
ATOM      3  O   UNL     1      -0.881   9.502  19.837  0.00  0.00    +0.000 OA
ATOM      4  N   UNL     1       1.275   9.927  19.105  0.00  0.00    +0.000 N 
ATOM      5  H   UNL     1       1.943  10.677  19.049  0.00  0.00    +0.000 HD
ENDROOT
BRANCH   4   6
ATOM      6  C   UNL     1       1.808   8.619  19.151  0.00  0.00    +0.000 A 
ATOM      7  C   UNL     1       1.711   7.804  20.276  0.00  0.00    +0.000 A 
ATOM      8  C   UNL     1       2.342   6.558  20.308  0.00  0.00    +0.000 A 
ATOM      9  C   UNL     1       3.084   6.094  19.217  0.00  0.00    +0.000 A 
ATOM     10  C   UNL     1       3.126   6.883  18.061  0.00  0.00    +0.000 A 
ATOM     11  C   UNL     1       2.479   8.132  18.024  0.00  0.00    +0.000 A 
BRANCH   9  12
ATOM     12  C   UNL     1       3.792   4.827  19.296  0.00  0.00    +0.000 A 
ATOM     13  C   UNL     1       3.344   3.517  19.582  0.00  0.00    +0.000 A 
ATOM     14  N   UNL     1       4.329   2.612  19.553  0.00  0.00    +0.000 NA
ATOM     15  N   UNL     1       5.411   3.335  19.245  0.00  0.00    +0.000 N 
ATOM     16  C   UNL     1       5.146   4.666  19.063  0.00  0.00    +0.000 A 
ATOM     17  H   UNL     1       6.308   2.866  19.168  0.00  0.00    +0.000 HD
ENDBRANCH   9  12
ENDBRANCH   4   6
BRANCH   1  18
ATOM     18  C   UNL     1       0.637  12.620  18.781  0.00  0.00    +0.000 C 
ATOM     19  C   UNL     1       0.399  14.107  18.749  0.00  0.00    +0.000 C 
ATOM     20  C   UNL     1       1.459  13.547  19.644  0.00  0.00    +0.000 C 
ENDBRANCH   1  18
BRANCH   1  21
ATOM     21  C   UNL     1      -1.642  12.129  19.686  0.00  0.00    +0.000 C 
BRANCH  21  26
ATOM     22  C   UNL     1      -3.184  11.197  16.302  0.00  0.00    +0.000 A 
ATOM     23  C   UNL     1      -4.546  11.318  16.583  0.00  0.00    +0.000 A 
ATOM     24  C   UNL     1      -4.979  11.650  17.864  0.00  0.00    +0.000 A 
ATOM     25  C   UNL     1      -4.049  11.900  18.871  0.00  0.00    +0.000 A 
ATOM     26  C   UNL     1      -2.673  11.835  18.607  0.00  0.00    +0.000 A 
ATOM     27  C   UNL     1      -2.253  11.435  17.318  0.00  0.00    +0.000 A 
BRANCH  22  29
ATOM     28  C   UNL     1      -3.822  10.009  14.327  0.00  0.00    +0.000 C 
ATOM     29  O   UNL     1      -2.915  10.867  15.002  0.00  0.00    +0.000 OA
ENDBRANCH  22  29
ENDBRANCH  21  26
ENDBRANCH   1  21
TORSDOF 6
ENDMDL
MODEL 2
REMARK VINA RESULT:      -7.6      3.975      9.327
REMARK  Name = 
REMARK  7 active torsions:
REMARK  status: ('A' for Active; 'I' for Inactive)
REMARK    1  A    between atoms: C_1  and  O_2
REMARK    2  A    between atoms: O_2  and  C_3
REMARK    3  A    between atoms: C_7  and  C_8
REMARK    4  A    between atoms: C_8  and  N_9
REMARK    5  A    between atoms: N_9  and  C_24
REMARK    6  A    between atoms: N_12  and  C_13
REMARK    7  A    between atoms: C_16  and  C_17
REMARK                            x       y       z     vdW  Elec       q    Type
REMARK                         _______ _______ _______ _____ _____    ______ ____
ROOT
ATOM      1  N   UNL     1       2.576   6.051  19.537  0.00  0.00    +0.000 N 
ATOM      2  C   UNL     1       2.000   7.316  19.748  0.00  0.00    +0.000 C 
ATOM      3  O   UNL     1       2.016   8.177  18.872  0.00  0.00    +0.000 OA
ATOM      4  N   UNL     1       1.460   7.496  21.014  0.00  0.00    +0.000 N 
ATOM      5  H   UNL     1       1.722   6.814  21.706  0.00  0.00    +0.000 HD
ENDROOT
BRANCH   4   6
ATOM      6  C   UNL     1       0.878   8.687  21.503  0.00  0.00    +0.000 A 
ATOM      7  C   UNL     1       0.045   8.718  22.619  0.00  0.00    +0.000 A 
ATOM      8  C   UNL     1      -0.588   9.902  23.003  0.00  0.00    +0.000 A 
ATOM      9  C   UNL     1      -0.403  11.087  22.284  0.00  0.00    +0.000 A 
ATOM     10  C   UNL     1       0.486  11.074  21.202  0.00  0.00    +0.000 A 
ATOM     11  C   UNL     1       1.134   9.884  20.823  0.00  0.00    +0.000 A 
BRANCH   9  12
ATOM     12  C   UNL     1      -1.125  12.292  22.655  0.00  0.00    +0.000 A 
ATOM     13  C   UNL     1      -0.761  13.658  22.605  0.00  0.00    +0.000 A 
ATOM     14  N   UNL     1      -1.728  14.471  23.045  0.00  0.00    +0.000 NA
ATOM     15  N   UNL     1      -2.717  13.634  23.374  0.00  0.00    +0.000 N 
ATOM     16  C   UNL     1      -2.418  12.317  23.147  0.00  0.00    +0.000 A 
ATOM     17  H   UNL     1      -3.580  14.017  23.749  0.00  0.00    +0.000 HD
ENDBRANCH   9  12
ENDBRANCH   4   6
BRANCH   1  18
ATOM     18  C   UNL     1       2.434   4.946  20.459  0.00  0.00    +0.000 C 
ATOM     19  C   UNL     1       1.185   4.112  20.582  0.00  0.00    +0.000 C 
ATOM     20  C   UNL     1       2.408   3.523  19.953  0.00  0.00    +0.000 C 
ENDBRANCH   1  18
BRANCH   1  21
ATOM     21  C   UNL     1       3.120   5.763  18.198  0.00  0.00    +0.000 C 
BRANCH  21  26
ATOM     22  C   UNL     1       6.678   5.705  16.771  0.00  0.00    +0.000 A 
ATOM     23  C   UNL     1       7.433   5.555  17.936  0.00  0.00    +0.000 A 
ATOM     24  C   UNL     1       6.815   5.519  19.183  0.00  0.00    +0.000 A 
ATOM     25  C   UNL     1       5.427   5.599  19.275  0.00  0.00    +0.000 A 
ATOM     26  C   UNL     1       4.638   5.700  18.120  0.00  0.00    +0.000 A 
ATOM     27  C   UNL     1       5.286   5.799  16.868  0.00  0.00    +0.000 A 
BRANCH  22  29
ATOM     28  C   UNL     1       7.032   4.878  14.555  0.00  0.00    +0.000 C 
ATOM     29  O   UNL     1       7.426   5.722  15.626  0.00  0.00    +0.000 OA
ENDBRANCH  22  29
ENDBRANCH  21  26
ENDBRANCH   1  21
TORSDOF 6
ENDMDL
MODEL 3
REMARK VINA RESULT:      -7.5      3.790      9.336
REMARK  Name = 
REMARK  7 active torsions:
REMARK  status: ('A' for Active; 'I' for Inactive)
REMARK    1  A    between atoms: C_1  and  O_2
REMARK    2  A    between atoms: O_2  and  C_3
REMARK    3  A    between atoms: C_7  and  C_8
REMARK    4  A    between atoms: C_8  and  N_9
REMARK    5  A    between atoms: N_9  and  C_24
REMARK    6  A    between atoms: N_12  and  C_13
REMARK    7  A    between atoms: C_16  and  C_17
REMARK                            x       y       z     vdW  Elec       q    Type
REMARK                         _______ _______ _______ _____ _____    ______ ____
ROOT
ATOM      1  N   UNL     1       2.724   5.363  19.723  0.00  0.00    +0.000 N 
ATOM      2  C   UNL     1       2.213   6.670  19.645  0.00  0.00    +0.000 C 
ATOM      3  O   UNL     1       2.328   7.340  18.621  0.00  0.00    +0.000 OA
ATOM      4  N   UNL     1       1.615   7.123  20.813  0.00  0.00    +0.000 N 
ATOM      5  H   UNL     1       1.798   6.580  21.640  0.00  0.00    +0.000 HD
ENDROOT
BRANCH   4   6
ATOM      6  C   UNL     1       1.078   8.414  21.022  0.00  0.00    +0.000 A 
ATOM      7  C   UNL     1       1.144   9.423  20.064  0.00  0.00    +0.000 A 
ATOM      8  C   UNL     1       0.689  10.711  20.355  0.00  0.00    +0.000 A 
ATOM      9  C   UNL     1       0.154  11.024  21.608  0.00  0.00    +0.000 A 
ATOM     10  C   UNL     1       0.026   9.994  22.549  0.00  0.00    +0.000 A 
ATOM     11  C   UNL     1       0.472   8.694  22.252  0.00  0.00    +0.000 A 
BRANCH   9  12
ATOM     12  C   UNL     1      -0.248  12.386  21.917  0.00  0.00    +0.000 A 
ATOM     13  C   UNL     1      -1.283  12.897  22.733  0.00  0.00    +0.000 A 
ATOM     14  N   UNL     1      -1.319  14.234  22.753  0.00  0.00    +0.000 NA
ATOM     15  N   UNL     1      -0.305  14.587  21.956  0.00  0.00    +0.000 N 
ATOM     16  C   UNL     1       0.382  13.521  21.439  0.00  0.00    +0.000 A 
ATOM     17  H   UNL     1      -0.124  15.575  21.800  0.00  0.00    +0.000 HD
ENDBRANCH   9  12
ENDBRANCH   4   6
BRANCH   1  18
ATOM     18  C   UNL     1       2.466   4.471  20.831  0.00  0.00    +0.000 C 
ATOM     19  C   UNL     1       1.353   3.455  20.848  0.00  0.00    +0.000 C 
ATOM     20  C   UNL     1       2.770   2.995  20.715  0.00  0.00    +0.000 C 
ENDBRANCH   1  18
BRANCH   1  21
ATOM     21  C   UNL     1       3.323   4.791  18.504  0.00  0.00    +0.000 C 
BRANCH  21  26
ATOM     22  C   UNL     1       6.644   5.586  16.762  0.00  0.00    +0.000 A 
ATOM     23  C   UNL     1       7.500   5.715  17.857  0.00  0.00    +0.000 A 
ATOM     24  C   UNL     1       7.012   5.596  19.156  0.00  0.00    +0.000 A 
ATOM     25  C   UNL     1       5.665   5.311  19.372  0.00  0.00    +0.000 A 
ATOM     26  C   UNL     1       4.791   5.127  18.290  0.00  0.00    +0.000 A 
ATOM     27  C   UNL     1       5.290   5.314  16.981  0.00  0.00    +0.000 A 
BRANCH  22  29
ATOM     28  C   UNL     1       6.932   4.821  14.514  0.00  0.00    +0.000 C 
ATOM     29  O   UNL     1       7.269   5.727  15.553  0.00  0.00    +0.000 OA
ENDBRANCH  22  29
ENDBRANCH  21  26
ENDBRANCH   1  21
TORSDOF 6
ENDMDL
MODEL 4
REMARK VINA RESULT:      -7.5      1.824      2.826
REMARK  Name = 
REMARK  7 active torsions:
REMARK  status: ('A' for Active; 'I' for Inactive)
REMARK    1  A    between atoms: C_1  and  O_2
REMARK    2  A    between atoms: O_2  and  C_3
REMARK    3  A    between atoms: C_7  and  C_8
REMARK    4  A    between atoms: C_8  and  N_9
REMARK    5  A    between atoms: N_9  and  C_24
REMARK    6  A    between atoms: N_12  and  C_13
REMARK    7  A    between atoms: C_16  and  C_17
REMARK                            x       y       z     vdW  Elec       q    Type
REMARK                         _______ _______ _______ _____ _____    ______ ____
ROOT
ATOM      1  N   UNL     1       0.166  11.065  19.858  0.00  0.00    +0.000 N 
ATOM      2  C   UNL     1       0.639   9.875  19.279  0.00  0.00    +0.000 C 
ATOM      3  O   UNL     1       0.513   9.658  18.076  0.00  0.00    +0.000 OA
ATOM      4  N   UNL     1       1.213   8.988  20.179  0.00  0.00    +0.000 N 
ATOM      5  H   UNL     1       1.040   9.174  21.152  0.00  0.00    +0.000 HD
ENDROOT
BRANCH   4   6
ATOM      6  C   UNL     1       1.710   7.701  19.869  0.00  0.00    +0.000 A 
ATOM      7  C   UNL     1       2.389   7.418  18.687  0.00  0.00    +0.000 A 
ATOM      8  C   UNL     1       2.772   6.111  18.381  0.00  0.00    +0.000 A 
ATOM      9  C   UNL     1       2.489   5.052  19.249  0.00  0.00    +0.000 A 
ATOM     10  C   UNL     1       1.866   5.345  20.469  0.00  0.00    +0.000 A 
ATOM     11  C   UNL     1       1.492   6.664  20.783  0.00  0.00    +0.000 A 
BRANCH   9  12
ATOM     12  C   UNL     1       2.831   3.688  18.882  0.00  0.00    +0.000 A 
ATOM     13  C   UNL     1       3.774   2.780  19.417  0.00  0.00    +0.000 A 
ATOM     14  N   UNL     1       3.779   1.602  18.784  0.00  0.00    +0.000 NA
ATOM     15  N   UNL     1       2.837   1.745  17.846  0.00  0.00    +0.000 N 
ATOM     16  C   UNL     1       2.225   2.969  17.867  0.00  0.00    +0.000 A 
ATOM     17  H   UNL     1       2.651   0.970  17.216  0.00  0.00    +0.000 HD
ENDBRANCH   9  12
ENDBRANCH   4   6
BRANCH   1  18
ATOM     18  C   UNL     1       0.441  11.451  21.225  0.00  0.00    +0.000 C 
ATOM     19  C   UNL     1      -0.250  12.590  21.929  0.00  0.00    +0.000 C 
ATOM     20  C   UNL     1      -0.567  11.180  22.316  0.00  0.00    +0.000 C 
ENDBRANCH   1  18
BRANCH   1  21
ATOM     21  C   UNL     1      -0.406  12.083  18.958  0.00  0.00    +0.000 C 
BRANCH  21  26
ATOM     22  C   UNL     1      -4.216  12.182  19.369  0.00  0.00    +0.000 A 
ATOM     23  C   UNL     1      -4.632  11.605  18.168  0.00  0.00    +0.000 A 
ATOM     24  C   UNL     1      -3.703  11.226  17.203  0.00  0.00    +0.000 A 
ATOM     25  C   UNL     1      -2.340  11.389  17.446  0.00  0.00    +0.000 A 
ATOM     26  C   UNL     1      -1.889  11.920  18.663  0.00  0.00    +0.000 A 
ATOM     27  C   UNL     1      -2.849  12.357  19.605  0.00  0.00    +0.000 A 
BRANCH  22  29
ATOM     28  C   UNL     1      -6.347  11.610  20.293  0.00  0.00    +0.000 C 
ATOM     29  O   UNL     1      -5.243  12.499  20.215  0.00  0.00    +0.000 OA
ENDBRANCH  22  29
ENDBRANCH  21  26
ENDBRANCH   1  21
TORSDOF 6
ENDMDL
MODEL 5
REMARK VINA RESULT:      -7.4      3.523      9.304
REMARK  Name = 
REMARK  7 active torsions:
REMARK  status: ('A' for Active; 'I' for Inactive)
REMARK    1  A    between atoms: C_1  and  O_2
REMARK    2  A    between atoms: O_2  and  C_3
REMARK    3  A    between atoms: C_7  and  C_8
REMARK    4  A    between atoms: C_8  and  N_9
REMARK    5  A    between atoms: N_9  and  C_24
REMARK    6  A    between atoms: N_12  and  C_13
REMARK    7  A    between atoms: C_16  and  C_17
REMARK                            x       y       z     vdW  Elec       q    Type
REMARK                         _______ _______ _______ _____ _____    ______ ____
ROOT
ATOM      1  N   UNL     1       3.183   4.507  19.003  0.00  0.00    +0.000 N 
ATOM      2  C   UNL     1       3.242   5.911  19.053  0.00  0.00    +0.000 C 
ATOM      3  O   UNL     1       4.316   6.501  19.140  0.00  0.00    +0.000 OA
ATOM      4  N   UNL     1       2.004   6.538  19.029  0.00  0.00    +0.000 N 
ATOM      5  H   UNL     1       1.208   5.948  19.199  0.00  0.00    +0.000 HD
ENDROOT
BRANCH   4   6
ATOM      6  C   UNL     1       1.779   7.930  19.127  0.00  0.00    +0.000 A 
ATOM      7  C   UNL     1       1.267   8.533  20.272  0.00  0.00    +0.000 A 
ATOM      8  C   UNL     1       0.967   9.897  20.286  0.00  0.00    +0.000 A 
ATOM      9  C   UNL     1       1.175  10.695  19.156  0.00  0.00    +0.000 A 
ATOM     10  C   UNL     1       1.754  10.104  18.026  0.00  0.00    +0.000 A 
ATOM     11  C   UNL     1       2.067   8.733  18.017  0.00  0.00    +0.000 A 
BRANCH   9  12
ATOM     12  C   UNL     1       0.791  12.096  19.165  0.00  0.00    +0.000 A 
ATOM     13  C   UNL     1      -0.277  12.773  19.797  0.00  0.00    +0.000 A 
ATOM     14  N   UNL     1      -0.278  14.088  19.552  0.00  0.00    +0.000 NA
ATOM     15  N   UNL     1       0.790  14.262  18.767  0.00  0.00    +0.000 N 
ATOM     16  C   UNL     1       1.478  13.106  18.515  0.00  0.00    +0.000 A 
ATOM     17  H   UNL     1       1.005  15.197  18.432  0.00  0.00    +0.000 HD
ENDBRANCH   9  12
ENDBRANCH   4   6
BRANCH   1  18
ATOM     18  C   UNL     1       1.970   3.769  18.726  0.00  0.00    +0.000 C 
ATOM     19  C   UNL     1       1.841   2.277  18.889  0.00  0.00    +0.000 C 
ATOM     20  C   UNL     1       1.150   3.189  19.854  0.00  0.00    +0.000 C 
ENDBRANCH   1  18
BRANCH   1  21
ATOM     21  C   UNL     1       4.459   3.771  18.968  0.00  0.00    +0.000 C 
BRANCH  21  26
ATOM     22  C   UNL     1       5.622   4.240  15.345  0.00  0.00    +0.000 A 
ATOM     23  C   UNL     1       6.957   4.602  15.534  0.00  0.00    +0.000 A 
ATOM     24  C   UNL     1       7.478   4.745  16.817  0.00  0.00    +0.000 A 
ATOM     25  C   UNL     1       6.675   4.491  17.928  0.00  0.00    +0.000 A 
ATOM     26  C   UNL     1       5.345   4.077  17.769  0.00  0.00    +0.000 A 
ATOM     27  C   UNL     1       4.815   4.000  16.461  0.00  0.00    +0.000 A 
BRANCH  22  29
ATOM     28  C   UNL     1       6.230   3.694  13.097  0.00  0.00    +0.000 C 
ATOM     29  O   UNL     1       5.258   4.140  14.030  0.00  0.00    +0.000 OA
ENDBRANCH  22  29
ENDBRANCH  21  26
ENDBRANCH   1  21
TORSDOF 6
ENDMDL
MODEL 6
REMARK VINA RESULT:      -7.4      3.631      9.483
REMARK  Name = 
REMARK  7 active torsions:
REMARK  status: ('A' for Active; 'I' for Inactive)
REMARK    1  A    between atoms: C_1  and  O_2
REMARK    2  A    between atoms: O_2  and  C_3
REMARK    3  A    between atoms: C_7  and  C_8
REMARK    4  A    between atoms: C_8  and  N_9
REMARK    5  A    between atoms: N_9  and  C_24
REMARK    6  A    between atoms: N_12  and  C_13
REMARK    7  A    between atoms: C_16  and  C_17
REMARK                            x       y       z     vdW  Elec       q    Type
REMARK                         _______ _______ _______ _____ _____    ______ ____
ROOT
ATOM      1  N   UNL     1       4.596   4.677  19.024  0.00  0.00    +0.000 N 
ATOM      2  C   UNL     1       4.140   5.980  18.763  0.00  0.00    +0.000 C 
ATOM      3  O   UNL     1       4.832   6.786  18.146  0.00  0.00    +0.000 OA
ATOM      4  N   UNL     1       2.885   6.264  19.285  0.00  0.00    +0.000 N 
ATOM      5  H   UNL     1       2.533   5.611  19.965  0.00  0.00    +0.000 HD
ENDROOT
BRANCH   4   6
ATOM      6  C   UNL     1       2.224   7.511  19.218  0.00  0.00    +0.000 A 
ATOM      7  C   UNL     1       1.643   8.119  20.328  0.00  0.00    +0.000 A 
ATOM      8  C   UNL     1       0.913   9.301  20.193  0.00  0.00    +0.000 A 
ATOM      9  C   UNL     1       0.746   9.910  18.944  0.00  0.00    +0.000 A 
ATOM     10  C   UNL     1       1.386   9.336  17.838  0.00  0.00    +0.000 A 
ATOM     11  C   UNL     1       2.132   8.152  17.977  0.00  0.00    +0.000 A 
BRANCH   9  12
ATOM     12  C   UNL     1      -0.076  11.100  18.811  0.00  0.00    +0.000 A 
ATOM     13  C   UNL     1       0.218  12.470  19.003  0.00  0.00    +0.000 A 
ATOM     14  N   UNL     1      -0.833  13.265  18.773  0.00  0.00    +0.000 NA
ATOM     15  N   UNL     1      -1.803  12.412  18.427  0.00  0.00    +0.000 N 
ATOM     16  C   UNL     1      -1.402  11.103  18.418  0.00  0.00    +0.000 A 
ATOM     17  H   UNL     1      -2.723  12.779  18.205  0.00  0.00    +0.000 HD
ENDBRANCH   9  12
ENDBRANCH   4   6
BRANCH   1  18
ATOM     18  C   UNL     1       3.763   3.637  19.586  0.00  0.00    +0.000 C 
ATOM     19  C   UNL     1       3.375   2.382  18.849  0.00  0.00    +0.000 C 
ATOM     20  C   UNL     1       4.356   2.304  19.975  0.00  0.00    +0.000 C 
ENDBRANCH   1  18
BRANCH   1  21
ATOM     21  C   UNL     1       5.896   4.282  18.453  0.00  0.00    +0.000 C 
BRANCH  21  26
ATOM     22  C   UNL     1       7.170   4.991  14.907  0.00  0.00    +0.000 A 
ATOM     23  C   UNL     1       6.133   4.462  14.137  0.00  0.00    +0.000 A 
ATOM     24  C   UNL     1       5.047   3.836  14.743  0.00  0.00    +0.000 A 
ATOM     25  C   UNL     1       4.971   3.763  16.133  0.00  0.00    +0.000 A 
ATOM     26  C   UNL     1       5.973   4.329  16.934  0.00  0.00    +0.000 A 
ATOM     27  C   UNL     1       7.099   4.904  16.301  0.00  0.00    +0.000 A 
BRANCH  22  29
ATOM     28  C   UNL     1       8.082   5.499  12.755  0.00  0.00    +0.000 C 
ATOM     29  O   UNL     1       8.164   5.574  14.170  0.00  0.00    +0.000 OA
ENDBRANCH  22  29
ENDBRANCH  21  26
ENDBRANCH   1  21
TORSDOF 6
ENDMDL
MODEL 7
REMARK VINA RESULT:      -7.3      3.117      9.387
REMARK  Name = 
REMARK  7 active torsions:
REMARK  status: ('A' for Active; 'I' for Inactive)
REMARK    1  A    between atoms: C_1  and  O_2
REMARK    2  A    between atoms: O_2  and  C_3
REMARK    3  A    between atoms: C_7  and  C_8
REMARK    4  A    between atoms: C_8  and  N_9
REMARK    5  A    between atoms: N_9  and  C_24
REMARK    6  A    between atoms: N_12  and  C_13
REMARK    7  A    between atoms: C_16  and  C_17
REMARK                            x       y       z     vdW  Elec       q    Type
REMARK                         _______ _______ _______ _____ _____    ______ ____
ROOT
ATOM      1  N   UNL     1       3.011   4.876  19.464  0.00  0.00    +0.000 N 
ATOM      2  C   UNL     1       2.548   6.121  19.003  0.00  0.00    +0.000 C 
ATOM      3  O   UNL     1       2.650   6.441  17.821  0.00  0.00    +0.000 OA
ATOM      4  N   UNL     1       2.015   6.937  19.992  0.00  0.00    +0.000 N 
ATOM      5  H   UNL     1       2.208   6.663  20.940  0.00  0.00    +0.000 HD
ENDROOT
BRANCH   4   6
ATOM      6  C   UNL     1       1.536   8.254  19.809  0.00  0.00    +0.000 A 
ATOM      7  C   UNL     1       1.702   8.959  18.620  0.00  0.00    +0.000 A 
ATOM      8  C   UNL     1       1.302  10.294  18.522  0.00  0.00    +0.000 A 
ATOM      9  C   UNL     1       0.723  10.957  19.609  0.00  0.00    +0.000 A 
ATOM     10  C   UNL     1       0.494  10.229  20.783  0.00  0.00    +0.000 A 
ATOM     11  C   UNL     1       0.886   8.882  20.878  0.00  0.00    +0.000 A 
BRANCH   9  12
ATOM     12  C   UNL     1       0.379  12.366  19.511  0.00  0.00    +0.000 A 
ATOM     13  C   UNL     1       0.740  13.478  20.306  0.00  0.00    +0.000 A 
ATOM     14  N   UNL     1       0.204  14.624  19.873  0.00  0.00    +0.000 NA
ATOM     15  N   UNL     1      -0.499  14.255  18.797  0.00  0.00    +0.000 N 
ATOM     16  C   UNL     1      -0.419  12.916  18.523  0.00  0.00    +0.000 A 
ATOM     17  H   UNL     1      -1.016  14.962  18.282  0.00  0.00    +0.000 HD
ENDBRANCH   9  12
ENDBRANCH   4   6
BRANCH   1  18
ATOM     18  C   UNL     1       2.762   4.377  20.798  0.00  0.00    +0.000 C 
ATOM     19  C   UNL     1       1.495   3.672  21.207  0.00  0.00    +0.000 C 
ATOM     20  C   UNL     1       2.765   2.892  21.075  0.00  0.00    +0.000 C 
ENDBRANCH   1  18
BRANCH   1  21
ATOM     21  C   UNL     1       3.540   3.932  18.464  0.00  0.00    +0.000 C 
BRANCH  21  26
ATOM     22  C   UNL     1       6.523   4.425  16.107  0.00  0.00    +0.000 A 
ATOM     23  C   UNL     1       7.527   4.777  17.012  0.00  0.00    +0.000 A 
ATOM     24  C   UNL     1       7.246   4.904  18.369  0.00  0.00    +0.000 A 
ATOM     25  C   UNL     1       5.960   4.646  18.842  0.00  0.00    +0.000 A 
ATOM     26  C   UNL     1       4.943   4.243  17.965  0.00  0.00    +0.000 A 
ATOM     27  C   UNL     1       5.231   4.181  16.582  0.00  0.00    +0.000 A 
BRANCH  22  29
ATOM     28  C   UNL     1       6.033   3.893  13.827  0.00  0.00    +0.000 C 
ATOM     29  O   UNL     1       6.953   4.340  14.811  0.00  0.00    +0.000 OA
ENDBRANCH  22  29
ENDBRANCH  21  26
ENDBRANCH   1  21
TORSDOF 6
ENDMDL
MODEL 8
REMARK VINA RESULT:      -7.3      1.972      2.776
REMARK  Name = 
REMARK  7 active torsions:
REMARK  status: ('A' for Active; 'I' for Inactive)
REMARK    1  A    between atoms: C_1  and  O_2
REMARK    2  A    between atoms: O_2  and  C_3
REMARK    3  A    between atoms: C_7  and  C_8
REMARK    4  A    between atoms: C_8  and  N_9
REMARK    5  A    between atoms: N_9  and  C_24
REMARK    6  A    between atoms: N_12  and  C_13
REMARK    7  A    between atoms: C_16  and  C_17
REMARK                            x       y       z     vdW  Elec       q    Type
REMARK                         _______ _______ _______ _____ _____    ______ ____
ROOT
ATOM      1  N   UNL     1       0.116  10.072  19.998  0.00  0.00    +0.000 N 
ATOM      2  C   UNL     1       1.176   9.543  19.241  0.00  0.00    +0.000 C 
ATOM      3  O   UNL     1       1.670  10.174  18.309  0.00  0.00    +0.000 OA
ATOM      4  N   UNL     1       1.571   8.267  19.619  0.00  0.00    +0.000 N 
ATOM      5  H   UNL     1       0.938   7.772  20.225  0.00  0.00    +0.000 HD
ENDROOT
BRANCH   4   6
ATOM      6  C   UNL     1       2.567   7.488  18.988  0.00  0.00    +0.000 A 
ATOM      7  C   UNL     1       3.047   6.297  19.525  0.00  0.00    +0.000 A 
ATOM      8  C   UNL     1       4.103   5.615  18.916  0.00  0.00    +0.000 A 
ATOM      9  C   UNL     1       4.705   6.105  17.753  0.00  0.00    +0.000 A 
ATOM     10  C   UNL     1       4.179   7.267  17.174  0.00  0.00    +0.000 A 
ATOM     11  C   UNL     1       3.107   7.946  17.780  0.00  0.00    +0.000 A 
BRANCH   9  12
ATOM     12  C   UNL     1       5.848   5.421  17.173  0.00  0.00    +0.000 A 
ATOM     13  C   UNL     1       6.999   4.850  17.764  0.00  0.00    +0.000 A 
ATOM     14  N   UNL     1       7.829   4.305  16.867  0.00  0.00    +0.000 NA
ATOM     15  N   UNL     1       7.214   4.519  15.699  0.00  0.00    +0.000 N 
ATOM     16  C   UNL     1       6.016   5.170  15.823  0.00  0.00    +0.000 A 
ATOM     17  H   UNL     1       7.658   4.196  14.845  0.00  0.00    +0.000 HD
ENDBRANCH   9  12
ENDBRANCH   4   6
BRANCH   1  18
ATOM     18  C   UNL     1      -0.385   9.456  21.208  0.00  0.00    +0.000 C 
ATOM     19  C   UNL     1       0.436   9.274  22.458  0.00  0.00    +0.000 C 
ATOM     20  C   UNL     1      -0.661  10.291  22.436  0.00  0.00    +0.000 C 
ENDBRANCH   1  18
BRANCH   1  21
ATOM     21  C   UNL     1      -0.322  11.445  19.694  0.00  0.00    +0.000 C 
BRANCH  21  26
ATOM     22  C   UNL     1      -3.213  11.265  17.183  0.00  0.00    +0.000 A 
ATOM     23  C   UNL     1      -4.264  11.781  17.943  0.00  0.00    +0.000 A 
ATOM     24  C   UNL     1      -4.066  12.144  19.273  0.00  0.00    +0.000 A 
ATOM     25  C   UNL     1      -2.802  12.026  19.847  0.00  0.00    +0.000 A 
ATOM     26  C   UNL     1      -1.715  11.558  19.094  0.00  0.00    +0.000 A 
ATOM     27  C   UNL     1      -1.949  11.134  17.765  0.00  0.00    +0.000 A 
BRANCH  22  29
ATOM     28  C   UNL     1      -2.877   9.892  15.253  0.00  0.00    +0.000 C 
ATOM     29  O   UNL     1      -3.562  10.956  15.897  0.00  0.00    +0.000 OA
ENDBRANCH  22  29
ENDBRANCH  21  26
ENDBRANCH   1  21
TORSDOF 6
ENDMDL
MODEL 9
REMARK VINA RESULT:      -7.3      1.966      2.953
REMARK  Name = 
REMARK  7 active torsions:
REMARK  status: ('A' for Active; 'I' for Inactive)
REMARK    1  A    between atoms: C_1  and  O_2
REMARK    2  A    between atoms: O_2  and  C_3
REMARK    3  A    between atoms: C_7  and  C_8
REMARK    4  A    between atoms: C_8  and  N_9
REMARK    5  A    between atoms: N_9  and  C_24
REMARK    6  A    between atoms: N_12  and  C_13
REMARK    7  A    between atoms: C_16  and  C_17
REMARK                            x       y       z     vdW  Elec       q    Type
REMARK                         _______ _______ _______ _____ _____    ______ ____
ROOT
ATOM      1  N   UNL     1      -0.202  11.269  20.230  0.00  0.00    +0.000 N 
ATOM      2  C   UNL     1       0.377  10.194  19.532  0.00  0.00    +0.000 C 
ATOM      3  O   UNL     1       0.292  10.109  18.310  0.00  0.00    +0.000 OA
ATOM      4  N   UNL     1       1.002   9.255  20.341  0.00  0.00    +0.000 N 
ATOM      5  H   UNL     1       0.795   9.313  21.324  0.00  0.00    +0.000 HD
ENDROOT
BRANCH   4   6
ATOM      6  C   UNL     1       1.607   8.056  19.902  0.00  0.00    +0.000 A 
ATOM      7  C   UNL     1       2.268   7.947  18.681  0.00  0.00    +0.000 A 
ATOM      8  C   UNL     1       2.761   6.715  18.246  0.00  0.00    +0.000 A 
ATOM      9  C   UNL     1       2.608   5.560  19.020  0.00  0.00    +0.000 A 
ATOM     10  C   UNL     1       2.003   5.681  20.277  0.00  0.00    +0.000 A 
ATOM     11  C   UNL     1       1.518   6.924  20.721  0.00  0.00    +0.000 A 
BRANCH   9  12
ATOM     12  C   UNL     1       3.064   4.274  18.519  0.00  0.00    +0.000 A 
ATOM     13  C   UNL     1       2.380   3.055  18.302  0.00  0.00    +0.000 A 
ATOM     14  N   UNL     1       3.173   2.092  17.821  0.00  0.00    +0.000 NA
ATOM     15  N   UNL     1       4.366   2.687  17.722  0.00  0.00    +0.000 N 
ATOM     16  C   UNL     1       4.357   4.000  18.111  0.00  0.00    +0.000 A 
ATOM     17  H   UNL     1       5.156   2.149  17.378  0.00  0.00    +0.000 HD
ENDBRANCH   9  12
ENDBRANCH   4   6
BRANCH   1  18
ATOM     18  C   UNL     1       0.015  11.514  21.639  0.00  0.00    +0.000 C 
ATOM     19  C   UNL     1      -0.706  12.578  22.426  0.00  0.00    +0.000 C 
ATOM     20  C   UNL     1      -1.039  11.137  22.654  0.00  0.00    +0.000 C 
ENDBRANCH   1  18
BRANCH   1  21
ATOM     21  C   UNL     1      -0.835  12.336  19.436  0.00  0.00    +0.000 C 
BRANCH  21  26
ATOM     22  C   UNL     1      -4.644  12.461  19.854  0.00  0.00    +0.000 A 
ATOM     23  C   UNL     1      -5.063  11.773  18.715  0.00  0.00    +0.000 A 
ATOM     24  C   UNL     1      -4.137  11.308  17.785  0.00  0.00    +0.000 A 
ATOM     25  C   UNL     1      -2.774  11.497  18.005  0.00  0.00    +0.000 A 
ATOM     26  C   UNL     1      -2.319  12.141  19.165  0.00  0.00    +0.000 A 
ATOM     27  C   UNL     1      -3.276  12.663  20.065  0.00  0.00    +0.000 A 
BRANCH  22  29
ATOM     28  C   UNL     1      -6.294  14.101  20.410  0.00  0.00    +0.000 C 
ATOM     29  O   UNL     1      -5.668  12.854  20.671  0.00  0.00    +0.000 OA
ENDBRANCH  22  29
ENDBRANCH  21  26
ENDBRANCH   1  21
TORSDOF 6
ENDMDL
