MODEL 1
REMARK VINA RESULT:      -8.4      0.000      0.000
REMARK  Name = 
REMARK  7 active torsions:
REMARK  status: ('A' for Active; 'I' for Inactive)
REMARK    1  A    between atoms: C_2  and  C_3
REMARK    2  A    between atoms: C_5  and  C_6
REMARK    3  A    between atoms: N_9  and  C_10
REMARK    4  A    between atoms: C_13  and  C_14
REMARK    5  A    between atoms: C_14  and  N_15
REMARK    6  A    between atoms: C_29  and  N_30
REMARK    7  A    between atoms: N_30  and  C_31
REMARK                            x       y       z     vdW  Elec       q    Type
REMARK                         _______ _______ _______ _____ _____    ______ ____
ROOT
ATOM      1  C   UNL     1       2.644   5.958  19.632  0.00  0.00    +0.000 A 
ATOM      2  N   UNL     1       3.760   5.925  18.877  0.00  0.00    +0.000 NA
ATOM      3  C   UNL     1       4.436   4.778  18.758  0.00  0.00    +0.000 A 
ATOM      4  N   UNL     1       5.644   4.798  18.065  0.00  0.00    +0.000 N 
ATOM      5  N   UNL     1       4.033   3.623  19.302  0.00  0.00    +0.000 NA
ATOM      6  C   UNL     1       2.891   3.666  20.026  0.00  0.00    +0.000 A 
ATOM      7  C   UNL     1       2.161   4.813  20.231  0.00  0.00    +0.000 A 
ATOM      8  F   UNL     1       1.060   4.795  20.989  0.00  0.00    +0.000 F 
ATOM      9  H   UNL     1       6.110   3.913  18.231  0.00  0.00    +0.000 HD
ENDROOT
BRANCH   1  12
ATOM     10  C   UNL     1       0.964   9.020  21.132  0.00  0.00    +0.000 A 
ATOM     11  C   UNL     1       1.571   7.763  21.009  0.00  0.00    +0.000 A 
ATOM     12  C   UNL     1       2.091   7.307  19.781  0.00  0.00    +0.000 A 
ATOM     13  C   UNL     1       1.958   8.186  18.719  0.00  0.00    +0.000 A 
ATOM     14  N   UNL     1       1.382   9.406  18.803  0.00  0.00    +0.000 NA
ATOM     15  C   UNL     1       0.887   9.817  19.996  0.00  0.00    +0.000 A 
BRANCH  10  17
ATOM     16  N   UNL     1       0.105   9.812  23.449  0.00  0.00    +0.000 NA
ATOM     17  C   UNL     1       0.499   9.424  22.428  0.00  0.00    +0.000 C 
ENDBRANCH  10  17
BRANCH  15  18
ATOM     18  N   UNL     1       0.388  11.114  19.914  0.00  0.00    +0.000 N 
ATOM     19  H   UNL     1       1.200  11.710  20.079  0.00  0.00    +0.000 HD
BRANCH  18  20
ATOM     20  C   UNL     1      -0.541  11.578  18.894  0.00  0.00    +0.000 C 
ATOM     21  C   UNL     1      -1.833  10.862  18.628  0.00  0.00    +0.000 C 
ATOM     22  C   UNL     1      -1.846  12.152  19.390  0.00  0.00    +0.000 C 
ENDBRANCH  18  20
ENDBRANCH  15  18
ENDBRANCH   1  12
BRANCH   4  23
ATOM     23  C   UNL     1       6.534   5.888  17.999  0.00  0.00    +0.000 A 
ATOM     24  C   UNL     1       7.539   5.996  18.954  0.00  0.00    +0.000 A 
ATOM     25  C   UNL     1       8.382   7.107  18.960  0.00  0.00    +0.000 A 
ATOM     26  C   UNL     1       8.187   8.128  18.029  0.00  0.00    +0.000 A 
ATOM     27  N   UNL     1       7.229   8.046  17.074  0.00  0.00    +0.000 NA
ATOM     28  C   UNL     1       6.444   6.933  17.074  0.00  0.00    +0.000 A 
BRANCH  26  29
ATOM     29  C   UNL     1       9.089   9.351  18.054  0.00  0.00    +0.000 C 
BRANCH  29  30
ATOM     30  N   UNL     1       8.651  10.570  18.755  0.00  0.00    +0.000 NA
ATOM     31  C   UNL     1       8.577  11.806  17.966  0.00  0.00    +0.000 C 
ATOM     32  C   UNL     1       9.880  12.624  17.919  0.00  0.00    +0.000 C 
ATOM     33  O   UNL     1      10.413  12.866  19.226  0.00  0.00    +0.000 OA
ATOM     34  C   UNL     1      10.611  11.641  19.943  0.00  0.00    +0.000 C 
ATOM     35  C   UNL     1       9.313  10.830  20.039  0.00  0.00    +0.000 C 
ENDBRANCH  29  30
ENDBRANCH  26  29
ENDBRANCH   4  23
TORSDOF 7
ENDMDL
MODEL 2
REMARK VINA RESULT:      -8.3      0.857      1.015
REMARK  Name = 
REMARK  7 active torsions:
REMARK  status: ('A' for Active; 'I' for Inactive)
REMARK    1  A    between atoms: C_2  and  C_3
REMARK    2  A    between atoms: C_5  and  C_6
REMARK    3  A    between atoms: N_9  and  C_10
REMARK    4  A    between atoms: C_13  and  C_14
REMARK    5  A    between atoms: C_14  and  N_15
REMARK    6  A    between atoms: C_29  and  N_30
REMARK    7  A    between atoms: N_30  and  C_31
REMARK                            x       y       z     vdW  Elec       q    Type
REMARK                         _______ _______ _______ _____ _____    ______ ____
ROOT
ATOM      1  C   UNL     1       2.598   6.007  19.592  0.00  0.00    +0.000 A 
ATOM      2  N   UNL     1       3.713   5.967  18.837  0.00  0.00    +0.000 NA
ATOM      3  C   UNL     1       4.382   4.817  18.717  0.00  0.00    +0.000 A 
ATOM      4  N   UNL     1       5.590   4.829  18.023  0.00  0.00    +0.000 N 
ATOM      5  N   UNL     1       3.972   3.664  19.260  0.00  0.00    +0.000 NA
ATOM      6  C   UNL     1       2.831   3.714  19.985  0.00  0.00    +0.000 A 
ATOM      7  C   UNL     1       2.108   4.865  20.190  0.00  0.00    +0.000 A 
ATOM      8  F   UNL     1       1.007   4.853  20.949  0.00  0.00    +0.000 F 
ATOM      9  H   UNL     1       6.050   3.941  18.189  0.00  0.00    +0.000 HD
ENDROOT
BRANCH   1  12
ATOM     10  C   UNL     1       0.963   9.088  21.103  0.00  0.00    +0.000 A 
ATOM     11  C   UNL     1       1.563   7.828  20.977  0.00  0.00    +0.000 A 
ATOM     12  C   UNL     1       2.054   7.359  19.742  0.00  0.00    +0.000 A 
ATOM     13  C   UNL     1       1.900   8.230  18.676  0.00  0.00    +0.000 A 
ATOM     14  N   UNL     1       1.331   9.453  18.763  0.00  0.00    +0.000 NA
ATOM     15  C   UNL     1       0.864   9.876  19.963  0.00  0.00    +0.000 A 
BRANCH  10  17
ATOM     16  N   UNL     1       0.131   9.791  23.459  0.00  0.00    +0.000 NA
ATOM     17  C   UNL     1       0.529   9.505  22.406  0.00  0.00    +0.000 C 
ENDBRANCH  10  17
BRANCH  15  18
ATOM     18  N   UNL     1       0.369  11.174  19.881  0.00  0.00    +0.000 N 
ATOM     19  H   UNL     1      -0.494  11.153  20.426  0.00  0.00    +0.000 HD
BRANCH  18  20
ATOM     20  C   UNL     1       1.177  12.376  20.021  0.00  0.00    +0.000 C 
ATOM     21  C   UNL     1       2.157  12.789  18.963  0.00  0.00    +0.000 C 
ATOM     22  C   UNL     1       0.852  13.514  19.083  0.00  0.00    +0.000 C 
ENDBRANCH  18  20
ENDBRANCH  15  18
ENDBRANCH   1  12
BRANCH   4  23
ATOM     23  C   UNL     1       6.486   5.913  17.957  0.00  0.00    +0.000 A 
ATOM     24  C   UNL     1       7.515   5.995  18.890  0.00  0.00    +0.000 A 
ATOM     25  C   UNL     1       8.366   7.099  18.898  0.00  0.00    +0.000 A 
ATOM     26  C   UNL     1       8.158   8.140  17.992  0.00  0.00    +0.000 A 
ATOM     27  N   UNL     1       7.177   8.084  17.059  0.00  0.00    +0.000 NA
ATOM     28  C   UNL     1       6.383   6.977  17.056  0.00  0.00    +0.000 A 
BRANCH  26  29
ATOM     29  C   UNL     1       9.070   9.355  18.020  0.00  0.00    +0.000 C 
BRANCH  29  30
ATOM     30  N   UNL     1       8.646  10.573  18.730  0.00  0.00    +0.000 NA
ATOM     31  C   UNL     1       8.559  11.811  17.945  0.00  0.00    +0.000 C 
ATOM     32  C   UNL     1       9.862  12.627  17.876  0.00  0.00    +0.000 C 
ATOM     33  O   UNL     1      10.418  12.867  19.174  0.00  0.00    +0.000 OA
ATOM     34  C   UNL     1      10.628  11.640  19.885  0.00  0.00    +0.000 C 
ATOM     35  C   UNL     1       9.331  10.830  20.003  0.00  0.00    +0.000 C 
ENDBRANCH  29  30
ENDBRANCH  26  29
ENDBRANCH   4  23
TORSDOF 7
ENDMDL
MODEL 3
REMARK VINA RESULT:      -7.9      3.222      7.617
REMARK  Name = 
REMARK  7 active torsions:
REMARK  status: ('A' for Active; 'I' for Inactive)
REMARK    1  A    between atoms: C_2  and  C_3
REMARK    2  A    between atoms: C_5  and  C_6
REMARK    3  A    between atoms: N_9  and  C_10
REMARK    4  A    between atoms: C_13  and  C_14
REMARK    5  A    between atoms: C_14  and  N_15
REMARK    6  A    between atoms: C_29  and  N_30
REMARK    7  A    between atoms: N_30  and  C_31
REMARK                            x       y       z     vdW  Elec       q    Type
REMARK                         _______ _______ _______ _____ _____    ______ ____
ROOT
ATOM      1  C   UNL     1       3.432   4.197  19.000  0.00  0.00    +0.000 A 
ATOM      2  N   UNL     1       3.043   5.270  19.717  0.00  0.00    +0.000 NA
ATOM      3  C   UNL     1       2.120   5.120  20.671  0.00  0.00    +0.000 A 
ATOM      4  N   UNL     1       1.655   6.262  21.320  0.00  0.00    +0.000 N 
ATOM      5  N   UNL     1       1.592   3.937  21.009  0.00  0.00    +0.000 NA
ATOM      6  C   UNL     1       2.021   2.865  20.304  0.00  0.00    +0.000 A 
ATOM      7  C   UNL     1       2.935   2.941  19.281  0.00  0.00    +0.000 A 
ATOM      8  F   UNL     1       3.289   1.847  18.599  0.00  0.00    +0.000 F 
ATOM      9  H   UNL     1       0.841   5.998  21.863  0.00  0.00    +0.000 HD
ENDROOT
BRANCH   1  12
ATOM     10  C   UNL     1       6.051   6.000  16.916  0.00  0.00    +0.000 A 
ATOM     11  C   UNL     1       5.242   5.619  17.995  0.00  0.00    +0.000 A 
ATOM     12  C   UNL     1       4.341   4.538  17.903  0.00  0.00    +0.000 A 
ATOM     13  C   UNL     1       4.320   3.889  16.679  0.00  0.00    +0.000 A 
ATOM     14  N   UNL     1       5.089   4.227  15.621  0.00  0.00    +0.000 NA
ATOM     15  C   UNL     1       5.942   5.274  15.736  0.00  0.00    +0.000 A 
BRANCH  10  17
ATOM     16  N   UNL     1       7.753   7.920  17.302  0.00  0.00    +0.000 NA
ATOM     17  C   UNL     1       6.970   7.085  17.109  0.00  0.00    +0.000 C 
ENDBRANCH  10  17
BRANCH  15  18
ATOM     18  N   UNL     1       6.694   5.441  14.577  0.00  0.00    +0.000 N 
ATOM     19  H   UNL     1       7.400   6.132  14.829  0.00  0.00    +0.000 HD
BRANCH  18  20
ATOM     20  C   UNL     1       7.148   4.353  13.724  0.00  0.00    +0.000 C 
ATOM     21  C   UNL     1       6.263   3.765  12.665  0.00  0.00    +0.000 C 
ATOM     22  C   UNL     1       7.372   4.691  12.270  0.00  0.00    +0.000 C 
ENDBRANCH  18  20
ENDBRANCH  15  18
ENDBRANCH   1  12
BRANCH   4  23
ATOM     23  C   UNL     1       1.547   7.543  20.746  0.00  0.00    +0.000 A 
ATOM     24  C   UNL     1       1.011   8.579  21.505  0.00  0.00    +0.000 A 
ATOM     25  C   UNL     1       0.818   9.836  20.937  0.00  0.00    +0.000 A 
ATOM     26  C   UNL     1       1.128  10.042  19.591  0.00  0.00    +0.000 A 
ATOM     27  N   UNL     1       1.668   9.061  18.829  0.00  0.00    +0.000 NA
ATOM     28  C   UNL     1       1.876   7.854  19.423  0.00  0.00    +0.000 A 
BRANCH  26  29
ATOM     29  C   UNL     1       0.892  11.407  18.965  0.00  0.00    +0.000 C 
BRANCH  29  30
ATOM     30  N   UNL     1       0.898  12.612  19.811  0.00  0.00    +0.000 NA
ATOM     31  C   UNL     1      -0.277  13.488  19.738  0.00  0.00    +0.000 C 
ATOM     32  C   UNL     1      -0.208  14.577  18.651  0.00  0.00    +0.000 C 
ATOM     33  O   UNL     1       1.006  15.333  18.722  0.00  0.00    +0.000 OA
ATOM     34  C   UNL     1       2.156  14.478  18.655  0.00  0.00    +0.000 C 
ATOM     35  C   UNL     1       2.128  13.412  19.757  0.00  0.00    +0.000 C 
ENDBRANCH  29  30
ENDBRANCH  26  29
ENDBRANCH   4  23
TORSDOF 7
ENDMDL
MODEL 4
REMARK VINA RESULT:      -7.9      0.764      1.026
REMARK  Name = 
REMARK  7 active torsions:
REMARK  status: ('A' for Active; 'I' for Inactive)
REMARK    1  A    between atoms: C_2  and  C_3
REMARK    2  A    between atoms: C_5  and  C_6
REMARK    3  A    between atoms: N_9  and  C_10
REMARK    4  A    between atoms: C_13  and  C_14
REMARK    5  A    between atoms: C_14  and  N_15
REMARK    6  A    between atoms: C_29  and  N_30
REMARK    7  A    between atoms: N_30  and  C_31
REMARK                            x       y       z     vdW  Elec       q    Type
REMARK                         _______ _______ _______ _____ _____    ______ ____
ROOT
ATOM      1  C   UNL     1       2.978   5.960  19.530  0.00  0.00    +0.000 A 
ATOM      2  N   UNL     1       4.114   6.063  18.813  0.00  0.00    +0.000 NA
ATOM      3  C   UNL     1       4.942   5.016  18.744  0.00  0.00    +0.000 A 
ATOM      4  N   UNL     1       6.161   5.185  18.091  0.00  0.00    +0.000 N 
ATOM      5  N   UNL     1       4.678   3.828  19.301  0.00  0.00    +0.000 NA
ATOM      6  C   UNL     1       3.516   3.731  19.987  0.00  0.00    +0.000 A 
ATOM      7  C   UNL     1       2.632   4.772  20.140  0.00  0.00    +0.000 A 
ATOM      8  F   UNL     1       1.517   4.620  20.862  0.00  0.00    +0.000 F 
ATOM      9  H   UNL     1       6.735   4.374  18.293  0.00  0.00    +0.000 HD
ENDROOT
BRANCH   1  12
ATOM     10  C   UNL     1       0.858   8.800  20.904  0.00  0.00    +0.000 A 
ATOM     11  C   UNL     1       1.633   7.635  20.830  0.00  0.00    +0.000 A 
ATOM     12  C   UNL     1       2.244   7.224  19.628  0.00  0.00    +0.000 A 
ATOM     13  C   UNL     1       2.023   8.052  18.540  0.00  0.00    +0.000 A 
ATOM     14  N   UNL     1       1.286   9.184  18.577  0.00  0.00    +0.000 NA
ATOM     15  C   UNL     1       0.706   9.552  19.745  0.00  0.00    +0.000 A 
BRANCH  10  17
ATOM     16  N   UNL     1      -0.187   9.416  23.198  0.00  0.00    +0.000 NA
ATOM     17  C   UNL     1       0.307   9.168  22.177  0.00  0.00    +0.000 C 
ENDBRANCH  10  17
BRANCH  15  18
ATOM     18  N   UNL     1       0.039  10.767  19.615  0.00  0.00    +0.000 N 
ATOM     19  H   UNL     1       0.770  11.471  19.725  0.00  0.00    +0.000 HD
BRANCH  18  20
ATOM     20  C   UNL     1      -0.967  11.052  18.604  0.00  0.00    +0.000 C 
ATOM     21  C   UNL     1      -2.244  11.761  18.948  0.00  0.00    +0.000 C 
ATOM     22  C   UNL     1      -1.155  12.504  18.237  0.00  0.00    +0.000 C 
ENDBRANCH  18  20
ENDBRANCH  15  18
ENDBRANCH   1  12
BRANCH   4  23
ATOM     23  C   UNL     1       6.898   6.384  18.027  0.00  0.00    +0.000 A 
ATOM     24  C   UNL     1       7.932   6.588  18.935  0.00  0.00    +0.000 A 
ATOM     25  C   UNL     1       8.624   7.798  18.948  0.00  0.00    +0.000 A 
ATOM     26  C   UNL     1       8.248   8.818  18.072  0.00  0.00    +0.000 A 
ATOM     27  N   UNL     1       7.258   8.647  17.164  0.00  0.00    +0.000 NA
ATOM     28  C   UNL     1       6.624   7.442  17.155  0.00  0.00    +0.000 A 
BRANCH  26  29
ATOM     29  C   UNL     1       8.986  10.147  18.106  0.00  0.00    +0.000 C 
BRANCH  29  30
ATOM     30  N   UNL     1       9.883  10.459  19.231  0.00  0.00    +0.000 NA
ATOM     31  C   UNL     1       9.265  10.989  20.453  0.00  0.00    +0.000 C 
ATOM     32  C   UNL     1       9.120  12.522  20.493  0.00  0.00    +0.000 C 
ATOM     33  O   UNL     1      10.352  13.188  20.196  0.00  0.00    +0.000 OA
ATOM     34  C   UNL     1      10.882  12.764  18.933  0.00  0.00    +0.000 C 
ATOM     35  C   UNL     1      11.075  11.243  18.887  0.00  0.00    +0.000 C 
ENDBRANCH  29  30
ENDBRANCH  26  29
ENDBRANCH   4  23
TORSDOF 7
ENDMDL
MODEL 5
REMARK VINA RESULT:      -7.9      1.487      2.270
REMARK  Name = 
REMARK  7 active torsions:
REMARK  status: ('A' for Active; 'I' for Inactive)
REMARK    1  A    between atoms: C_2  and  C_3
REMARK    2  A    between atoms: C_5  and  C_6
REMARK    3  A    between atoms: N_9  and  C_10
REMARK    4  A    between atoms: C_13  and  C_14
REMARK    5  A    between atoms: C_14  and  N_15
REMARK    6  A    between atoms: C_29  and  N_30
REMARK    7  A    between atoms: N_30  and  C_31
REMARK                            x       y       z     vdW  Elec       q    Type
REMARK                         _______ _______ _______ _____ _____    ______ ____
ROOT
ATOM      1  C   UNL     1       3.247   5.101  19.617  0.00  0.00    +0.000 A 
ATOM      2  N   UNL     1       4.322   5.357  18.845  0.00  0.00    +0.000 NA
ATOM      3  C   UNL     1       5.241   4.405  18.665  0.00  0.00    +0.000 A 
ATOM      4  N   UNL     1       6.395   4.732  17.956  0.00  0.00    +0.000 N 
ATOM      5  N   UNL     1       5.129   3.167  19.162  0.00  0.00    +0.000 NA
ATOM      6  C   UNL     1       4.027   2.915  19.904  0.00  0.00    +0.000 A 
ATOM      7  C   UNL     1       3.057   3.851  20.171  0.00  0.00    +0.000 A 
ATOM      8  F   UNL     1       2.009   3.548  20.943  0.00  0.00    +0.000 F 
ATOM      9  H   UNL     1       7.056   3.973  18.075  0.00  0.00    +0.000 HD
ENDROOT
BRANCH   1  12
ATOM     10  C   UNL     1       1.729   8.566  19.251  0.00  0.00    +0.000 A 
ATOM     11  C   UNL     1       2.474   7.407  18.995  0.00  0.00    +0.000 A 
ATOM     12  C   UNL     1       2.401   6.277  19.834  0.00  0.00    +0.000 A 
ATOM     13  C   UNL     1       1.547   6.399  20.917  0.00  0.00    +0.000 A 
ATOM     14  N   UNL     1       0.811   7.499  21.191  0.00  0.00    +0.000 NA
ATOM     15  C   UNL     1       0.904   8.573  20.369  0.00  0.00    +0.000 A 
BRANCH  10  17
ATOM     16  N   UNL     1       1.970  10.509  17.548  0.00  0.00    +0.000 NA
ATOM     17  C   UNL     1       1.829   9.655  18.322  0.00  0.00    +0.000 C 
ENDBRANCH  10  17
BRANCH  15  18
ATOM     18  N   UNL     1       0.037   9.587  20.766  0.00  0.00    +0.000 N 
ATOM     19  H   UNL     1      -0.894   9.184  20.653  0.00  0.00    +0.000 HD
BRANCH  18  20
ATOM     20  C   UNL     1       0.227  10.422  21.943  0.00  0.00    +0.000 C 
ATOM     21  C   UNL     1      -0.721  11.538  22.273  0.00  0.00    +0.000 C 
ATOM     22  C   UNL     1      -0.786  10.258  23.050  0.00  0.00    +0.000 C 
ENDBRANCH  18  20
ENDBRANCH  15  18
ENDBRANCH   1  12
BRANCH   4  23
ATOM     23  C   UNL     1       7.007   6.000  17.926  0.00  0.00    +0.000 A 
ATOM     24  C   UNL     1       7.929   6.327  18.914  0.00  0.00    +0.000 A 
ATOM     25  C   UNL     1       8.488   7.603  18.955  0.00  0.00    +0.000 A 
ATOM     26  C   UNL     1       8.088   8.564  18.024  0.00  0.00    +0.000 A 
ATOM     27  N   UNL     1       7.205   8.274  17.039  0.00  0.00    +0.000 NA
ATOM     28  C   UNL     1       6.703   7.009  17.006  0.00  0.00    +0.000 A 
BRANCH  26  29
ATOM     29  C   UNL     1       8.678   9.963  18.087  0.00  0.00    +0.000 C 
BRANCH  29  30
ATOM     30  N   UNL     1       9.709  10.280  19.090  0.00  0.00    +0.000 NA
ATOM     31  C   UNL     1       9.252  10.849  20.364  0.00  0.00    +0.000 C 
ATOM     32  C   UNL     1       9.141  12.385  20.385  0.00  0.00    +0.000 C 
ATOM     33  O   UNL     1      10.341  13.018  19.928  0.00  0.00    +0.000 OA
ATOM     34  C   UNL     1      10.708  12.556  18.621  0.00  0.00    +0.000 C 
ATOM     35  C   UNL     1      10.866  11.031  18.588  0.00  0.00    +0.000 C 
ENDBRANCH  29  30
ENDBRANCH  26  29
ENDBRANCH   4  23
TORSDOF 7
ENDMDL
MODEL 6
REMARK VINA RESULT:      -7.8      1.020      1.242
REMARK  Name = 
REMARK  7 active torsions:
REMARK  status: ('A' for Active; 'I' for Inactive)
REMARK    1  A    between atoms: C_2  and  C_3
REMARK    2  A    between atoms: C_5  and  C_6
REMARK    3  A    between atoms: N_9  and  C_10
REMARK    4  A    between atoms: C_13  and  C_14
REMARK    5  A    between atoms: C_14  and  N_15
REMARK    6  A    between atoms: C_29  and  N_30
REMARK    7  A    between atoms: N_30  and  C_31
REMARK                            x       y       z     vdW  Elec       q    Type
REMARK                         _______ _______ _______ _____ _____    ______ ____
ROOT
ATOM      1  C   UNL     1       2.951   6.076  18.635  0.00  0.00    +0.000 A 
ATOM      2  N   UNL     1       4.171   6.243  18.088  0.00  0.00    +0.000 NA
ATOM      3  C   UNL     1       4.939   5.174  17.861  0.00  0.00    +0.000 A 
ATOM      4  N   UNL     1       6.237   5.385  17.400  0.00  0.00    +0.000 N 
ATOM      5  N   UNL     1       4.541   3.917  18.090  0.00  0.00    +0.000 NA
ATOM      6  C   UNL     1       3.300   3.764  18.605  0.00  0.00    +0.000 A 
ATOM      7  C   UNL     1       2.464   4.813  18.905  0.00  0.00    +0.000 A 
ATOM      8  F   UNL     1       1.262   4.595  19.448  0.00  0.00    +0.000 F 
ATOM      9  H   UNL     1       6.734   4.503  17.465  0.00  0.00    +0.000 HD
ENDROOT
BRANCH   1  12
ATOM     10  C   UNL     1       1.199   8.844  20.563  0.00  0.00    +0.000 A 
ATOM     11  C   UNL     1       1.913   7.675  20.270  0.00  0.00    +0.000 A 
ATOM     12  C   UNL     1       2.284   7.342  18.951  0.00  0.00    +0.000 A 
ATOM     13  C   UNL     1       1.893   8.249  17.980  0.00  0.00    +0.000 A 
ATOM     14  N   UNL     1       1.208   9.387  18.227  0.00  0.00    +0.000 NA
ATOM     15  C   UNL     1       0.861   9.680  19.505  0.00  0.00    +0.000 A 
BRANCH  10  17
ATOM     16  N   UNL     1       0.593   9.382  23.028  0.00  0.00    +0.000 NA
ATOM     17  C   UNL     1       0.899   9.129  21.937  0.00  0.00    +0.000 C 
ENDBRANCH  10  17
BRANCH  15  18
ATOM     18  N   UNL     1       0.217  10.912  19.581  0.00  0.00    +0.000 N 
ATOM     19  H   UNL     1       0.963  11.597  19.456  0.00  0.00    +0.000 HD
BRANCH  18  20
ATOM     20  C   UNL     1      -1.046  11.225  18.930  0.00  0.00    +0.000 C 
ATOM     21  C   UNL     1      -2.029  12.177  19.544  0.00  0.00    +0.000 C 
ATOM     22  C   UNL     1      -1.190  12.627  18.388  0.00  0.00    +0.000 C 
ENDBRANCH  18  20
ENDBRANCH  15  18
ENDBRANCH   1  12
BRANCH   4  23
ATOM     23  C   UNL     1       7.043   6.499  17.702  0.00  0.00    +0.000 A 
ATOM     24  C   UNL     1       7.872   6.449  18.818  0.00  0.00    +0.000 A 
ATOM     25  C   UNL     1       8.619   7.567  19.185  0.00  0.00    +0.000 A 
ATOM     26  C   UNL     1       8.502   8.749  18.452  0.00  0.00    +0.000 A 
ATOM     27  N   UNL     1       7.718   8.826  17.349  0.00  0.00    +0.000 NA
ATOM     28  C   UNL     1       7.027   7.707  16.997  0.00  0.00    +0.000 A 
BRANCH  26  29
ATOM     29  C   UNL     1       9.297   9.976  18.870  0.00  0.00    +0.000 C 
BRANCH  29  30
ATOM     30  N   UNL     1       9.579  11.036  17.887  0.00  0.00    +0.000 NA
ATOM     31  C   UNL     1      10.975  11.464  17.746  0.00  0.00    +0.000 C 
ATOM     32  C   UNL     1      11.404  12.599  18.694  0.00  0.00    +0.000 C 
ATOM     33  O   UNL     1      10.506  13.713  18.642  0.00  0.00    +0.000 OA
ATOM     34  C   UNL     1       9.158  13.308  18.916  0.00  0.00    +0.000 C 
ATOM     35  C   UNL     1       8.696  12.207  17.954  0.00  0.00    +0.000 C 
ENDBRANCH  29  30
ENDBRANCH  26  29
ENDBRANCH   4  23
TORSDOF 7
ENDMDL
MODEL 7
REMARK VINA RESULT:      -7.8      4.050      6.987
REMARK  Name = 
REMARK  7 active torsions:
REMARK  status: ('A' for Active; 'I' for Inactive)
REMARK    1  A    between atoms: C_2  and  C_3
REMARK    2  A    between atoms: C_5  and  C_6
REMARK    3  A    between atoms: N_9  and  C_10
REMARK    4  A    between atoms: C_13  and  C_14
REMARK    5  A    between atoms: C_14  and  N_15
REMARK    6  A    between atoms: C_29  and  N_30
REMARK    7  A    between atoms: N_30  and  C_31
REMARK                            x       y       z     vdW  Elec       q    Type
REMARK                         _______ _______ _______ _____ _____    ______ ____
ROOT
ATOM      1  C   UNL     1      -0.823  10.851  19.724  0.00  0.00    +0.000 A 
ATOM      2  N   UNL     1      -0.219   9.698  20.072  0.00  0.00    +0.000 NA
ATOM      3  C   UNL     1       0.690   9.705  21.052  0.00  0.00    +0.000 A 
ATOM      4  N   UNL     1       1.380   8.523  21.315  0.00  0.00    +0.000 N 
ATOM      5  N   UNL     1       0.998  10.794  21.766  0.00  0.00    +0.000 NA
ATOM      6  C   UNL     1       0.355  11.936  21.428  0.00  0.00    +0.000 A 
ATOM      7  C   UNL     1      -0.561  12.021  20.406  0.00  0.00    +0.000 A 
ATOM      8  F   UNL     1      -1.134  13.189  20.099  0.00  0.00    +0.000 F 
ATOM      9  H   UNL     1       2.147   8.747  21.939  0.00  0.00    +0.000 HD
ENDROOT
BRANCH   1  12
ATOM     10  C   UNL     1      -3.840  11.076  17.423  0.00  0.00    +0.000 A 
ATOM     11  C   UNL     1      -2.980  11.277  18.510  0.00  0.00    +0.000 A 
ATOM     12  C   UNL     1      -1.688  10.714  18.549  0.00  0.00    +0.000 A 
ATOM     13  C   UNL     1      -1.340   9.957  17.443  0.00  0.00    +0.000 A 
ATOM     14  N   UNL     1      -2.142   9.745  16.377  0.00  0.00    +0.000 NA
ATOM     15  C   UNL     1      -3.381  10.295  16.368  0.00  0.00    +0.000 A 
BRANCH  10  17
ATOM     16  N   UNL     1      -6.127  12.301  17.447  0.00  0.00    +0.000 NA
ATOM     17  C   UNL     1      -5.122  11.720  17.444  0.00  0.00    +0.000 C 
ENDBRANCH  10  17
BRANCH  15  18
ATOM     18  N   UNL     1      -4.042  10.027  15.173  0.00  0.00    +0.000 N 
ATOM     19  H   UNL     1      -5.017  10.260  15.364  0.00  0.00    +0.000 HD
BRANCH  18  20
ATOM     20  C   UNL     1      -3.549  10.397  13.855  0.00  0.00    +0.000 C 
ATOM     21  C   UNL     1      -2.857   9.402  12.970  0.00  0.00    +0.000 C 
ATOM     22  C   UNL     1      -4.273   9.794  12.676  0.00  0.00    +0.000 C 
ENDBRANCH  18  20
ENDBRANCH  15  18
ENDBRANCH   1  12
BRANCH   4  23
ATOM     23  C   UNL     1       1.706   7.536  20.367  0.00  0.00    +0.000 A 
ATOM     24  C   UNL     1       1.549   6.196  20.707  0.00  0.00    +0.000 A 
ATOM     25  C   UNL     1       1.941   5.197  19.817  0.00  0.00    +0.000 A 
ATOM     26  C   UNL     1       2.527   5.547  18.600  0.00  0.00    +0.000 A 
ATOM     27  N   UNL     1       2.679   6.841  18.229  0.00  0.00    +0.000 NA
ATOM     28  C   UNL     1       2.256   7.793  19.106  0.00  0.00    +0.000 A 
BRANCH  26  29
ATOM     29  C   UNL     1       2.979   4.456  17.642  0.00  0.00    +0.000 C 
BRANCH  29  30
ATOM     30  N   UNL     1       4.292   3.815  17.827  0.00  0.00    +0.000 NA
ATOM     31  C   UNL     1       4.975   4.045  19.106  0.00  0.00    +0.000 C 
ATOM     32  C   UNL     1       5.877   5.292  19.144  0.00  0.00    +0.000 C 
ATOM     33  O   UNL     1       6.795   5.327  18.045  0.00  0.00    +0.000 OA
ATOM     34  C   UNL     1       6.108   5.239  16.790  0.00  0.00    +0.000 C 
ATOM     35  C   UNL     1       5.235   3.980  16.714  0.00  0.00    +0.000 C 
ENDBRANCH  29  30
ENDBRANCH  26  29
ENDBRANCH   4  23
TORSDOF 7
ENDMDL
MODEL 8
REMARK VINA RESULT:      -7.8      1.324      2.020
REMARK  Name = 
REMARK  7 active torsions:
REMARK  status: ('A' for Active; 'I' for Inactive)
REMARK    1  A    between atoms: C_2  and  C_3
REMARK    2  A    between atoms: C_5  and  C_6
REMARK    3  A    between atoms: N_9  and  C_10
REMARK    4  A    between atoms: C_13  and  C_14
REMARK    5  A    between atoms: C_14  and  N_15
REMARK    6  A    between atoms: C_29  and  N_30
REMARK    7  A    between atoms: N_30  and  C_31
REMARK                            x       y       z     vdW  Elec       q    Type
REMARK                         _______ _______ _______ _____ _____    ______ ____
ROOT
ATOM      1  C   UNL     1       2.970   4.958  19.959  0.00  0.00    +0.000 A 
ATOM      2  N   UNL     1       4.024   5.019  19.121  0.00  0.00    +0.000 NA
ATOM      3  C   UNL     1       4.852   3.975  19.034  0.00  0.00    +0.000 A 
ATOM      4  N   UNL     1       5.994   4.106  18.247  0.00  0.00    +0.000 N 
ATOM      5  N   UNL     1       4.664   2.825  19.694  0.00  0.00    +0.000 NA
ATOM      6  C   UNL     1       3.581   2.768  20.503  0.00  0.00    +0.000 A 
ATOM      7  C   UNL     1       2.704   3.812  20.679  0.00  0.00    +0.000 A 
ATOM      8  F   UNL     1       1.673   3.703  21.523  0.00  0.00    +0.000 F 
ATOM      9  H   UNL     1       6.596   3.314  18.441  0.00  0.00    +0.000 HD
ENDROOT
BRANCH   1  12
ATOM     10  C   UNL     1       1.760   8.486  19.224  0.00  0.00    +0.000 A 
ATOM     11  C   UNL     1       2.396   7.245  19.092  0.00  0.00    +0.000 A 
ATOM     12  C   UNL     1       2.234   6.222  20.050  0.00  0.00    +0.000 A 
ATOM     13  C   UNL     1       1.408   6.537  21.116  0.00  0.00    +0.000 A 
ATOM     14  N   UNL     1       0.776   7.721  21.271  0.00  0.00    +0.000 NA
ATOM     15  C   UNL     1       0.954   8.687  20.337  0.00  0.00    +0.000 A 
BRANCH  10  17
ATOM     16  N   UNL     1       2.162  10.243  17.357  0.00  0.00    +0.000 NA
ATOM     17  C   UNL     1       1.945   9.456  18.182  0.00  0.00    +0.000 C 
ENDBRANCH  10  17
BRANCH  15  18
ATOM     18  N   UNL     1       0.185   9.811  20.625  0.00  0.00    +0.000 N 
ATOM     19  H   UNL     1      -0.668   9.437  21.042  0.00  0.00    +0.000 HD
BRANCH  18  20
ATOM     20  C   UNL     1       0.700  11.033  21.225  0.00  0.00    +0.000 C 
ATOM     21  C   UNL     1       0.767  12.318  20.453  0.00  0.00    +0.000 C 
ATOM     22  C   UNL     1      -0.306  12.128  21.482  0.00  0.00    +0.000 C 
ENDBRANCH  18  20
ENDBRANCH  15  18
ENDBRANCH   1  12
BRANCH   4  23
ATOM     23  C   UNL     1       6.705   5.302  18.027  0.00  0.00    +0.000 A 
ATOM     24  C   UNL     1       7.601   5.741  18.996  0.00  0.00    +0.000 A 
ATOM     25  C   UNL     1       8.257   6.961  18.842  0.00  0.00    +0.000 A 
ATOM     26  C   UNL     1       7.981   7.759  17.730  0.00  0.00    +0.000 A 
ATOM     27  N   UNL     1       7.128   7.353  16.759  0.00  0.00    +0.000 NA
ATOM     28  C   UNL     1       6.529   6.142  16.923  0.00  0.00    +0.000 A 
BRANCH  26  29
ATOM     29  C   UNL     1       8.677   9.102  17.576  0.00  0.00    +0.000 C 
BRANCH  29  30
ATOM     30  N   UNL     1       8.375  10.194  18.516  0.00  0.00    +0.000 NA
ATOM     31  C   UNL     1       8.064  11.508  17.939  0.00  0.00    +0.000 C 
ATOM     32  C   UNL     1       9.284  12.414  17.694  0.00  0.00    +0.000 C 
ATOM     33  O   UNL     1      10.108  12.535  18.859  0.00  0.00    +0.000 OA
ATOM     34  C   UNL     1      10.522  11.249  19.340  0.00  0.00    +0.000 C 
ATOM     35  C   UNL     1       9.319  10.344  19.631  0.00  0.00    +0.000 C 
ENDBRANCH  29  30
ENDBRANCH  26  29
ENDBRANCH   4  23
TORSDOF 7
ENDMDL
MODEL 9
REMARK VINA RESULT:      -7.8      3.453      8.051
REMARK  Name = 
REMARK  7 active torsions:
REMARK  status: ('A' for Active; 'I' for Inactive)
REMARK    1  A    between atoms: C_2  and  C_3
REMARK    2  A    between atoms: C_5  and  C_6
REMARK    3  A    between atoms: N_9  and  C_10
REMARK    4  A    between atoms: C_13  and  C_14
REMARK    5  A    between atoms: C_14  and  N_15
REMARK    6  A    between atoms: C_29  and  N_30
REMARK    7  A    between atoms: N_30  and  C_31
REMARK                            x       y       z     vdW  Elec       q    Type
REMARK                         _______ _______ _______ _____ _____    ______ ____
ROOT
ATOM      1  C   UNL     1       3.335   4.211  18.941  0.00  0.00    +0.000 A 
ATOM      2  N   UNL     1       2.966   5.270  19.688  0.00  0.00    +0.000 NA
ATOM      3  C   UNL     1       2.022   5.115  20.621  0.00  0.00    +0.000 A 
ATOM      4  N   UNL     1       1.580   6.248  21.301  0.00  0.00    +0.000 N 
ATOM      5  N   UNL     1       1.451   3.938  20.907  0.00  0.00    +0.000 NA
ATOM      6  C   UNL     1       1.860   2.879  20.172  0.00  0.00    +0.000 A 
ATOM      7  C   UNL     1       2.795   2.962  19.168  0.00  0.00    +0.000 A 
ATOM      8  F   UNL     1       3.127   1.882  18.453  0.00  0.00    +0.000 F 
ATOM      9  H   UNL     1       0.748   5.991  21.820  0.00  0.00    +0.000 HD
ENDROOT
BRANCH   1  12
ATOM     10  C   UNL     1       6.011   6.032  16.948  0.00  0.00    +0.000 A 
ATOM     11  C   UNL     1       5.172   5.641  17.999  0.00  0.00    +0.000 A 
ATOM     12  C   UNL     1       4.275   4.561  17.872  0.00  0.00    +0.000 A 
ATOM     13  C   UNL     1       4.288   3.924  16.643  0.00  0.00    +0.000 A 
ATOM     14  N   UNL     1       5.086   4.271  15.609  0.00  0.00    +0.000 NA
ATOM     15  C   UNL     1       5.936   5.317  15.758  0.00  0.00    +0.000 A 
BRANCH  10  17
ATOM     16  N   UNL     1       7.683   7.986  17.293  0.00  0.00    +0.000 NA
ATOM     17  C   UNL     1       6.925   7.115  17.175  0.00  0.00    +0.000 C 
ENDBRANCH  10  17
BRANCH  15  18
ATOM     18  N   UNL     1       6.720   5.494  14.622  0.00  0.00    +0.000 N 
ATOM     19  H   UNL     1       7.414   6.189  14.897  0.00  0.00    +0.000 HD
BRANCH  18  20
ATOM     20  C   UNL     1       7.207   4.412  13.778  0.00  0.00    +0.000 C 
ATOM     21  C   UNL     1       6.351   3.813  12.702  0.00  0.00    +0.000 C 
ATOM     22  C   UNL     1       7.455   4.754  12.329  0.00  0.00    +0.000 C 
ENDBRANCH  18  20
ENDBRANCH  15  18
ENDBRANCH   1  12
BRANCH   4  23
ATOM     23  C   UNL     1       1.522   7.552  20.772  0.00  0.00    +0.000 A 
ATOM     24  C   UNL     1       1.089   8.592  21.588  0.00  0.00    +0.000 A 
ATOM     25  C   UNL     1       0.945   9.877  21.068  0.00  0.00    +0.000 A 
ATOM     26  C   UNL     1       1.200  10.107  19.715  0.00  0.00    +0.000 A 
ATOM     27  N   UNL     1       1.640   9.121  18.896  0.00  0.00    +0.000 NA
ATOM     28  C   UNL     1       1.803   7.885  19.443  0.00  0.00    +0.000 A 
BRANCH  26  29
ATOM     29  C   UNL     1       1.017  11.503  19.142  0.00  0.00    +0.000 C 
BRANCH  29  30
ATOM     30  N   UNL     1      -0.307  11.928  18.656  0.00  0.00    +0.000 NA
ATOM     31  C   UNL     1      -0.493  13.358  18.382  0.00  0.00    +0.000 C 
ATOM     32  C   UNL     1      -0.963  14.193  19.586  0.00  0.00    +0.000 C 
ATOM     33  O   UNL     1      -2.117  13.626  20.218  0.00  0.00    +0.000 OA
ATOM     34  C   UNL     1      -1.881  12.266  20.607  0.00  0.00    +0.000 C 
ATOM     35  C   UNL     1      -1.452  11.406  19.413  0.00  0.00    +0.000 C 
ENDBRANCH  29  30
ENDBRANCH  26  29
ENDBRANCH   4  23
TORSDOF 7
ENDMDL
