MODEL 1
REMARK VINA RESULT:      -8.9      0.000      0.000
REMARK  Name = 
REMARK  3 active torsions:
REMARK  status: ('A' for Active; 'I' for Inactive)
REMARK    1  A    between atoms: C_2  and  C_15
REMARK    2  A    between atoms: C_7  and  C_8
REMARK    3  A    between atoms: C_19  and  C_21
REMARK                            x       y       z     vdW  Elec       q    Type
REMARK                         _______ _______ _______ _____ _____    ______ ____
ROOT
ATOM      1  O   UNL     1       6.982   7.109  16.500  0.00  0.00    +0.000 OA
ATOM      2  C   UNL     1       7.437   6.792  17.592  0.00  0.00    +0.000 C 
ATOM      3  N   UNL     1       8.157   7.606  18.437  0.00  0.00    +0.000 N 
ATOM      4  C   UNL     1       8.332   8.942  18.222  0.00  0.00    +0.000 A 
ATOM      5  N   UNL     1       7.837   9.745  17.317  0.00  0.00    +0.000 NA
ATOM      6  N   UNL     1       8.200  11.058  17.554  0.00  0.00    +0.000 NA
ATOM      7  C   UNL     1       8.965  11.189  18.620  0.00  0.00    +0.000 A 
ATOM      8  S   UNL     1       9.335   9.691  19.385  0.00  0.00    +0.000 S 
ATOM      9  H   UNL     1       8.558   7.252  19.292  0.00  0.00    +0.000 HD
ENDROOT
BRANCH   2  10
ATOM     10  C   UNL     1       7.206   5.395  18.193  0.00  0.00    +0.000 C 
ATOM     11  C   UNL     1       6.694   4.379  17.159  0.00  0.00    +0.000 C 
ATOM     12  C   UNL     1       5.223   4.622  16.838  0.00  0.00    +0.000 C 
ATOM     13  N   UNL     1       4.441   4.519  18.063  0.00  0.00    +0.000 N 
ATOM     14  C   UNL     1       3.757   3.314  18.304  0.00  0.00    +0.000 C 
ATOM     15  O   UNL     1       3.884   2.361  17.530  0.00  0.00    +0.000 OA
ATOM     16  C   UNL     1       4.796   5.522  19.073  0.00  0.00    +0.000 C 
ATOM     17  C   UNL     1       6.284   5.435  19.426  0.00  0.00    +0.000 C 
BRANCH  14  18
ATOM     18  C   UNL     1       2.917   3.192  19.485  0.00  0.00    +0.000 A 
ATOM     19  C   UNL     1       1.604   3.582  19.687  0.00  0.00    +0.000 A 
ATOM     20  C   UNL     1       1.270   3.238  21.017  0.00  0.00    +0.000 A 
ATOM     21  C   UNL     1       2.409   2.703  21.567  0.00  0.00    +0.000 A 
ATOM     22  O   UNL     1       3.417   2.698  20.660  0.00  0.00    +0.000 OA
ENDBRANCH  14  18
ENDBRANCH   2  10
BRANCH   7  23
ATOM     23  C   UNL     1       9.425  12.491  19.229  0.00  0.00    +0.000 C 
ATOM     24  C   UNL     1      10.598  12.327  20.203  0.00  0.00    +0.000 C 
ATOM     25  C   UNL     1      11.925  11.989  19.523  0.00  0.00    +0.000 C 
ATOM     26  C   UNL     1      12.244  12.882  18.325  0.00  0.00    +0.000 C 
ATOM     27  C   UNL     1      11.065  13.122  17.386  0.00  0.00    +0.000 C 
ATOM     28  C   UNL     1       9.788  13.503  18.133  0.00  0.00    +0.000 C 
ENDBRANCH   7  23
TORSDOF 3
ENDMDL
MODEL 2
REMARK VINA RESULT:      -8.6      5.292      7.697
REMARK  Name = 
REMARK  3 active torsions:
REMARK  status: ('A' for Active; 'I' for Inactive)
REMARK    1  A    between atoms: C_2  and  C_15
REMARK    2  A    between atoms: C_7  and  C_8
REMARK    3  A    between atoms: C_19  and  C_21
REMARK                            x       y       z     vdW  Elec       q    Type
REMARK                         _______ _______ _______ _____ _____    ______ ____
ROOT
ATOM      1  O   UNL     1       2.543   4.963  20.739  0.00  0.00    +0.000 OA
ATOM      2  C   UNL     1       2.914   5.110  19.582  0.00  0.00    +0.000 C 
ATOM      3  N   UNL     1       2.676   6.209  18.789  0.00  0.00    +0.000 N 
ATOM      4  C   UNL     1       2.107   7.360  19.253  0.00  0.00    +0.000 A 
ATOM      5  N   UNL     1       1.766   7.731  20.458  0.00  0.00    +0.000 NA
ATOM      6  N   UNL     1       1.326   9.042  20.478  0.00  0.00    +0.000 NA
ATOM      7  C   UNL     1       1.341   9.600  19.283  0.00  0.00    +0.000 A 
ATOM      8  S   UNL     1       1.855   8.531  18.034  0.00  0.00    +0.000 S 
ATOM      9  H   UNL     1       2.956   6.229  17.820  0.00  0.00    +0.000 HD
ENDROOT
BRANCH   2  10
ATOM     10  C   UNL     1       3.770   4.054  18.863  0.00  0.00    +0.000 C 
ATOM     11  C   UNL     1       5.242   4.075  19.311  0.00  0.00    +0.000 C 
ATOM     12  C   UNL     1       5.979   5.266  18.708  0.00  0.00    +0.000 C 
ATOM     13  N   UNL     1       5.905   5.190  17.255  0.00  0.00    +0.000 N 
ATOM     14  C   UNL     1       7.023   4.684  16.568  0.00  0.00    +0.000 C 
ATOM     15  O   UNL     1       7.996   4.255  17.194  0.00  0.00    +0.000 OA
ATOM     16  C   UNL     1       4.536   5.266  16.732  0.00  0.00    +0.000 C 
ATOM     17  C   UNL     1       3.663   4.159  17.330  0.00  0.00    +0.000 C 
BRANCH  14  18
ATOM     18  C   UNL     1       7.012   4.649  15.114  0.00  0.00    +0.000 A 
ATOM     19  C   UNL     1       6.294   3.842  14.249  0.00  0.00    +0.000 A 
ATOM     20  C   UNL     1       6.660   4.214  12.935  0.00  0.00    +0.000 A 
ATOM     21  C   UNL     1       7.615   5.191  13.070  0.00  0.00    +0.000 A 
ATOM     22  O   UNL     1       7.857   5.440  14.382  0.00  0.00    +0.000 OA
ENDBRANCH  14  18
ENDBRANCH   2  10
BRANCH   7  23
ATOM     23  C   UNL     1       1.050  11.049  18.976  0.00  0.00    +0.000 C 
ATOM     24  C   UNL     1      -0.337  11.276  18.362  0.00  0.00    +0.000 C 
ATOM     25  C   UNL     1      -1.490  11.084  19.347  0.00  0.00    +0.000 C 
ATOM     26  C   UNL     1      -1.284  11.808  20.678  0.00  0.00    +0.000 C 
ATOM     27  C   UNL     1       0.116  11.660  21.266  0.00  0.00    +0.000 C 
ATOM     28  C   UNL     1       1.216  11.913  20.235  0.00  0.00    +0.000 C 
ENDBRANCH   7  23
TORSDOF 3
ENDMDL
MODEL 3
REMARK VINA RESULT:      -7.7      1.088      1.940
REMARK  Name = 
REMARK  3 active torsions:
REMARK  status: ('A' for Active; 'I' for Inactive)
REMARK    1  A    between atoms: C_2  and  C_15
REMARK    2  A    between atoms: C_7  and  C_8
REMARK    3  A    between atoms: C_19  and  C_21
REMARK                            x       y       z     vdW  Elec       q    Type
REMARK                         _______ _______ _______ _____ _____    ______ ____
ROOT
ATOM      1  O   UNL     1       7.114   7.674  16.743  0.00  0.00    +0.000 OA
ATOM      2  C   UNL     1       7.652   7.287  17.772  0.00  0.00    +0.000 C 
ATOM      3  N   UNL     1       8.453   8.040  18.600  0.00  0.00    +0.000 N 
ATOM      4  C   UNL     1       8.632   9.385  18.450  0.00  0.00    +0.000 A 
ATOM      5  N   UNL     1       8.077  10.246  17.639  0.00  0.00    +0.000 NA
ATOM      6  N   UNL     1       8.480  11.539  17.921  0.00  0.00    +0.000 NA
ATOM      7  C   UNL     1       9.333  11.596  18.926  0.00  0.00    +0.000 A 
ATOM      8  S   UNL     1       9.739  10.051  19.568  0.00  0.00    +0.000 S 
ATOM      9  H   UNL     1       8.917   7.631  19.397  0.00  0.00    +0.000 HD
ENDROOT
BRANCH   2  10
ATOM     10  C   UNL     1       7.449   5.860  18.308  0.00  0.00    +0.000 C 
ATOM     11  C   UNL     1       7.048   4.863  17.207  0.00  0.00    +0.000 C 
ATOM     12  C   UNL     1       5.589   5.055  16.803  0.00  0.00    +0.000 C 
ATOM     13  N   UNL     1       4.740   4.870  17.972  0.00  0.00    +0.000 N 
ATOM     14  C   UNL     1       4.097   3.629  18.126  0.00  0.00    +0.000 C 
ATOM     15  O   UNL     1       4.315   2.713  17.328  0.00  0.00    +0.000 OA
ATOM     16  C   UNL     1       4.986   5.849  19.037  0.00  0.00    +0.000 C 
ATOM     17  C   UNL     1       6.452   5.812  19.480  0.00  0.00    +0.000 C 
BRANCH  14  18
ATOM     18  C   UNL     1       3.193   3.426  19.246  0.00  0.00    +0.000 A 
ATOM     19  C   UNL     1       1.879   3.828  19.413  0.00  0.00    +0.000 A 
ATOM     20  C   UNL     1       1.467   3.378  20.688  0.00  0.00    +0.000 A 
ATOM     21  C   UNL     1       2.564   2.771  21.248  0.00  0.00    +0.000 A 
ATOM     22  O   UNL     1       3.619   2.821  20.398  0.00  0.00    +0.000 OA
ENDBRANCH  14  18
ENDBRANCH   2  10
BRANCH   7  23
ATOM     23  C   UNL     1       9.863  12.854  19.570  0.00  0.00    +0.000 C 
ATOM     24  C   UNL     1       9.017  14.097  19.265  0.00  0.00    +0.000 C 
ATOM     25  C   UNL     1       7.661  14.112  19.971  0.00  0.00    +0.000 C 
ATOM     26  C   UNL     1       7.743  13.777  21.460  0.00  0.00    +0.000 C 
ATOM     27  C   UNL     1       8.644  12.591  21.791  0.00  0.00    +0.000 C 
ATOM     28  C   UNL     1       9.999  12.669  21.088  0.00  0.00    +0.000 C 
ENDBRANCH   7  23
TORSDOF 3
ENDMDL
MODEL 4
REMARK VINA RESULT:      -7.4      3.532     10.498
REMARK  Name = 
REMARK  3 active torsions:
REMARK  status: ('A' for Active; 'I' for Inactive)
REMARK    1  A    between atoms: C_2  and  C_15
REMARK    2  A    between atoms: C_7  and  C_8
REMARK    3  A    between atoms: C_19  and  C_21
REMARK                            x       y       z     vdW  Elec       q    Type
REMARK                         _______ _______ _______ _____ _____    ______ ____
ROOT
ATOM      1  O   UNL     1       8.194  10.649  17.522  0.00  0.00    +0.000 OA
ATOM      2  C   UNL     1       8.929  10.093  18.328  0.00  0.00    +0.000 C 
ATOM      3  N   UNL     1       8.833   8.784  18.742  0.00  0.00    +0.000 N 
ATOM      4  C   UNL     1       7.975   7.882  18.182  0.00  0.00    +0.000 A 
ATOM      5  N   UNL     1       7.176   7.971  17.153  0.00  0.00    +0.000 NA
ATOM      6  N   UNL     1       6.573   6.759  16.873  0.00  0.00    +0.000 NA
ATOM      7  C   UNL     1       6.932   5.808  17.714  0.00  0.00    +0.000 A 
ATOM      8  S   UNL     1       8.008   6.352  18.944  0.00  0.00    +0.000 S 
ATOM      9  H   UNL     1       9.435   8.415  19.462  0.00  0.00    +0.000 HD
ENDROOT
BRANCH   2  10
ATOM     10  C   UNL     1      10.129  10.813  18.965  0.00  0.00    +0.000 C 
ATOM     11  C   UNL     1       9.825  11.339  20.379  0.00  0.00    +0.000 C 
ATOM     12  C   UNL     1       8.947  12.586  20.319  0.00  0.00    +0.000 C 
ATOM     13  N   UNL     1       9.628  13.614  19.543  0.00  0.00    +0.000 N 
ATOM     14  C   UNL     1      10.298  14.630  20.248  0.00  0.00    +0.000 C 
ATOM     15  O   UNL     1      10.360  14.596  21.480  0.00  0.00    +0.000 OA
ATOM     16  C   UNL     1       9.868  13.234  18.147  0.00  0.00    +0.000 C 
ATOM     17  C   UNL     1      10.680  11.937  18.069  0.00  0.00    +0.000 C 
BRANCH  14  18
ATOM     18  C   UNL     1      10.937  15.709  19.511  0.00  0.00    +0.000 A 
ATOM     19  C   UNL     1      12.226  15.807  19.016  0.00  0.00    +0.000 A 
ATOM     20  C   UNL     1      12.333  17.068  18.385  0.00  0.00    +0.000 A 
ATOM     21  C   UNL     1      11.122  17.688  18.572  0.00  0.00    +0.000 A 
ATOM     22  O   UNL     1      10.282  16.889  19.276  0.00  0.00    +0.000 OA
ENDBRANCH  14  18
ENDBRANCH   2  10
BRANCH   7  23
ATOM     23  C   UNL     1       6.564   4.348  17.614  0.00  0.00    +0.000 C 
ATOM     24  C   UNL     1       5.564   3.897  18.686  0.00  0.00    +0.000 C 
ATOM     25  C   UNL     1       4.148   4.436  18.479  0.00  0.00    +0.000 C 
ATOM     26  C   UNL     1       3.632   4.267  17.051  0.00  0.00    +0.000 C 
ATOM     27  C   UNL     1       4.641   4.636  15.968  0.00  0.00    +0.000 C 
ATOM     28  C   UNL     1       6.018   4.022  16.215  0.00  0.00    +0.000 C 
ENDBRANCH   7  23
TORSDOF 3
ENDMDL
MODEL 5
REMARK VINA RESULT:      -7.3      7.462     10.425
REMARK  Name = 
REMARK  3 active torsions:
REMARK  status: ('A' for Active; 'I' for Inactive)
REMARK    1  A    between atoms: C_2  and  C_15
REMARK    2  A    between atoms: C_7  and  C_8
REMARK    3  A    between atoms: C_19  and  C_21
REMARK                            x       y       z     vdW  Elec       q    Type
REMARK                         _______ _______ _______ _____ _____    ______ ____
ROOT
ATOM      1  O   UNL     1       1.803  10.240  17.424  0.00  0.00    +0.000 OA
ATOM      2  C   UNL     1       1.482  10.293  18.604  0.00  0.00    +0.000 C 
ATOM      3  N   UNL     1       1.471   9.239  19.489  0.00  0.00    +0.000 N 
ATOM      4  C   UNL     1       1.968   8.003  19.189  0.00  0.00    +0.000 A 
ATOM      5  N   UNL     1       2.609   7.561  18.141  0.00  0.00    +0.000 NA
ATOM      6  N   UNL     1       3.030   6.255  18.320  0.00  0.00    +0.000 NA
ATOM      7  C   UNL     1       2.674   5.764  19.491  0.00  0.00    +0.000 A 
ATOM      8  S   UNL     1       1.751   6.863  20.444  0.00  0.00    +0.000 S 
ATOM      9  H   UNL     1       1.127   9.347  20.432  0.00  0.00    +0.000 HD
ENDROOT
BRANCH   2  10
ATOM     10  C   UNL     1       1.078  11.616  19.278  0.00  0.00    +0.000 C 
ATOM     11  C   UNL     1       1.210  11.568  20.810  0.00  0.00    +0.000 C 
ATOM     12  C   UNL     1       0.074  10.760  21.429  0.00  0.00    +0.000 C 
ATOM     13  N   UNL     1      -1.200  11.363  21.060  0.00  0.00    +0.000 N 
ATOM     14  C   UNL     1      -1.832  12.189  22.006  0.00  0.00    +0.000 C 
ATOM     15  O   UNL     1      -1.278  12.444  23.079  0.00  0.00    +0.000 OA
ATOM     16  C   UNL     1      -1.455  11.359  19.615  0.00  0.00    +0.000 C 
ATOM     17  C   UNL     1      -0.331  12.078  18.863  0.00  0.00    +0.000 C 
BRANCH  14  18
ATOM     18  C   UNL     1      -3.134  12.761  21.699  0.00  0.00    +0.000 A 
ATOM     19  C   UNL     1      -3.466  13.834  20.891  0.00  0.00    +0.000 A 
ATOM     20  C   UNL     1      -4.872  13.974  20.945  0.00  0.00    +0.000 A 
ATOM     21  C   UNL     1      -5.315  13.011  21.819  0.00  0.00    +0.000 A 
ATOM     22  O   UNL     1      -4.270  12.294  22.303  0.00  0.00    +0.000 OA
ENDBRANCH  14  18
ENDBRANCH   2  10
BRANCH   7  23
ATOM     23  C   UNL     1       3.083   4.425  20.053  0.00  0.00    +0.000 C 
ATOM     24  C   UNL     1       2.024   3.799  20.971  0.00  0.00    +0.000 C 
ATOM     25  C   UNL     1       0.785   3.294  20.232  0.00  0.00    +0.000 C 
ATOM     26  C   UNL     1       1.109   2.445  19.004  0.00  0.00    +0.000 C 
ATOM     27  C   UNL     1       2.217   3.010  18.120  0.00  0.00    +0.000 C 
ATOM     28  C   UNL     1       3.441   3.449  18.922  0.00  0.00    +0.000 C 
ENDBRANCH   7  23
TORSDOF 3
ENDMDL
MODEL 6
REMARK VINA RESULT:      -7.2      7.797      9.894
REMARK  Name = 
REMARK  3 active torsions:
REMARK  status: ('A' for Active; 'I' for Inactive)
REMARK    1  A    between atoms: C_2  and  C_15
REMARK    2  A    between atoms: C_7  and  C_8
REMARK    3  A    between atoms: C_19  and  C_21
REMARK                            x       y       z     vdW  Elec       q    Type
REMARK                         _______ _______ _______ _____ _____    ______ ____
ROOT
ATOM      1  O   UNL     1       0.441   8.757  21.303  0.00  0.00    +0.000 OA
ATOM      2  C   UNL     1       0.514   9.414  20.273  0.00  0.00    +0.000 C 
ATOM      3  N   UNL     1       1.340   9.154  19.204  0.00  0.00    +0.000 N 
ATOM      4  C   UNL     1       2.095   8.022  19.096  0.00  0.00    +0.000 A 
ATOM      5  N   UNL     1       2.155   6.950  19.840  0.00  0.00    +0.000 NA
ATOM      6  N   UNL     1       2.985   5.993  19.283  0.00  0.00    +0.000 NA
ATOM      7  C   UNL     1       3.526   6.391  18.148  0.00  0.00    +0.000 A 
ATOM      8  S   UNL     1       3.088   7.998  17.706  0.00  0.00    +0.000 S 
ATOM      9  H   UNL     1       1.393   9.782  18.416  0.00  0.00    +0.000 HD
ENDROOT
BRANCH   2  10
ATOM     10  C   UNL     1      -0.386  10.636  20.024  0.00  0.00    +0.000 C 
ATOM     11  C   UNL     1       0.407  11.878  19.580  0.00  0.00    +0.000 C 
ATOM     12  C   UNL     1       1.145  12.503  20.759  0.00  0.00    +0.000 C 
ATOM     13  N   UNL     1       0.180  12.872  21.787  0.00  0.00    +0.000 N 
ATOM     14  C   UNL     1      -0.216  14.220  21.860  0.00  0.00    +0.000 C 
ATOM     15  O   UNL     1       0.192  15.034  21.027  0.00  0.00    +0.000 OA
ATOM     16  C   UNL     1      -0.553  11.729  22.342  0.00  0.00    +0.000 C 
ATOM     17  C   UNL     1      -1.281  10.961  21.234  0.00  0.00    +0.000 C 
BRANCH  14  18
ATOM     18  C   UNL     1      -1.130  14.640  22.911  0.00  0.00    +0.000 A 
ATOM     19  C   UNL     1      -2.469  14.980  22.841  0.00  0.00    +0.000 A 
ATOM     20  C   UNL     1      -2.880  15.320  24.150  0.00  0.00    +0.000 A 
ATOM     21  C   UNL     1      -1.758  15.217  24.937  0.00  0.00    +0.000 A 
ATOM     22  O   UNL     1      -0.690  14.836  24.192  0.00  0.00    +0.000 OA
ENDBRANCH  14  18
ENDBRANCH   2  10
BRANCH   7  23
ATOM     23  C   UNL     1       4.368   5.548  17.222  0.00  0.00    +0.000 C 
ATOM     24  C   UNL     1       5.352   6.368  16.378  0.00  0.00    +0.000 C 
ATOM     25  C   UNL     1       6.520   6.948  17.176  0.00  0.00    +0.000 C 
ATOM     26  C   UNL     1       7.199   5.932  18.094  0.00  0.00    +0.000 C 
ATOM     27  C   UNL     1       6.234   5.052  18.883  0.00  0.00    +0.000 C 
ATOM     28  C   UNL     1       5.124   4.469  18.011  0.00  0.00    +0.000 C 
ENDBRANCH   7  23
TORSDOF 3
ENDMDL
MODEL 7
REMARK VINA RESULT:      -7.2      8.898     11.321
REMARK  Name = 
REMARK  3 active torsions:
REMARK  status: ('A' for Active; 'I' for Inactive)
REMARK    1  A    between atoms: C_2  and  C_15
REMARK    2  A    between atoms: C_7  and  C_8
REMARK    3  A    between atoms: C_19  and  C_21
REMARK                            x       y       z     vdW  Elec       q    Type
REMARK                         _______ _______ _______ _____ _____    ______ ____
ROOT
ATOM      1  O   UNL     1       0.017  11.675  18.565  0.00  0.00    +0.000 OA
ATOM      2  C   UNL     1       0.071  11.523  19.779  0.00  0.00    +0.000 C 
ATOM      3  N   UNL     1       0.508  10.395  20.436  0.00  0.00    +0.000 N 
ATOM      4  C   UNL     1       1.086   9.334  19.800  0.00  0.00    +0.000 A 
ATOM      5  N   UNL     1       1.437   9.159  18.554  0.00  0.00    +0.000 NA
ATOM      6  N   UNL     1       2.102   7.958  18.380  0.00  0.00    +0.000 NA
ATOM      7  C   UNL     1       2.211   7.272  19.501  0.00  0.00    +0.000 A 
ATOM      8  S   UNL     1       1.458   8.037  20.849  0.00  0.00    +0.000 S 
ATOM      9  H   UNL     1       0.458  10.319  21.441  0.00  0.00    +0.000 HD
ENDROOT
BRANCH   2  10
ATOM     10  C   UNL     1      -0.318  12.645  20.756  0.00  0.00    +0.000 C 
ATOM     11  C   UNL     1      -0.493  12.143  22.200  0.00  0.00    +0.000 C 
ATOM     12  C   UNL     1      -1.805  11.380  22.355  0.00  0.00    +0.000 C 
ATOM     13  N   UNL     1      -2.914  12.255  21.997  0.00  0.00    +0.000 N 
ATOM     14  C   UNL     1      -3.630  12.866  23.041  0.00  0.00    +0.000 C 
ATOM     15  O   UNL     1      -3.272  12.715  24.213  0.00  0.00    +0.000 OA
ATOM     16  C   UNL     1      -2.881  12.702  20.600  0.00  0.00    +0.000 C 
ATOM     17  C   UNL     1      -1.564  13.421  20.290  0.00  0.00    +0.000 C 
BRANCH  14  18
ATOM     18  C   UNL     1      -4.782  13.698  22.728  0.00  0.00    +0.000 A 
ATOM     19  C   UNL     1      -4.936  15.070  22.808  0.00  0.00    +0.000 A 
ATOM     20  C   UNL     1      -6.255  15.364  22.392  0.00  0.00    +0.000 A 
ATOM     21  C   UNL     1      -6.847  14.154  22.128  0.00  0.00    +0.000 A 
ATOM     22  O   UNL     1      -5.975  13.140  22.357  0.00  0.00    +0.000 OA
ENDBRANCH  14  18
ENDBRANCH   2  10
BRANCH   7  23
ATOM     23  C   UNL     1       2.988   5.992  19.686  0.00  0.00    +0.000 C 
ATOM     24  C   UNL     1       2.367   5.045  20.721  0.00  0.00    +0.000 C 
ATOM     25  C   UNL     1       1.071   4.382  20.253  0.00  0.00    +0.000 C 
ATOM     26  C   UNL     1       1.163   3.782  18.850  0.00  0.00    +0.000 C 
ATOM     27  C   UNL     1       1.851   4.678  17.825  0.00  0.00    +0.000 C 
ATOM     28  C   UNL     1       3.162   5.265  18.345  0.00  0.00    +0.000 C 
ENDBRANCH   7  23
TORSDOF 3
ENDMDL
MODEL 8
REMARK VINA RESULT:      -7.1      7.259     10.183
REMARK  Name = 
REMARK  3 active torsions:
REMARK  status: ('A' for Active; 'I' for Inactive)
REMARK    1  A    between atoms: C_2  and  C_15
REMARK    2  A    between atoms: C_7  and  C_8
REMARK    3  A    between atoms: C_19  and  C_21
REMARK                            x       y       z     vdW  Elec       q    Type
REMARK                         _______ _______ _______ _____ _____    ______ ____
ROOT
ATOM      1  O   UNL     1       0.964   9.116  20.595  0.00  0.00    +0.000 OA
ATOM      2  C   UNL     1       1.216   9.358  19.422  0.00  0.00    +0.000 C 
ATOM      3  N   UNL     1       2.053   8.630  18.607  0.00  0.00    +0.000 N 
ATOM      4  C   UNL     1       2.605   7.437  18.973  0.00  0.00    +0.000 A 
ATOM      5  N   UNL     1       2.431   6.693  20.032  0.00  0.00    +0.000 NA
ATOM      6  N   UNL     1       3.117   5.496  19.928  0.00  0.00    +0.000 NA
ATOM      7  C   UNL     1       3.791   5.395  18.798  0.00  0.00    +0.000 A 
ATOM      8  S   UNL     1       3.667   6.793  17.799  0.00  0.00    +0.000 S 
ATOM      9  H   UNL     1       2.265   8.932  17.667  0.00  0.00    +0.000 HD
ENDROOT
BRANCH   2  10
ATOM     10  C   UNL     1       0.559  10.531  18.675  0.00  0.00    +0.000 C 
ATOM     11  C   UNL     1       0.337  11.759  19.574  0.00  0.00    +0.000 C 
ATOM     12  C   UNL     1      -0.840  11.537  20.519  0.00  0.00    +0.000 C 
ATOM     13  N   UNL     1      -2.040  11.273  19.735  0.00  0.00    +0.000 N 
ATOM     14  C   UNL     1      -2.940  12.335  19.537  0.00  0.00    +0.000 C 
ATOM     15  O   UNL     1      -2.672  13.464  19.956  0.00  0.00    +0.000 OA
ATOM     16  C   UNL     1      -1.953  10.056  18.920  0.00  0.00    +0.000 C 
ATOM     17  C   UNL     1      -0.749  10.120  17.975  0.00  0.00    +0.000 C 
BRANCH  14  18
ATOM     18  C   UNL     1      -4.179  12.096  18.813  0.00  0.00    +0.000 A 
ATOM     19  C   UNL     1      -5.474  11.968  19.284  0.00  0.00    +0.000 A 
ATOM     20  C   UNL     1      -6.303  11.739  18.162  0.00  0.00    +0.000 A 
ATOM     21  C   UNL     1      -5.464  11.691  17.076  0.00  0.00    +0.000 A 
ATOM     22  O   UNL     1      -4.176  11.875  17.462  0.00  0.00    +0.000 OA
ENDBRANCH  14  18
ENDBRANCH   2  10
BRANCH   7  23
ATOM     23  C   UNL     1       4.533   4.174  18.314  0.00  0.00    +0.000 C 
ATOM     24  C   UNL     1       4.480   2.998  19.297  0.00  0.00    +0.000 C 
ATOM     25  C   UNL     1       3.108   2.329  19.388  0.00  0.00    +0.000 C 
ATOM     26  C   UNL     1       2.489   2.017  18.026  0.00  0.00    +0.000 C 
ATOM     27  C   UNL     1       2.603   3.147  17.008  0.00  0.00    +0.000 C 
ATOM     28  C   UNL     1       4.012   3.734  16.938  0.00  0.00    +0.000 C 
ENDBRANCH   7  23
TORSDOF 3
ENDMDL
MODEL 9
REMARK VINA RESULT:      -7.1      7.436     11.182
REMARK  Name = 
REMARK  3 active torsions:
REMARK  status: ('A' for Active; 'I' for Inactive)
REMARK    1  A    between atoms: C_2  and  C_15
REMARK    2  A    between atoms: C_7  and  C_8
REMARK    3  A    between atoms: C_19  and  C_21
REMARK                            x       y       z     vdW  Elec       q    Type
REMARK                         _______ _______ _______ _____ _____    ______ ____
ROOT
ATOM      1  O   UNL     1       0.329  10.075  20.956  0.00  0.00    +0.000 OA
ATOM      2  C   UNL     1       0.730  10.129  19.802  0.00  0.00    +0.000 C 
ATOM      3  N   UNL     1       1.495   9.179  19.164  0.00  0.00    +0.000 N 
ATOM      4  C   UNL     1       1.785   7.961  19.709  0.00  0.00    +0.000 A 
ATOM      5  N   UNL     1       1.380   7.388  20.811  0.00  0.00    +0.000 NA
ATOM      6  N   UNL     1       1.845   6.089  20.906  0.00  0.00    +0.000 NA
ATOM      7  C   UNL     1       2.593   5.742  19.877  0.00  0.00    +0.000 A 
ATOM      8  S   UNL     1       2.819   7.012  18.735  0.00  0.00    +0.000 S 
ATOM      9  H   UNL     1       1.846   9.326  18.230  0.00  0.00    +0.000 HD
ENDROOT
BRANCH   2  10
ATOM     10  C   UNL     1       0.371  11.299  18.870  0.00  0.00    +0.000 C 
ATOM     11  C   UNL     1       1.603  12.102  18.420  0.00  0.00    +0.000 C 
ATOM     12  C   UNL     1       2.116  12.992  19.548  0.00  0.00    +0.000 C 
ATOM     13  N   UNL     1       1.055  13.902  19.960  0.00  0.00    +0.000 N 
ATOM     14  C   UNL     1       1.094  15.219  19.468  0.00  0.00    +0.000 C 
ATOM     15  O   UNL     1       1.962  15.555  18.657  0.00  0.00    +0.000 OA
ATOM     16  C   UNL     1      -0.126  13.221  20.501  0.00  0.00    +0.000 C 
ATOM     17  C   UNL     1      -0.695  12.228  19.482  0.00  0.00    +0.000 C 
BRANCH  14  18
ATOM     18  C   UNL     1       0.089  16.175  19.904  0.00  0.00    +0.000 A 
ATOM     19  C   UNL     1      -0.929  16.783  19.190  0.00  0.00    +0.000 A 
ATOM     20  C   UNL     1      -1.616  17.632  20.089  0.00  0.00    +0.000 A 
ATOM     21  C   UNL     1      -0.950  17.533  21.286  0.00  0.00    +0.000 A 
ATOM     22  O   UNL     1       0.098  16.679  21.177  0.00  0.00    +0.000 OA
ENDBRANCH  14  18
ENDBRANCH   2  10
BRANCH   7  23
ATOM     23  C   UNL     1       3.145   4.364  19.605  0.00  0.00    +0.000 C 
ATOM     24  C   UNL     1       2.644   3.302  20.592  0.00  0.00    +0.000 C 
ATOM     25  C   UNL     1       1.173   2.927  20.405  0.00  0.00    +0.000 C 
ATOM     26  C   UNL     1       0.795   2.641  18.952  0.00  0.00    +0.000 C 
ATOM     27  C   UNL     1       1.352   3.644  17.946  0.00  0.00    +0.000 C 
ATOM     28  C   UNL     1       2.836   3.932  18.165  0.00  0.00    +0.000 C 
ENDBRANCH   7  23
TORSDOF 3
ENDMDL
