MODEL 1
REMARK VINA RESULT:      -7.3      0.000      0.000
REMARK  Name = 
REMARK  8 active torsions:
REMARK  status: ('A' for Active; 'I' for Inactive)
REMARK    1  A    between atoms: C_1  and  S_2
REMARK    2  A    between atoms: S_2  and  C_3
REMARK    3  A    between atoms: N_5  and  C_6
REMARK    4  A    between atoms: C_8  and  O_9
REMARK    5  A    between atoms: C_10  and  C_11
REMARK    6  A    between atoms: C_11  and  O_12
REMARK    7  A    between atoms: O_12  and  S_13
REMARK    8  A    between atoms: S_13  and  N_14
REMARK                            x       y       z     vdW  Elec       q    Type
REMARK                         _______ _______ _______ _____ _____    ______ ____
ROOT
ATOM      1  C   UNL     1       4.700   4.276  15.976  0.00  0.00    +0.000 C 
ATOM      2  C   UNL     1       5.235   5.444  15.150  0.00  0.00    +0.000 C 
ATOM      3  C   UNL     1       6.560   4.921  14.657  0.00  0.00    +0.000 C 
ATOM      4  C   UNL     1       7.044   4.050  15.814  0.00  0.00    +0.000 C 
ATOM      5  O   UNL     1       5.852   3.552  16.464  0.00  0.00    +0.000 OA
ENDROOT
BRANCH   1   8
ATOM      6  C   UNL     1       2.814   5.928  18.430  0.00  0.00    +0.000 A 
ATOM      7  N   UNL     1       3.695   5.955  17.428  0.00  0.00    +0.000 NA
ATOM      8  N   UNL     1       3.837   4.650  17.091  0.00  0.00    +0.000 N 
ATOM      9  C   UNL     1       3.016   3.819  17.811  0.00  0.00    +0.000 A 
ATOM     10  N   UNL     1       2.863   2.491  17.665  0.00  0.00    +0.000 NA
ATOM     11  C   UNL     1       1.990   1.997  18.560  0.00  0.00    +0.000 A 
ATOM     12  N   UNL     1       1.304   2.663  19.508  0.00  0.00    +0.000 NA
ATOM     13  C   UNL     1       1.482   3.997  19.617  0.00  0.00    +0.000 A 
ATOM     14  N   UNL     1       0.768   4.652  20.604  0.00  0.00    +0.000 N 
ATOM     15  C   UNL     1       2.361   4.626  18.730  0.00  0.00    +0.000 A 
ATOM     16  H   UNL     1      -0.015   4.109  20.948  0.00  0.00    +0.000 HD
ATOM     17  H   UNL     1       0.630   5.646  20.475  0.00  0.00    +0.000 HD
BRANCH   6  19
ATOM     18  C   UNL     1       2.362   8.571  17.817  0.00  0.00    +0.000 C 
ATOM     19  S   UNL     1       2.273   7.406  19.197  0.00  0.00    +0.000 S 
ENDBRANCH   6  19
ENDBRANCH   1   8
BRANCH   3  20
ATOM     20  O   UNL     1       6.342   4.152  13.474  0.00  0.00    +0.000 OA
ATOM     21  H   UNL     1       6.746   3.272  13.581  0.00  0.00    +0.000 HD
ENDBRANCH   3  20
BRANCH   4  22
ATOM     22  C   UNL     1       7.881   4.823  16.836  0.00  0.00    +0.000 C 
BRANCH  22  23
ATOM     23  O   UNL     1       7.498   4.425  18.151  0.00  0.00    +0.000 OA
BRANCH  23  24
ATOM     24  S   UNL     1       7.227   5.609  19.225  0.00  0.00    +0.000 S 
ATOM     25  O   UNL     1       7.654   6.850  18.625  0.00  0.00    +0.000 OA
ATOM     26  O   UNL     1       5.909   5.424  19.782  0.00  0.00    +0.000 OA
BRANCH  24  27
ATOM     27  N   UNL     1       8.322   5.255  20.433  0.00  0.00    +0.000 NA
ATOM     28  H   UNL     1       8.187   4.316  20.797  0.00  0.00    +0.000 HD
ATOM     29  H   UNL     1       8.341   5.988  21.140  0.00  0.00    +0.000 HD
ENDBRANCH  24  27
ENDBRANCH  23  24
ENDBRANCH  22  23
ENDBRANCH   4  22
TORSDOF 7
ENDMDL
MODEL 2
REMARK VINA RESULT:      -6.8      2.545      3.924
REMARK  Name = 
REMARK  8 active torsions:
REMARK  status: ('A' for Active; 'I' for Inactive)
REMARK    1  A    between atoms: C_1  and  S_2
REMARK    2  A    between atoms: S_2  and  C_3
REMARK    3  A    between atoms: N_5  and  C_6
REMARK    4  A    between atoms: C_8  and  O_9
REMARK    5  A    between atoms: C_10  and  C_11
REMARK    6  A    between atoms: C_11  and  O_12
REMARK    7  A    between atoms: O_12  and  S_13
REMARK    8  A    between atoms: S_13  and  N_14
REMARK                            x       y       z     vdW  Elec       q    Type
REMARK                         _______ _______ _______ _____ _____    ______ ____
ROOT
ATOM      1  C   UNL     1       5.181   5.937  17.457  0.00  0.00    +0.000 C 
ATOM      2  C   UNL     1       6.411   5.033  17.516  0.00  0.00    +0.000 C 
ATOM      3  C   UNL     1       7.021   5.215  16.150  0.00  0.00    +0.000 C 
ATOM      4  C   UNL     1       5.805   5.397  15.245  0.00  0.00    +0.000 C 
ATOM      5  O   UNL     1       4.782   6.002  16.069  0.00  0.00    +0.000 OA
ENDROOT
BRANCH   1   8
ATOM      6  C   UNL     1       2.460   5.676  19.656  0.00  0.00    +0.000 A 
ATOM      7  N   UNL     1       3.456   6.383  19.119  0.00  0.00    +0.000 NA
ATOM      8  N   UNL     1       4.056   5.505  18.279  0.00  0.00    +0.000 N 
ATOM      9  C   UNL     1       3.419   4.291  18.229  0.00  0.00    +0.000 A 
ATOM     10  N   UNL     1       3.716   3.241  17.444  0.00  0.00    +0.000 NA
ATOM     11  C   UNL     1       2.893   2.205  17.678  0.00  0.00    +0.000 A 
ATOM     12  N   UNL     1       1.873   2.134  18.553  0.00  0.00    +0.000 NA
ATOM     13  C   UNL     1       1.603   3.213  19.319  0.00  0.00    +0.000 A 
ATOM     14  N   UNL     1       0.553   3.107  20.213  0.00  0.00    +0.000 N 
ATOM     15  C   UNL     1       2.388   4.358  19.156  0.00  0.00    +0.000 A 
ATOM     16  H   UNL     1      -0.070   2.339  19.998  0.00  0.00    +0.000 HD
ATOM     17  H   UNL     1       0.137   3.976  20.524  0.00  0.00    +0.000 HD
BRANCH   6  19
ATOM     18  C   UNL     1       1.592   8.158  20.460  0.00  0.00    +0.000 C 
ATOM     19  S   UNL     1       1.354   6.399  20.805  0.00  0.00    +0.000 S 
ENDBRANCH   6  19
ENDBRANCH   1   8
BRANCH   3  20
ATOM     20  O   UNL     1       7.846   6.382  16.164  0.00  0.00    +0.000 OA
ATOM     21  H   UNL     1       7.866   6.774  15.272  0.00  0.00    +0.000 HD
ENDBRANCH   3  20
BRANCH   4  22
ATOM     22  C   UNL     1       5.273   4.075  14.685  0.00  0.00    +0.000 C 
BRANCH  22  23
ATOM     23  O   UNL     1       6.298   3.446  13.918  0.00  0.00    +0.000 OA
BRANCH  23  24
ATOM     24  S   UNL     1       6.168   3.544  12.305  0.00  0.00    +0.000 S 
ATOM     25  O   UNL     1       4.768   3.689  11.986  0.00  0.00    +0.000 OA
ATOM     26  O   UNL     1       7.177   4.455  11.822  0.00  0.00    +0.000 OA
BRANCH  24  27
ATOM     27  N   UNL     1       6.617   2.013  11.815  0.00  0.00    +0.000 NA
ATOM     28  H   UNL     1       6.680   1.373  12.602  0.00  0.00    +0.000 HD
ATOM     29  H   UNL     1       7.445   2.043  11.223  0.00  0.00    +0.000 HD
ENDBRANCH  24  27
ENDBRANCH  23  24
ENDBRANCH  22  23
ENDBRANCH   4  22
TORSDOF 7
ENDMDL
MODEL 3
REMARK VINA RESULT:      -6.6      1.106      1.368
REMARK  Name = 
REMARK  8 active torsions:
REMARK  status: ('A' for Active; 'I' for Inactive)
REMARK    1  A    between atoms: C_1  and  S_2
REMARK    2  A    between atoms: S_2  and  C_3
REMARK    3  A    between atoms: N_5  and  C_6
REMARK    4  A    between atoms: C_8  and  O_9
REMARK    5  A    between atoms: C_10  and  C_11
REMARK    6  A    between atoms: C_11  and  O_12
REMARK    7  A    between atoms: O_12  and  S_13
REMARK    8  A    between atoms: S_13  and  N_14
REMARK                            x       y       z     vdW  Elec       q    Type
REMARK                         _______ _______ _______ _____ _____    ______ ____
ROOT
ATOM      1  C   UNL     1       4.528   4.772  16.276  0.00  0.00    +0.000 C 
ATOM      2  C   UNL     1       5.229   5.547  15.162  0.00  0.00    +0.000 C 
ATOM      3  C   UNL     1       6.364   4.630  14.785  0.00  0.00    +0.000 C 
ATOM      4  C   UNL     1       6.746   3.981  16.113  0.00  0.00    +0.000 C 
ATOM      5  O   UNL     1       5.535   3.946  16.902  0.00  0.00    +0.000 OA
ENDROOT
BRANCH   1   8
ATOM      6  C   UNL     1       3.042   7.342  18.146  0.00  0.00    +0.000 A 
ATOM      7  N   UNL     1       3.726   6.929  17.077  0.00  0.00    +0.000 NA
ATOM      8  N   UNL     1       3.864   5.596  17.279  0.00  0.00    +0.000 N 
ATOM      9  C   UNL     1       3.224   5.158  18.412  0.00  0.00    +0.000 A 
ATOM     10  N   UNL     1       3.106   3.892  18.848  0.00  0.00    +0.000 NA
ATOM     11  C   UNL     1       2.432   3.834  20.009  0.00  0.00    +0.000 A 
ATOM     12  N   UNL     1       1.898   4.850  20.713  0.00  0.00    +0.000 NA
ATOM     13  C   UNL     1       2.033   6.106  20.236  0.00  0.00    +0.000 A 
ATOM     14  N   UNL     1       1.479   7.130  20.984  0.00  0.00    +0.000 N 
ATOM     15  C   UNL     1       2.708   6.291  19.026  0.00  0.00    +0.000 A 
ATOM     16  H   UNL     1       0.796   6.800  21.655  0.00  0.00    +0.000 HD
ATOM     17  H   UNL     1       1.275   7.989  20.490  0.00  0.00    +0.000 HD
BRANCH   6  19
ATOM     18  C   UNL     1       0.920   9.010  17.617  0.00  0.00    +0.000 C 
ATOM     19  S   UNL     1       2.581   9.021  18.331  0.00  0.00    +0.000 S 
ENDBRANCH   6  19
ENDBRANCH   1   8
BRANCH   3  20
ATOM     20  O   UNL     1       5.886   3.665  13.847  0.00  0.00    +0.000 OA
ATOM     21  H   UNL     1       6.616   3.394  13.260  0.00  0.00    +0.000 HD
ENDBRANCH   3  20
BRANCH   4  22
ATOM     22  C   UNL     1       7.813   4.769  16.878  0.00  0.00    +0.000 C 
BRANCH  22  23
ATOM     23  O   UNL     1       7.737   4.437  18.263  0.00  0.00    +0.000 OA
BRANCH  23  24
ATOM     24  S   UNL     1       7.492   5.661  19.297  0.00  0.00    +0.000 S 
ATOM     25  O   UNL     1       8.089   6.844  18.724  0.00  0.00    +0.000 OA
ATOM     26  O   UNL     1       6.119   5.616  19.738  0.00  0.00    +0.000 OA
BRANCH  24  27
ATOM     27  N   UNL     1       8.440   5.226  20.600  0.00  0.00    +0.000 NA
ATOM     28  H   UNL     1       9.402   5.530  20.479  0.00  0.00    +0.000 HD
ATOM     29  H   UNL     1       8.329   4.240  20.824  0.00  0.00    +0.000 HD
ENDBRANCH  24  27
ENDBRANCH  23  24
ENDBRANCH  22  23
ENDBRANCH   4  22
TORSDOF 7
ENDMDL
MODEL 4
REMARK VINA RESULT:      -6.6      1.468      2.697
REMARK  Name = 
REMARK  8 active torsions:
REMARK  status: ('A' for Active; 'I' for Inactive)
REMARK    1  A    between atoms: C_1  and  S_2
REMARK    2  A    between atoms: S_2  and  C_3
REMARK    3  A    between atoms: N_5  and  C_6
REMARK    4  A    between atoms: C_8  and  O_9
REMARK    5  A    between atoms: C_10  and  C_11
REMARK    6  A    between atoms: C_11  and  O_12
REMARK    7  A    between atoms: O_12  and  S_13
REMARK    8  A    between atoms: S_13  and  N_14
REMARK                            x       y       z     vdW  Elec       q    Type
REMARK                         _______ _______ _______ _____ _____    ______ ____
ROOT
ATOM      1  C   UNL     1       4.646   4.121  16.310  0.00  0.00    +0.000 C 
ATOM      2  C   UNL     1       4.961   5.300  15.389  0.00  0.00    +0.000 C 
ATOM      3  C   UNL     1       6.245   4.869  14.729  0.00  0.00    +0.000 C 
ATOM      4  C   UNL     1       6.956   4.081  15.827  0.00  0.00    +0.000 C 
ATOM      5  O   UNL     1       5.912   3.511  16.649  0.00  0.00    +0.000 OA
ENDROOT
BRANCH   1   8
ATOM      6  C   UNL     1       3.084   4.191  19.451  0.00  0.00    +0.000 A 
ATOM      7  N   UNL     1       3.727   3.528  18.487  0.00  0.00    +0.000 NA
ATOM      8  N   UNL     1       3.915   4.463  17.524  0.00  0.00    +0.000 N 
ATOM      9  C   UNL     1       3.466   5.707  17.892  0.00  0.00    +0.000 A 
ATOM     10  N   UNL     1       3.574   6.855  17.200  0.00  0.00    +0.000 NA
ATOM     11  C   UNL     1       3.000   7.878  17.855  0.00  0.00    +0.000 A 
ATOM     12  N   UNL     1       2.384   7.860  19.052  0.00  0.00    +0.000 NA
ATOM     13  C   UNL     1       2.304   6.688  19.718  0.00  0.00    +0.000 A 
ATOM     14  N   UNL     1       1.660   6.699  20.942  0.00  0.00    +0.000 N 
ATOM     15  C   UNL     1       2.876   5.551  19.139  0.00  0.00    +0.000 A 
ATOM     16  H   UNL     1       1.569   7.630  21.329  0.00  0.00    +0.000 HD
ATOM     17  H   UNL     1       1.888   5.946  21.578  0.00  0.00    +0.000 HD
BRANCH   6  19
ATOM     18  C   UNL     1       0.875   3.108  20.679  0.00  0.00    +0.000 C 
ATOM     19  S   UNL     1       2.638   3.402  20.949  0.00  0.00    +0.000 S 
ENDBRANCH   6  19
ENDBRANCH   1   8
BRANCH   3  20
ATOM     20  O   UNL     1       5.934   4.043  13.606  0.00  0.00    +0.000 OA
ATOM     21  H   UNL     1       6.758   3.694  13.222  0.00  0.00    +0.000 HD
ENDBRANCH   3  20
BRANCH   4  22
ATOM     22  C   UNL     1       7.856   4.955  16.704  0.00  0.00    +0.000 C 
BRANCH  22  23
ATOM     23  O   UNL     1       7.804   4.480  18.047  0.00  0.00    +0.000 OA
BRANCH  23  24
ATOM     24  S   UNL     1       7.594   5.591  19.209  0.00  0.00    +0.000 S 
ATOM     25  O   UNL     1       8.013   6.866  18.677  0.00  0.00    +0.000 OA
ATOM     26  O   UNL     1       6.298   5.383  19.808  0.00  0.00    +0.000 OA
BRANCH  24  27
ATOM     27  N   UNL     1       8.734   5.144  20.344  0.00  0.00    +0.000 NA
ATOM     28  H   UNL     1       9.104   4.216  20.155  0.00  0.00    +0.000 HD
ATOM     29  H   UNL     1       8.385   5.280  21.290  0.00  0.00    +0.000 HD
ENDBRANCH  24  27
ENDBRANCH  23  24
ENDBRANCH  22  23
ENDBRANCH   4  22
TORSDOF 7
ENDMDL
MODEL 5
REMARK VINA RESULT:      -6.5      1.235      1.473
REMARK  Name = 
REMARK  8 active torsions:
REMARK  status: ('A' for Active; 'I' for Inactive)
REMARK    1  A    between atoms: C_1  and  S_2
REMARK    2  A    between atoms: S_2  and  C_3
REMARK    3  A    between atoms: N_5  and  C_6
REMARK    4  A    between atoms: C_8  and  O_9
REMARK    5  A    between atoms: C_10  and  C_11
REMARK    6  A    between atoms: C_11  and  O_12
REMARK    7  A    between atoms: O_12  and  S_13
REMARK    8  A    between atoms: S_13  and  N_14
REMARK                            x       y       z     vdW  Elec       q    Type
REMARK                         _______ _______ _______ _____ _____    ______ ____
ROOT
ATOM      1  C   UNL     1       4.579   4.121  15.989  0.00  0.00    +0.000 C 
ATOM      2  C   UNL     1       5.056   5.295  15.135  0.00  0.00    +0.000 C 
ATOM      3  C   UNL     1       6.394   4.817  14.632  0.00  0.00    +0.000 C 
ATOM      4  C   UNL     1       6.928   3.986  15.797  0.00  0.00    +0.000 C 
ATOM      5  O   UNL     1       5.766   3.453  16.472  0.00  0.00    +0.000 OA
ENDROOT
BRANCH   1   8
ATOM      6  C   UNL     1       2.722   5.737  18.488  0.00  0.00    +0.000 A 
ATOM      7  N   UNL     1       3.615   5.773  17.497  0.00  0.00    +0.000 NA
ATOM      8  N   UNL     1       3.717   4.479  17.108  0.00  0.00    +0.000 N 
ATOM      9  C   UNL     1       2.861   3.648  17.787  0.00  0.00    +0.000 A 
ATOM     10  N   UNL     1       2.665   2.333  17.587  0.00  0.00    +0.000 NA
ATOM     11  C   UNL     1       1.767   1.834  18.452  0.00  0.00    +0.000 A 
ATOM     12  N   UNL     1       1.092   2.484  19.419  0.00  0.00    +0.000 NA
ATOM     13  C   UNL     1       1.313   3.806  19.583  0.00  0.00    +0.000 A 
ATOM     14  N   UNL     1       0.610   4.445  20.589  0.00  0.00    +0.000 N 
ATOM     15  C   UNL     1       2.223   4.440  18.731  0.00  0.00    +0.000 A 
ATOM     16  H   UNL     1      -0.194   3.915  20.903  0.00  0.00    +0.000 HD
ATOM     17  H   UNL     1       0.507   5.448  20.499  0.00  0.00    +0.000 HD
BRANCH   6  19
ATOM     18  C   UNL     1       2.221   8.385  17.943  0.00  0.00    +0.000 C 
ATOM     19  S   UNL     1       2.222   7.201  19.308  0.00  0.00    +0.000 S 
ENDBRANCH   6  19
ENDBRANCH   1   8
BRANCH   3  20
ATOM     20  O   UNL     1       6.191   4.019  13.466  0.00  0.00    +0.000 OA
ATOM     21  H   UNL     1       5.264   4.098  13.176  0.00  0.00    +0.000 HD
ENDBRANCH   3  20
BRANCH   4  22
ATOM     22  C   UNL     1       7.746   4.811  16.794  0.00  0.00    +0.000 C 
BRANCH  22  23
ATOM     23  O   UNL     1       7.683   6.187  16.427  0.00  0.00    +0.000 OA
BRANCH  23  24
ATOM     24  S   UNL     1       7.562   7.262  17.634  0.00  0.00    +0.000 S 
ATOM     25  O   UNL     1       7.950   6.595  18.855  0.00  0.00    +0.000 OA
ATOM     26  O   UNL     1       8.157   8.503  17.200  0.00  0.00    +0.000 OA
BRANCH  24  27
ATOM     27  N   UNL     1       5.915   7.515  17.727  0.00  0.00    +0.000 NA
ATOM     28  H   UNL     1       5.691   8.507  17.758  0.00  0.00    +0.000 HD
ATOM     29  H   UNL     1       5.498   6.961  18.471  0.00  0.00    +0.000 HD
ENDBRANCH  24  27
ENDBRANCH  23  24
ENDBRANCH  22  23
ENDBRANCH   4  22
TORSDOF 7
ENDMDL
MODEL 6
REMARK VINA RESULT:      -6.4      0.749      1.043
REMARK  Name = 
REMARK  8 active torsions:
REMARK  status: ('A' for Active; 'I' for Inactive)
REMARK    1  A    between atoms: C_1  and  S_2
REMARK    2  A    between atoms: S_2  and  C_3
REMARK    3  A    between atoms: N_5  and  C_6
REMARK    4  A    between atoms: C_8  and  O_9
REMARK    5  A    between atoms: C_10  and  C_11
REMARK    6  A    between atoms: C_11  and  O_12
REMARK    7  A    between atoms: O_12  and  S_13
REMARK    8  A    between atoms: S_13  and  N_14
REMARK                            x       y       z     vdW  Elec       q    Type
REMARK                         _______ _______ _______ _____ _____    ______ ____
ROOT
ATOM      1  C   UNL     1       4.756   3.845  16.084  0.00  0.00    +0.000 C 
ATOM      2  C   UNL     1       4.813   4.775  14.874  0.00  0.00    +0.000 C 
ATOM      3  C   UNL     1       6.219   4.576  14.369  0.00  0.00    +0.000 C 
ATOM      4  C   UNL     1       7.021   4.348  15.648  0.00  0.00    +0.000 C 
ATOM      5  O   UNL     1       6.107   3.740  16.589  0.00  0.00    +0.000 OA
ENDROOT
BRANCH   1   8
ATOM      6  C   UNL     1       2.828   5.608  18.425  0.00  0.00    +0.000 A 
ATOM      7  N   UNL     1       3.759   5.583  17.470  0.00  0.00    +0.000 NA
ATOM      8  N   UNL     1       3.857   4.270  17.150  0.00  0.00    +0.000 N 
ATOM      9  C   UNL     1       2.962   3.485  17.833  0.00  0.00    +0.000 A 
ATOM     10  N   UNL     1       2.753   2.165  17.690  0.00  0.00    +0.000 NA
ATOM     11  C   UNL     1       1.814   1.721  18.542  0.00  0.00    +0.000 A 
ATOM     12  N   UNL     1       1.112   2.427  19.448  0.00  0.00    +0.000 NA
ATOM     13  C   UNL     1       1.347   3.752  19.556  0.00  0.00    +0.000 A 
ATOM     14  N   UNL     1       0.615   4.449  20.501  0.00  0.00    +0.000 N 
ATOM     15  C   UNL     1       2.299   4.331  18.711  0.00  0.00    +0.000 A 
ATOM     16  H   UNL     1      -0.209   3.947  20.808  0.00  0.00    +0.000 HD
ATOM     17  H   UNL     1       0.531   5.448  20.357  0.00  0.00    +0.000 HD
BRANCH   6  19
ATOM     18  C   UNL     1       2.616   8.277  17.798  0.00  0.00    +0.000 C 
ATOM     19  S   UNL     1       2.318   7.117  19.152  0.00  0.00    +0.000 S 
ENDBRANCH   6  19
ENDBRANCH   1   8
BRANCH   3  20
ATOM     20  O   UNL     1       6.247   3.428  13.519  0.00  0.00    +0.000 OA
ATOM     21  H   UNL     1       7.089   3.408  13.029  0.00  0.00    +0.000 HD
ENDBRANCH   3  20
BRANCH   4  22
ATOM     22  C   UNL     1       7.564   5.646  16.253  0.00  0.00    +0.000 C 
BRANCH  22  23
ATOM     23  O   UNL     1       6.847   5.940  17.450  0.00  0.00    +0.000 OA
BRANCH  23  24
ATOM     24  S   UNL     1       7.564   5.541  18.848  0.00  0.00    +0.000 S 
ATOM     25  O   UNL     1       6.532   5.419  19.850  0.00  0.00    +0.000 OA
ATOM     26  O   UNL     1       8.524   4.497  18.585  0.00  0.00    +0.000 OA
BRANCH  24  27
ATOM     27  N   UNL     1       8.430   6.920  19.214  0.00  0.00    +0.000 NA
ATOM     28  H   UNL     1       8.268   7.655  18.531  0.00  0.00    +0.000 HD
ATOM     29  H   UNL     1       9.410   6.706  19.386  0.00  0.00    +0.000 HD
ENDBRANCH  24  27
ENDBRANCH  23  24
ENDBRANCH  22  23
ENDBRANCH   4  22
TORSDOF 7
ENDMDL
MODEL 7
REMARK VINA RESULT:      -6.3      3.086      5.453
REMARK  Name = 
REMARK  8 active torsions:
REMARK  status: ('A' for Active; 'I' for Inactive)
REMARK    1  A    between atoms: C_1  and  S_2
REMARK    2  A    between atoms: S_2  and  C_3
REMARK    3  A    between atoms: N_5  and  C_6
REMARK    4  A    between atoms: C_8  and  O_9
REMARK    5  A    between atoms: C_10  and  C_11
REMARK    6  A    between atoms: C_11  and  O_12
REMARK    7  A    between atoms: O_12  and  S_13
REMARK    8  A    between atoms: S_13  and  N_14
REMARK                            x       y       z     vdW  Elec       q    Type
REMARK                         _______ _______ _______ _____ _____    ______ ____
ROOT
ATOM      1  C   UNL     1       2.157   5.615  20.815  0.00  0.00    +0.000 C 
ATOM      2  C   UNL     1       1.176   4.490  20.489  0.00  0.00    +0.000 C 
ATOM      3  C   UNL     1       2.090   3.335  20.172  0.00  0.00    +0.000 C 
ATOM      4  C   UNL     1       3.286   4.008  19.505  0.00  0.00    +0.000 C 
ATOM      5  O   UNL     1       3.367   5.334  20.076  0.00  0.00    +0.000 OA
ENDROOT
BRANCH   1   8
ATOM      6  C   UNL     1       0.755   8.831  20.834  0.00  0.00    +0.000 A 
ATOM      7  N   UNL     1       0.968   7.652  21.424  0.00  0.00    +0.000 NA
ATOM      8  N   UNL     1       1.683   6.958  20.506  0.00  0.00    +0.000 N 
ATOM      9  C   UNL     1       1.979   7.698  19.388  0.00  0.00    +0.000 A 
ATOM     10  N   UNL     1       2.732   7.329  18.337  0.00  0.00    +0.000 NA
ATOM     11  C   UNL     1       2.789   8.300  17.410  0.00  0.00    +0.000 A 
ATOM     12  N   UNL     1       2.213   9.516  17.441  0.00  0.00    +0.000 NA
ATOM     13  C   UNL     1       1.469   9.850  18.518  0.00  0.00    +0.000 A 
ATOM     14  N   UNL     1       0.885  11.104  18.519  0.00  0.00    +0.000 N 
ATOM     15  C   UNL     1       1.346   8.921  19.556  0.00  0.00    +0.000 A 
ATOM     16  H   UNL     1       1.306  11.733  17.847  0.00  0.00    +0.000 HD
ATOM     17  H   UNL     1       0.632  11.482  19.423  0.00  0.00    +0.000 HD
BRANCH   6  19
ATOM     18  C   UNL     1      -0.081   9.516  23.363  0.00  0.00    +0.000 C 
ATOM     19  S   UNL     1      -0.118  10.107  21.655  0.00  0.00    +0.000 S 
ENDBRANCH   6  19
ENDBRANCH   1   8
BRANCH   3  20
ATOM     20  O   UNL     1       2.462   2.691  21.392  0.00  0.00    +0.000 OA
ATOM     21  H   UNL     1       2.389   3.325  22.128  0.00  0.00    +0.000 HD
ENDBRANCH   3  20
BRANCH   4  22
ATOM     22  C   UNL     1       3.134   4.131  17.986  0.00  0.00    +0.000 C 
BRANCH  22  23
ATOM     23  O   UNL     1       4.172   3.389  17.350  0.00  0.00    +0.000 OA
BRANCH  23  24
ATOM     24  S   UNL     1       5.422   4.237  16.762  0.00  0.00    +0.000 S 
ATOM     25  O   UNL     1       5.972   3.494  15.653  0.00  0.00    +0.000 OA
ATOM     26  O   UNL     1       5.023   5.619  16.654  0.00  0.00    +0.000 OA
BRANCH  24  27
ATOM     27  N   UNL     1       6.535   4.144  18.002  0.00  0.00    +0.000 NA
ATOM     28  H   UNL     1       7.064   5.007  18.094  0.00  0.00    +0.000 HD
ATOM     29  H   UNL     1       7.102   3.302  17.927  0.00  0.00    +0.000 HD
ENDBRANCH  24  27
ENDBRANCH  23  24
ENDBRANCH  22  23
ENDBRANCH   4  22
TORSDOF 7
ENDMDL
MODEL 8
REMARK VINA RESULT:      -6.2      3.953      6.501
REMARK  Name = 
REMARK  8 active torsions:
REMARK  status: ('A' for Active; 'I' for Inactive)
REMARK    1  A    between atoms: C_1  and  S_2
REMARK    2  A    between atoms: S_2  and  C_3
REMARK    3  A    between atoms: N_5  and  C_6
REMARK    4  A    between atoms: C_8  and  O_9
REMARK    5  A    between atoms: C_10  and  C_11
REMARK    6  A    between atoms: C_11  and  O_12
REMARK    7  A    between atoms: O_12  and  S_13
REMARK    8  A    between atoms: S_13  and  N_14
REMARK                            x       y       z     vdW  Elec       q    Type
REMARK                         _______ _______ _______ _____ _____    ______ ____
ROOT
ATOM      1  C   UNL     1       2.582   7.878  18.462  0.00  0.00    +0.000 C 
ATOM      2  C   UNL     1       1.535   8.380  17.469  0.00  0.00    +0.000 C 
ATOM      3  C   UNL     1       1.217   9.758  17.992  0.00  0.00    +0.000 C 
ATOM      4  C   UNL     1       1.341   9.595  19.505  0.00  0.00    +0.000 C 
ATOM      5  O   UNL     1       2.320   8.551  19.715  0.00  0.00    +0.000 OA
ENDROOT
BRANCH   1   8
ATOM      6  C   UNL     1       1.986   4.557  19.424  0.00  0.00    +0.000 A 
ATOM      7  N   UNL     1       1.726   5.862  19.530  0.00  0.00    +0.000 NA
ATOM      8  N   UNL     1       2.599   6.434  18.666  0.00  0.00    +0.000 N 
ATOM      9  C   UNL     1       3.347   5.515  17.974  0.00  0.00    +0.000 A 
ATOM     10  N   UNL     1       4.240   5.753  16.998  0.00  0.00    +0.000 NA
ATOM     11  C   UNL     1       4.805   4.614  16.561  0.00  0.00    +0.000 A 
ATOM     12  N   UNL     1       4.568   3.356  16.976  0.00  0.00    +0.000 NA
ATOM     13  C   UNL     1       3.659   3.159  17.955  0.00  0.00    +0.000 A 
ATOM     14  N   UNL     1       3.442   1.855  18.364  0.00  0.00    +0.000 N 
ATOM     15  C   UNL     1       2.996   4.272  18.482  0.00  0.00    +0.000 A 
ATOM     16  H   UNL     1       3.779   1.173  17.696  0.00  0.00    +0.000 HD
ATOM     17  H   UNL     1       2.559   1.669  18.822  0.00  0.00    +0.000 HD
BRANCH   6  19
ATOM     18  C   UNL     1       2.237   2.994  21.672  0.00  0.00    +0.000 C 
ATOM     19  S   UNL     1       1.075   3.377  20.342  0.00  0.00    +0.000 S 
ENDBRANCH   6  19
ENDBRANCH   1   8
BRANCH   3  20
ATOM     20  O   UNL     1       2.181  10.680  17.481  0.00  0.00    +0.000 OA
ATOM     21  H   UNL     1       2.896  10.189  17.038  0.00  0.00    +0.000 HD
ENDBRANCH   3  20
BRANCH   4  22
ATOM     22  C   UNL     1       0.026   9.183  20.172  0.00  0.00    +0.000 C 
BRANCH  22  23
ATOM     23  O   UNL     1      -0.381  10.208  21.076  0.00  0.00    +0.000 OA
BRANCH  23  24
ATOM     24  S   UNL     1      -0.049   9.973  22.645  0.00  0.00    +0.000 S 
ATOM     25  O   UNL     1       1.360   9.678  22.756  0.00  0.00    +0.000 OA
ATOM     26  O   UNL     1      -0.688  11.019  23.407  0.00  0.00    +0.000 OA
BRANCH  24  27
ATOM     27  N   UNL     1      -0.865   8.556  22.978  0.00  0.00    +0.000 NA
ATOM     28  H   UNL     1      -0.528   8.123  23.834  0.00  0.00    +0.000 HD
ATOM     29  H   UNL     1      -0.882   7.941  22.167  0.00  0.00    +0.000 HD
ENDBRANCH  24  27
ENDBRANCH  23  24
ENDBRANCH  22  23
ENDBRANCH   4  22
TORSDOF 7
ENDMDL
MODEL 9
REMARK VINA RESULT:      -6.1      1.583      2.808
REMARK  Name = 
REMARK  8 active torsions:
REMARK  status: ('A' for Active; 'I' for Inactive)
REMARK    1  A    between atoms: C_1  and  S_2
REMARK    2  A    between atoms: S_2  and  C_3
REMARK    3  A    between atoms: N_5  and  C_6
REMARK    4  A    between atoms: C_8  and  O_9
REMARK    5  A    between atoms: C_10  and  C_11
REMARK    6  A    between atoms: C_11  and  O_12
REMARK    7  A    between atoms: O_12  and  S_13
REMARK    8  A    between atoms: S_13  and  N_14
REMARK                            x       y       z     vdW  Elec       q    Type
REMARK                         _______ _______ _______ _____ _____    ______ ____
ROOT
ATOM      1  C   UNL     1       4.614   3.569  15.993  0.00  0.00    +0.000 C 
ATOM      2  C   UNL     1       4.737   4.655  14.925  0.00  0.00    +0.000 C 
ATOM      3  C   UNL     1       6.133   4.445  14.399  0.00  0.00    +0.000 C 
ATOM      4  C   UNL     1       6.909   3.994  15.635  0.00  0.00    +0.000 C 
ATOM      5  O   UNL     1       5.952   3.316  16.480  0.00  0.00    +0.000 OA
ENDROOT
BRANCH   1   8
ATOM      6  C   UNL     1       2.443   3.548  18.749  0.00  0.00    +0.000 A 
ATOM      7  N   UNL     1       3.110   2.902  17.790  0.00  0.00    +0.000 NA
ATOM      8  N   UNL     1       3.731   3.894  17.107  0.00  0.00    +0.000 N 
ATOM      9  C   UNL     1       3.522   5.134  17.657  0.00  0.00    +0.000 A 
ATOM     10  N   UNL     1       4.056   6.304  17.266  0.00  0.00    +0.000 NA
ATOM     11  C   UNL     1       3.612   7.323  18.021  0.00  0.00    +0.000 A 
ATOM     12  N   UNL     1       2.754   7.278  19.057  0.00  0.00    +0.000 NA
ATOM     13  C   UNL     1       2.245   6.082  19.422  0.00  0.00    +0.000 A 
ATOM     14  N   UNL     1       1.361   6.068  20.487  0.00  0.00    +0.000 N 
ATOM     15  C   UNL     1       2.644   4.944  18.715  0.00  0.00    +0.000 A 
ATOM     16  H   UNL     1       1.411   6.909  21.049  0.00  0.00    +0.000 HD
ATOM     17  H   UNL     1       1.252   5.186  20.970  0.00  0.00    +0.000 HD
BRANCH   6  19
ATOM     18  C   UNL     1       2.563   2.778  21.386  0.00  0.00    +0.000 C 
ATOM     19  S   UNL     1       1.492   2.676  19.933  0.00  0.00    +0.000 S 
ENDBRANCH   6  19
ENDBRANCH   1   8
BRANCH   3  20
ATOM     20  O   UNL     1       6.103   3.427  13.397  0.00  0.00    +0.000 OA
ATOM     21  H   UNL     1       5.349   3.584  12.800  0.00  0.00    +0.000 HD
ENDBRANCH   3  20
BRANCH   4  22
ATOM     22  C   UNL     1       7.521   5.161  16.416  0.00  0.00    +0.000 C 
BRANCH  22  23
ATOM     23  O   UNL     1       8.041   4.674  17.651  0.00  0.00    +0.000 OA
BRANCH  23  24
ATOM     24  S   UNL     1       7.754   5.573  18.970  0.00  0.00    +0.000 S 
ATOM     25  O   UNL     1       8.621   5.097  20.021  0.00  0.00    +0.000 OA
ATOM     26  O   UNL     1       7.699   6.959  18.572  0.00  0.00    +0.000 OA
BRANCH  24  27
ATOM     27  N   UNL     1       6.202   5.120  19.383  0.00  0.00    +0.000 NA
ATOM     28  H   UNL     1       5.604   5.929  19.532  0.00  0.00    +0.000 HD
ATOM     29  H   UNL     1       6.205   4.446  20.146  0.00  0.00    +0.000 HD
ENDBRANCH  24  27
ENDBRANCH  23  24
ENDBRANCH  22  23
ENDBRANCH   4  22
TORSDOF 7
ENDMDL
