MODEL 1
REMARK VINA RESULT:      -8.1      0.000      0.000
REMARK  Name = 
REMARK  5 active torsions:
REMARK  status: ('A' for Active; 'I' for Inactive)
REMARK    1  A    between atoms: N_1  and  C_2
REMARK    2  A    between atoms: C_7  and  C_8
REMARK    3  A    between atoms: C_12  and  C_13
REMARK    4  A    between atoms: N_20  and  C_21
REMARK    5  A    between atoms: C_25  and  O_26
REMARK                            x       y       z     vdW  Elec       q    Type
REMARK                         _______ _______ _______ _____ _____    ______ ____
ROOT
ATOM      1  C   UNL     1       0.170  10.077  19.385  0.00  0.00    +0.000 A 
ATOM      2  C   UNL     1       0.890  10.749  18.402  0.00  0.00    +0.000 A 
ATOM      3  C   UNL     1       2.018  10.158  17.823  0.00  0.00    +0.000 A 
ATOM      4  C   UNL     1       2.469   8.909  18.217  0.00  0.00    +0.000 A 
ATOM      5  N   UNL     1       3.539   8.407  17.599  0.00  0.00    +0.000 NA
ATOM      6  C   UNL     1       3.958   7.192  17.981  0.00  0.00    +0.000 A 
ATOM      7  N   UNL     1       3.365   6.446  18.919  0.00  0.00    +0.000 NA
ATOM      8  C   UNL     1       2.270   6.948  19.525  0.00  0.00    +0.000 A 
ATOM      9  N   UNL     1       1.568   6.116  20.435  0.00  0.00    +0.000 N 
ATOM     10  C   UNL     1       1.778   8.231  19.227  0.00  0.00    +0.000 A 
ATOM     11  C   UNL     1       0.648   8.846  19.828  0.00  0.00    +0.000 A 
ATOM     12  H   UNL     1       1.487   6.557  21.343  0.00  0.00    +0.000 HD
ENDROOT
BRANCH   6  13
ATOM     13  C   UNL     1       5.114   6.613  17.274  0.00  0.00    +0.000 A 
ATOM     14  C   UNL     1       6.428   6.940  17.654  0.00  0.00    +0.000 A 
ATOM     15  C   UNL     1       7.534   6.429  16.972  0.00  0.00    +0.000 A 
ATOM     16  C   UNL     1       7.349   5.564  15.897  0.00  0.00    +0.000 A 
ATOM     17  C   UNL     1       6.058   5.202  15.491  0.00  0.00    +0.000 A 
ATOM     18  C   UNL     1       4.953   5.731  16.186  0.00  0.00    +0.000 A 
BRANCH  17  19
ATOM     19  C   UNL     1       5.845   4.261  14.332  0.00  0.00    +0.000 C 
ATOM     20  F   UNL     1       4.582   4.301  13.819  0.00  0.00    +0.000 F 
ATOM     21  F   UNL     1       6.676   4.526  13.284  0.00  0.00    +0.000 F 
ATOM     22  F   UNL     1       6.066   2.958  14.665  0.00  0.00    +0.000 F 
ENDBRANCH  17  19
ENDBRANCH   6  13
BRANCH   9  23
ATOM     23  C   UNL     1       1.692   4.709  20.497  0.00  0.00    +0.000 A 
ATOM     24  C   UNL     1       2.272   4.084  21.613  0.00  0.00    +0.000 A 
ATOM     25  C   UNL     1       2.352   2.694  21.705  0.00  0.00    +0.000 A 
ATOM     26  C   UNL     1       1.854   1.902  20.674  0.00  0.00    +0.000 A 
ATOM     27  C   UNL     1       1.297   2.515  19.556  0.00  0.00    +0.000 A 
ATOM     28  C   UNL     1       1.227   3.904  19.452  0.00  0.00    +0.000 A 
BRANCH  27  29
ATOM     29  O   UNL     1       0.787   1.774  18.530  0.00  0.00    +0.000 OA
ATOM     30  H   UNL     1       1.258   2.015  17.715  0.00  0.00    +0.000 HD
ENDBRANCH  27  29
ENDBRANCH   9  23
BRANCH   1  31
ATOM     31  N   UNL     1      -0.879  10.718  20.052  0.00  0.00    +0.000 N 
ATOM     32  H   UNL     1      -1.668  10.110  20.253  0.00  0.00    +0.000 HD
ATOM     33  H   UNL     1      -0.593  11.249  20.867  0.00  0.00    +0.000 HD
ENDBRANCH   1  31
TORSDOF 5
ENDMDL
MODEL 2
REMARK VINA RESULT:      -7.7      0.832      1.415
REMARK  Name = 
REMARK  5 active torsions:
REMARK  status: ('A' for Active; 'I' for Inactive)
REMARK    1  A    between atoms: N_1  and  C_2
REMARK    2  A    between atoms: C_7  and  C_8
REMARK    3  A    between atoms: C_12  and  C_13
REMARK    4  A    between atoms: N_20  and  C_21
REMARK    5  A    between atoms: C_25  and  O_26
REMARK                            x       y       z     vdW  Elec       q    Type
REMARK                         _______ _______ _______ _____ _____    ______ ____
ROOT
ATOM      1  C   UNL     1       0.194  10.131  19.370  0.00  0.00    +0.000 A 
ATOM      2  C   UNL     1       0.964  10.830  18.444  0.00  0.00    +0.000 A 
ATOM      3  C   UNL     1       2.096  10.237  17.875  0.00  0.00    +0.000 A 
ATOM      4  C   UNL     1       2.503   8.960  18.224  0.00  0.00    +0.000 A 
ATOM      5  N   UNL     1       3.581   8.460  17.617  0.00  0.00    +0.000 NA
ATOM      6  C   UNL     1       3.957   7.218  17.955  0.00  0.00    +0.000 A 
ATOM      7  N   UNL     1       3.314   6.444  18.836  0.00  0.00    +0.000 NA
ATOM      8  C   UNL     1       2.211   6.946  19.428  0.00  0.00    +0.000 A 
ATOM      9  N   UNL     1       1.458   6.090  20.274  0.00  0.00    +0.000 N 
ATOM     10  C   UNL     1       1.761   8.253  19.177  0.00  0.00    +0.000 A 
ATOM     11  C   UNL     1       0.626   8.869  19.768  0.00  0.00    +0.000 A 
ATOM     12  H   UNL     1       1.358   6.490  21.199  0.00  0.00    +0.000 HD
ENDROOT
BRANCH   6  13
ATOM     13  C   UNL     1       5.121   6.643  17.259  0.00  0.00    +0.000 A 
ATOM     14  C   UNL     1       6.430   7.002  17.628  0.00  0.00    +0.000 A 
ATOM     15  C   UNL     1       7.543   6.495  16.957  0.00  0.00    +0.000 A 
ATOM     16  C   UNL     1       7.373   5.601  15.902  0.00  0.00    +0.000 A 
ATOM     17  C   UNL     1       6.087   5.206  15.508  0.00  0.00    +0.000 A 
ATOM     18  C   UNL     1       4.974   5.732  16.193  0.00  0.00    +0.000 A 
BRANCH  17  19
ATOM     19  C   UNL     1       5.889   4.234  14.373  0.00  0.00    +0.000 C 
ATOM     20  F   UNL     1       6.788   4.386  13.360  0.00  0.00    +0.000 F 
ATOM     21  F   UNL     1       6.000   2.935  14.771  0.00  0.00    +0.000 F 
ATOM     22  F   UNL     1       4.660   4.344  13.794  0.00  0.00    +0.000 F 
ENDBRANCH  17  19
ENDBRANCH   6  13
BRANCH   9  23
ATOM     23  C   UNL     1       1.545   4.679  20.273  0.00  0.00    +0.000 A 
ATOM     24  C   UNL     1       1.031   3.926  19.204  0.00  0.00    +0.000 A 
ATOM     25  C   UNL     1       1.157   2.536  19.170  0.00  0.00    +0.000 A 
ATOM     26  C   UNL     1       1.800   1.874  20.211  0.00  0.00    +0.000 A 
ATOM     27  C   UNL     1       2.294   2.612  21.283  0.00  0.00    +0.000 A 
ATOM     28  C   UNL     1       2.158   3.999  21.329  0.00  0.00    +0.000 A 
BRANCH  27  29
ATOM     29  O   UNL     1       2.942   2.001  22.317  0.00  0.00    +0.000 OA
ATOM     30  H   UNL     1       3.894   2.009  22.127  0.00  0.00    +0.000 HD
ENDBRANCH  27  29
ENDBRANCH   9  23
BRANCH   1  31
ATOM     31  N   UNL     1      -0.860  10.768  20.031  0.00  0.00    +0.000 N 
ATOM     32  H   UNL     1      -1.650  10.158  20.225  0.00  0.00    +0.000 HD
ATOM     33  H   UNL     1      -0.581  11.295  20.851  0.00  0.00    +0.000 HD
ENDBRANCH   1  31
TORSDOF 5
ENDMDL
MODEL 3
REMARK VINA RESULT:      -7.5      4.518      6.528
REMARK  Name = 
REMARK  5 active torsions:
REMARK  status: ('A' for Active; 'I' for Inactive)
REMARK    1  A    between atoms: N_1  and  C_2
REMARK    2  A    between atoms: C_7  and  C_8
REMARK    3  A    between atoms: C_12  and  C_13
REMARK    4  A    between atoms: N_20  and  C_21
REMARK    5  A    between atoms: C_25  and  O_26
REMARK                            x       y       z     vdW  Elec       q    Type
REMARK                         _______ _______ _______ _____ _____    ______ ____
ROOT
ATOM      1  C   UNL     1       5.677   3.303  12.337  0.00  0.00    +0.000 A 
ATOM      2  C   UNL     1       6.890   3.952  12.124  0.00  0.00    +0.000 A 
ATOM      3  C   UNL     1       7.448   4.754  13.124  0.00  0.00    +0.000 A 
ATOM      4  C   UNL     1       6.813   4.950  14.340  0.00  0.00    +0.000 A 
ATOM      5  N   UNL     1       7.425   5.712  15.248  0.00  0.00    +0.000 NA
ATOM      6  C   UNL     1       6.806   5.883  16.426  0.00  0.00    +0.000 A 
ATOM      7  N   UNL     1       5.635   5.327  16.755  0.00  0.00    +0.000 NA
ATOM      8  C   UNL     1       5.033   4.539  15.841  0.00  0.00    +0.000 A 
ATOM      9  N   UNL     1       3.851   3.853  16.224  0.00  0.00    +0.000 N 
ATOM     10  C   UNL     1       5.578   4.333  14.562  0.00  0.00    +0.000 A 
ATOM     11  C   UNL     1       5.004   3.539  13.533  0.00  0.00    +0.000 A 
ATOM     12  H   UNL     1       3.084   4.072  15.600  0.00  0.00    +0.000 HD
ENDROOT
BRANCH   6  13
ATOM     13  C   UNL     1       7.494   6.688  17.450  0.00  0.00    +0.000 A 
ATOM     14  C   UNL     1       7.879   6.115  18.676  0.00  0.00    +0.000 A 
ATOM     15  C   UNL     1       8.500   6.872  19.671  0.00  0.00    +0.000 A 
ATOM     16  C   UNL     1       8.762   8.222  19.458  0.00  0.00    +0.000 A 
ATOM     17  C   UNL     1       8.406   8.831  18.246  0.00  0.00    +0.000 A 
ATOM     18  C   UNL     1       7.776   8.056  17.255  0.00  0.00    +0.000 A 
BRANCH  17  19
ATOM     19  C   UNL     1       8.691  10.292  18.000  0.00  0.00    +0.000 C 
ATOM     20  F   UNL     1       7.715  10.927  17.292  0.00  0.00    +0.000 F 
ATOM     21  F   UNL     1       8.826  11.000  19.157  0.00  0.00    +0.000 F 
ATOM     22  F   UNL     1       9.843  10.492  17.302  0.00  0.00    +0.000 F 
ENDBRANCH  17  19
ENDBRANCH   6  13
BRANCH   9  23
ATOM     23  C   UNL     1       3.448   3.631  17.561  0.00  0.00    +0.000 A 
ATOM     24  C   UNL     1       2.193   4.064  18.017  0.00  0.00    +0.000 A 
ATOM     25  C   UNL     1       1.767   3.806  19.321  0.00  0.00    +0.000 A 
ATOM     26  C   UNL     1       2.596   3.109  20.195  0.00  0.00    +0.000 A 
ATOM     27  C   UNL     1       3.850   2.695  19.756  0.00  0.00    +0.000 A 
ATOM     28  C   UNL     1       4.287   2.963  18.459  0.00  0.00    +0.000 A 
BRANCH  27  29
ATOM     29  O   UNL     1       4.688   1.999  20.578  0.00  0.00    +0.000 OA
ATOM     30  H   UNL     1       4.430   1.063  20.554  0.00  0.00    +0.000 HD
ENDBRANCH  27  29
ENDBRANCH   9  23
BRANCH   1  31
ATOM     31  N   UNL     1       5.058   2.607  11.294  0.00  0.00    +0.000 N 
ATOM     32  H   UNL     1       5.206   3.024  10.379  0.00  0.00    +0.000 HD
ATOM     33  H   UNL     1       5.244   1.610  11.290  0.00  0.00    +0.000 HD
ENDBRANCH   1  31
TORSDOF 5
ENDMDL
MODEL 4
REMARK VINA RESULT:      -7.3      2.635      5.501
REMARK  Name = 
REMARK  5 active torsions:
REMARK  status: ('A' for Active; 'I' for Inactive)
REMARK    1  A    between atoms: N_1  and  C_2
REMARK    2  A    between atoms: C_7  and  C_8
REMARK    3  A    between atoms: C_12  and  C_13
REMARK    4  A    between atoms: N_20  and  C_21
REMARK    5  A    between atoms: C_25  and  O_26
REMARK                            x       y       z     vdW  Elec       q    Type
REMARK                         _______ _______ _______ _____ _____    ______ ____
ROOT
ATOM      1  C   UNL     1       1.497  10.897  18.653  0.00  0.00    +0.000 A 
ATOM      2  C   UNL     1       0.755  10.536  19.773  0.00  0.00    +0.000 A 
ATOM      3  C   UNL     1       0.794   9.224  20.255  0.00  0.00    +0.000 A 
ATOM      4  C   UNL     1       1.545   8.240  19.631  0.00  0.00    +0.000 A 
ATOM      5  N   UNL     1       1.545   7.020  20.168  0.00  0.00    +0.000 NA
ATOM      6  C   UNL     1       2.286   6.080  19.562  0.00  0.00    +0.000 A 
ATOM      7  N   UNL     1       3.036   6.291  18.474  0.00  0.00    +0.000 NA
ATOM      8  C   UNL     1       3.049   7.533  17.950  0.00  0.00    +0.000 A 
ATOM      9  N   UNL     1       3.932   7.792  16.868  0.00  0.00    +0.000 N 
ATOM     10  C   UNL     1       2.273   8.575  18.484  0.00  0.00    +0.000 A 
ATOM     11  C   UNL     1       2.210   9.903  17.986  0.00  0.00    +0.000 A 
ATOM     12  H   UNL     1       3.429   8.151  16.066  0.00  0.00    +0.000 HD
ENDROOT
BRANCH   6  13
ATOM     13  C   UNL     1       2.326   4.740  20.173  0.00  0.00    +0.000 A 
ATOM     14  C   UNL     1       1.265   4.284  20.977  0.00  0.00    +0.000 A 
ATOM     15  C   UNL     1       1.302   3.032  21.593  0.00  0.00    +0.000 A 
ATOM     16  C   UNL     1       2.402   2.198  21.408  0.00  0.00    +0.000 A 
ATOM     17  C   UNL     1       3.476   2.607  20.605  0.00  0.00    +0.000 A 
ATOM     18  C   UNL     1       3.425   3.875  19.996  0.00  0.00    +0.000 A 
BRANCH  17  19
ATOM     19  C   UNL     1       4.669   1.710  20.391  0.00  0.00    +0.000 C 
ATOM     20  F   UNL     1       5.119   1.117  21.533  0.00  0.00    +0.000 F 
ATOM     21  F   UNL     1       4.408   0.690  19.525  0.00  0.00    +0.000 F 
ATOM     22  F   UNL     1       5.740   2.374  19.875  0.00  0.00    +0.000 F 
ENDBRANCH  17  19
ENDBRANCH   6  13
BRANCH   9  23
ATOM     23  C   UNL     1       5.043   6.988  16.528  0.00  0.00    +0.000 A 
ATOM     24  C   UNL     1       6.235   7.054  17.268  0.00  0.00    +0.000 A 
ATOM     25  C   UNL     1       7.320   6.228  16.971  0.00  0.00    +0.000 A 
ATOM     26  C   UNL     1       7.231   5.320  15.920  0.00  0.00    +0.000 A 
ATOM     27  C   UNL     1       6.060   5.264  15.169  0.00  0.00    +0.000 A 
ATOM     28  C   UNL     1       4.979   6.097  15.453  0.00  0.00    +0.000 A 
BRANCH  27  29
ATOM     29  O   UNL     1       5.929   4.378  14.139  0.00  0.00    +0.000 OA
ATOM     30  H   UNL     1       6.183   4.828  13.316  0.00  0.00    +0.000 HD
ENDBRANCH  27  29
ENDBRANCH   9  23
BRANCH   1  31
ATOM     31  N   UNL     1       1.359  12.172  18.097  0.00  0.00    +0.000 N 
ATOM     32  H   UNL     1       0.443  12.344  17.689  0.00  0.00    +0.000 HD
ATOM     33  H   UNL     1       1.648  12.928  18.708  0.00  0.00    +0.000 HD
ENDBRANCH   1  31
TORSDOF 5
ENDMDL
MODEL 5
REMARK VINA RESULT:      -7.2     10.106     12.229
REMARK  Name = 
REMARK  5 active torsions:
REMARK  status: ('A' for Active; 'I' for Inactive)
REMARK    1  A    between atoms: N_1  and  C_2
REMARK    2  A    between atoms: C_7  and  C_8
REMARK    3  A    between atoms: C_12  and  C_13
REMARK    4  A    between atoms: N_20  and  C_21
REMARK    5  A    between atoms: C_25  and  O_26
REMARK                            x       y       z     vdW  Elec       q    Type
REMARK                         _______ _______ _______ _____ _____    ______ ____
ROOT
ATOM      1  C   UNL     1      11.660  12.801  17.271  0.00  0.00    +0.000 A 
ATOM      2  C   UNL     1      12.171  11.926  18.226  0.00  0.00    +0.000 A 
ATOM      3  C   UNL     1      11.572  11.828  19.486  0.00  0.00    +0.000 A 
ATOM      4  C   UNL     1      10.478  12.602  19.836  0.00  0.00    +0.000 A 
ATOM      5  N   UNL     1       9.953  12.430  21.049  0.00  0.00    +0.000 NA
ATOM      6  C   UNL     1       8.886  13.177  21.371  0.00  0.00    +0.000 A 
ATOM      7  N   UNL     1       8.305  14.061  20.552  0.00  0.00    +0.000 NA
ATOM      8  C   UNL     1       8.826  14.213  19.318  0.00  0.00    +0.000 A 
ATOM      9  N   UNL     1       8.145  15.061  18.405  0.00  0.00    +0.000 N 
ATOM     10  C   UNL     1       9.969  13.511  18.901  0.00  0.00    +0.000 A 
ATOM     11  C   UNL     1      10.596  13.624  17.632  0.00  0.00    +0.000 A 
ATOM     12  H   UNL     1       8.758  15.788  18.057  0.00  0.00    +0.000 HD
ENDROOT
BRANCH   6  13
ATOM     13  C   UNL     1       8.274  12.963  22.694  0.00  0.00    +0.000 A 
ATOM     14  C   UNL     1       7.393  11.888  22.913  0.00  0.00    +0.000 A 
ATOM     15  C   UNL     1       6.776  11.691  24.150  0.00  0.00    +0.000 A 
ATOM     16  C   UNL     1       7.038  12.562  25.205  0.00  0.00    +0.000 A 
ATOM     17  C   UNL     1       7.919  13.638  25.034  0.00  0.00    +0.000 A 
ATOM     18  C   UNL     1       8.528  13.826  23.779  0.00  0.00    +0.000 A 
BRANCH  17  19
ATOM     19  C   UNL     1       8.217  14.584  26.171  0.00  0.00    +0.000 C 
ATOM     20  F   UNL     1       7.370  14.448  27.231  0.00  0.00    +0.000 F 
ATOM     21  F   UNL     1       9.471  14.415  26.678  0.00  0.00    +0.000 F 
ATOM     22  F   UNL     1       8.136  15.893  25.801  0.00  0.00    +0.000 F 
ENDBRANCH  17  19
ENDBRANCH   6  13
BRANCH   9  23
ATOM     23  C   UNL     1       6.799  15.470  18.540  0.00  0.00    +0.000 A 
ATOM     24  C   UNL     1       6.465  16.620  19.274  0.00  0.00    +0.000 A 
ATOM     25  C   UNL     1       5.144  17.060  19.370  0.00  0.00    +0.000 A 
ATOM     26  C   UNL     1       4.130  16.351  18.733  0.00  0.00    +0.000 A 
ATOM     27  C   UNL     1       4.451  15.199  18.021  0.00  0.00    +0.000 A 
ATOM     28  C   UNL     1       5.767  14.747  17.933  0.00  0.00    +0.000 A 
BRANCH  27  29
ATOM     29  O   UNL     1       3.488  14.483  17.372  0.00  0.00    +0.000 OA
ATOM     30  H   UNL     1       2.620  14.778  17.693  0.00  0.00    +0.000 HD
ENDBRANCH  27  29
ENDBRANCH   9  23
BRANCH   1  31
ATOM     31  N   UNL     1      12.333  12.992  16.060  0.00  0.00    +0.000 N 
ATOM     32  H   UNL     1      12.734  12.141  15.675  0.00  0.00    +0.000 HD
ATOM     33  H   UNL     1      11.805  13.509  15.366  0.00  0.00    +0.000 HD
ENDBRANCH   1  31
TORSDOF 5
ENDMDL
MODEL 6
REMARK VINA RESULT:      -7.2      1.003      1.094
REMARK  Name = 
REMARK  5 active torsions:
REMARK  status: ('A' for Active; 'I' for Inactive)
REMARK    1  A    between atoms: N_1  and  C_2
REMARK    2  A    between atoms: C_7  and  C_8
REMARK    3  A    between atoms: C_12  and  C_13
REMARK    4  A    between atoms: N_20  and  C_21
REMARK    5  A    between atoms: C_25  and  O_26
REMARK                            x       y       z     vdW  Elec       q    Type
REMARK                         _______ _______ _______ _____ _____    ______ ____
ROOT
ATOM      1  C   UNL     1       0.192   9.812  19.462  0.00  0.00    +0.000 A 
ATOM      2  C   UNL     1       0.778  10.479  18.390  0.00  0.00    +0.000 A 
ATOM      3  C   UNL     1       1.898   9.941  17.749  0.00  0.00    +0.000 A 
ATOM      4  C   UNL     1       2.474   8.751  18.163  0.00  0.00    +0.000 A 
ATOM      5  N   UNL     1       3.526   8.296  17.482  0.00  0.00    +0.000 NA
ATOM      6  C   UNL     1       4.067   7.137  17.886  0.00  0.00    +0.000 A 
ATOM      7  N   UNL     1       3.610   6.402  18.906  0.00  0.00    +0.000 NA
ATOM      8  C   UNL     1       2.531   6.856  19.576  0.00  0.00    +0.000 A 
ATOM      9  N   UNL     1       1.970   6.026  20.582  0.00  0.00    +0.000 N 
ATOM     10  C   UNL     1       1.920   8.081  19.260  0.00  0.00    +0.000 A 
ATOM     11  C   UNL     1       0.797   8.645  19.922  0.00  0.00    +0.000 A 
ATOM     12  H   UNL     1       1.929   6.508  21.471  0.00  0.00    +0.000 HD
ENDROOT
BRANCH   6  13
ATOM     13  C   UNL     1       5.203   6.606  17.113  0.00  0.00    +0.000 A 
ATOM     14  C   UNL     1       6.518   7.026  17.386  0.00  0.00    +0.000 A 
ATOM     15  C   UNL     1       7.602   6.560  16.640  0.00  0.00    +0.000 A 
ATOM     16  C   UNL     1       7.396   5.649  15.607  0.00  0.00    +0.000 A 
ATOM     17  C   UNL     1       6.104   5.194  15.309  0.00  0.00    +0.000 A 
ATOM     18  C   UNL     1       5.021   5.678  16.067  0.00  0.00    +0.000 A 
BRANCH  17  19
ATOM     19  C   UNL     1       5.869   4.203  14.197  0.00  0.00    +0.000 C 
ATOM     20  F   UNL     1       4.606   4.244  13.686  0.00  0.00    +0.000 F 
ATOM     21  F   UNL     1       6.702   4.399  13.136  0.00  0.00    +0.000 F 
ATOM     22  F   UNL     1       6.064   2.913  14.593  0.00  0.00    +0.000 F 
ENDBRANCH  17  19
ENDBRANCH   6  13
BRANCH   9  23
ATOM     23  C   UNL     1       2.206   4.637  20.701  0.00  0.00    +0.000 A 
ATOM     24  C   UNL     1       1.219   3.779  21.213  0.00  0.00    +0.000 A 
ATOM     25  C   UNL     1       1.425   2.401  21.288  0.00  0.00    +0.000 A 
ATOM     26  C   UNL     1       2.628   1.855  20.851  0.00  0.00    +0.000 A 
ATOM     27  C   UNL     1       3.618   2.702  20.361  0.00  0.00    +0.000 A 
ATOM     28  C   UNL     1       3.424   4.081  20.297  0.00  0.00    +0.000 A 
BRANCH  27  29
ATOM     29  O   UNL     1       4.807   2.205  19.910  0.00  0.00    +0.000 OA
ATOM     30  H   UNL     1       5.079   1.484  20.501  0.00  0.00    +0.000 HD
ENDBRANCH  27  29
ENDBRANCH   9  23
BRANCH   1  31
ATOM     31  N   UNL     1      -0.845  10.411  20.183  0.00  0.00    +0.000 N 
ATOM     32  H   UNL     1      -1.353  11.118  19.658  0.00  0.00    +0.000 HD
ATOM     33  H   UNL     1      -1.472   9.755  20.636  0.00  0.00    +0.000 HD
ENDBRANCH   1  31
TORSDOF 5
ENDMDL
MODEL 7
REMARK VINA RESULT:      -7.1      5.685      8.561
REMARK  Name = 
REMARK  5 active torsions:
REMARK  status: ('A' for Active; 'I' for Inactive)
REMARK    1  A    between atoms: N_1  and  C_2
REMARK    2  A    between atoms: C_7  and  C_8
REMARK    3  A    between atoms: C_12  and  C_13
REMARK    4  A    between atoms: N_20  and  C_21
REMARK    5  A    between atoms: C_25  and  O_26
REMARK                            x       y       z     vdW  Elec       q    Type
REMARK                         _______ _______ _______ _____ _____    ______ ____
ROOT
ATOM      1  C   UNL     1      -3.637  12.523  23.975  0.00  0.00    +0.000 A 
ATOM      2  C   UNL     1      -3.476  13.896  24.140  0.00  0.00    +0.000 A 
ATOM      3  C   UNL     1      -2.348  14.543  23.627  0.00  0.00    +0.000 A 
ATOM      4  C   UNL     1      -1.348  13.850  22.964  0.00  0.00    +0.000 A 
ATOM      5  N   UNL     1      -0.317  14.546  22.486  0.00  0.00    +0.000 NA
ATOM      6  C   UNL     1       0.638  13.865  21.836  0.00  0.00    +0.000 A 
ATOM      7  N   UNL     1       0.613  12.545  21.617  0.00  0.00    +0.000 NA
ATOM      8  C   UNL     1      -0.445  11.850  22.083  0.00  0.00    +0.000 A 
ATOM      9  N   UNL     1      -0.537  10.472  21.754  0.00  0.00    +0.000 N 
ATOM     10  C   UNL     1      -1.475  12.464  22.816  0.00  0.00    +0.000 A 
ATOM     11  C   UNL     1      -2.611  11.809  23.360  0.00  0.00    +0.000 A 
ATOM     12  H   UNL     1      -0.608   9.903  22.588  0.00  0.00    +0.000 HD
ENDROOT
BRANCH   6  13
ATOM     13  C   UNL     1       1.760  14.632  21.267  0.00  0.00    +0.000 A 
ATOM     14  C   UNL     1       2.305  15.729  21.959  0.00  0.00    +0.000 A 
ATOM     15  C   UNL     1       3.344  16.489  21.419  0.00  0.00    +0.000 A 
ATOM     16  C   UNL     1       3.873  16.159  20.174  0.00  0.00    +0.000 A 
ATOM     17  C   UNL     1       3.369  15.067  19.455  0.00  0.00    +0.000 A 
ATOM     18  C   UNL     1       2.316  14.314  20.011  0.00  0.00    +0.000 A 
BRANCH  17  19
ATOM     19  C   UNL     1       3.938  14.696  18.108  0.00  0.00    +0.000 C 
ATOM     20  F   UNL     1       5.258  15.005  17.969  0.00  0.00    +0.000 F 
ATOM     21  F   UNL     1       3.843  13.361  17.850  0.00  0.00    +0.000 F 
ATOM     22  F   UNL     1       3.302  15.322  17.079  0.00  0.00    +0.000 F 
ENDBRANCH  17  19
ENDBRANCH   6  13
BRANCH   9  23
ATOM     23  C   UNL     1       0.170   9.849  20.701  0.00  0.00    +0.000 A 
ATOM     24  C   UNL     1       0.089  10.340  19.387  0.00  0.00    +0.000 A 
ATOM     25  C   UNL     1       0.823   9.762  18.350  0.00  0.00    +0.000 A 
ATOM     26  C   UNL     1       1.652   8.675  18.611  0.00  0.00    +0.000 A 
ATOM     27  C   UNL     1       1.721   8.170  19.907  0.00  0.00    +0.000 A 
ATOM     28  C   UNL     1       0.979   8.735  20.943  0.00  0.00    +0.000 A 
BRANCH  27  29
ATOM     29  O   UNL     1       2.532   7.114  20.206  0.00  0.00    +0.000 OA
ATOM     30  H   UNL     1       1.985   6.312  20.246  0.00  0.00    +0.000 HD
ENDBRANCH  27  29
ENDBRANCH   9  23
BRANCH   1  31
ATOM     31  N   UNL     1      -4.698  11.859  24.596  0.00  0.00    +0.000 N 
ATOM     32  H   UNL     1      -5.099  12.369  25.379  0.00  0.00    +0.000 HD
ATOM     33  H   UNL     1      -5.412  11.524  23.959  0.00  0.00    +0.000 HD
ENDBRANCH   1  31
TORSDOF 5
ENDMDL
MODEL 8
REMARK VINA RESULT:      -7.1      4.364      6.514
REMARK  Name = 
REMARK  5 active torsions:
REMARK  status: ('A' for Active; 'I' for Inactive)
REMARK    1  A    between atoms: N_1  and  C_2
REMARK    2  A    between atoms: C_7  and  C_8
REMARK    3  A    between atoms: C_12  and  C_13
REMARK    4  A    between atoms: N_20  and  C_21
REMARK    5  A    between atoms: C_25  and  O_26
REMARK                            x       y       z     vdW  Elec       q    Type
REMARK                         _______ _______ _______ _____ _____    ______ ____
ROOT
ATOM      1  C   UNL     1       5.660   3.369  12.420  0.00  0.00    +0.000 A 
ATOM      2  C   UNL     1       6.879   4.006  12.201  0.00  0.00    +0.000 A 
ATOM      3  C   UNL     1       7.446   4.808  13.196  0.00  0.00    +0.000 A 
ATOM      4  C   UNL     1       6.815   5.017  14.412  0.00  0.00    +0.000 A 
ATOM      5  N   UNL     1       7.435   5.778  15.315  0.00  0.00    +0.000 NA
ATOM      6  C   UNL     1       6.819   5.961  16.492  0.00  0.00    +0.000 A 
ATOM      7  N   UNL     1       5.644   5.417  16.827  0.00  0.00    +0.000 NA
ATOM      8  C   UNL     1       5.033   4.630  15.918  0.00  0.00    +0.000 A 
ATOM      9  N   UNL     1       3.846   3.956  16.307  0.00  0.00    +0.000 N 
ATOM     10  C   UNL     1       5.574   4.412  14.639  0.00  0.00    +0.000 A 
ATOM     11  C   UNL     1       4.992   3.617  13.616  0.00  0.00    +0.000 A 
ATOM     12  H   UNL     1       3.080   4.179  15.683  0.00  0.00    +0.000 HD
ENDROOT
BRANCH   6  13
ATOM     13  C   UNL     1       7.516   6.765  17.511  0.00  0.00    +0.000 A 
ATOM     14  C   UNL     1       7.897   6.196  18.740  0.00  0.00    +0.000 A 
ATOM     15  C   UNL     1       8.526   6.953  19.730  0.00  0.00    +0.000 A 
ATOM     16  C   UNL     1       8.802   8.299  19.508  0.00  0.00    +0.000 A 
ATOM     17  C   UNL     1       8.451   8.904  18.293  0.00  0.00    +0.000 A 
ATOM     18  C   UNL     1       7.812   8.129  17.307  0.00  0.00    +0.000 A 
BRANCH  17  19
ATOM     19  C   UNL     1       8.750  10.360  18.038  0.00  0.00    +0.000 C 
ATOM     20  F   UNL     1       9.904  10.567  17.343  0.00  0.00    +0.000 F 
ATOM     21  F   UNL     1       7.771  10.977  17.317  0.00  0.00    +0.000 F 
ATOM     22  F   UNL     1       8.878  11.080  19.188  0.00  0.00    +0.000 F 
ENDBRANCH  17  19
ENDBRANCH   6  13
BRANCH   9  23
ATOM     23  C   UNL     1       3.444   3.746  17.646  0.00  0.00    +0.000 A 
ATOM     24  C   UNL     1       3.418   2.454  18.196  0.00  0.00    +0.000 A 
ATOM     25  C   UNL     1       3.071   2.242  19.531  0.00  0.00    +0.000 A 
ATOM     26  C   UNL     1       2.739   3.324  20.341  0.00  0.00    +0.000 A 
ATOM     27  C   UNL     1       2.743   4.605  19.796  0.00  0.00    +0.000 A 
ATOM     28  C   UNL     1       3.075   4.821  18.459  0.00  0.00    +0.000 A 
BRANCH  27  29
ATOM     29  O   UNL     1       2.436   5.694  20.560  0.00  0.00    +0.000 OA
ATOM     30  H   UNL     1       3.094   5.763  21.271  0.00  0.00    +0.000 HD
ENDBRANCH  27  29
ENDBRANCH   9  23
BRANCH   1  31
ATOM     31  N   UNL     1       5.034   2.673  11.382  0.00  0.00    +0.000 N 
ATOM     32  H   UNL     1       4.159   3.092  11.078  0.00  0.00    +0.000 HD
ATOM     33  H   UNL     1       5.640   2.455  10.599  0.00  0.00    +0.000 HD
ENDBRANCH   1  31
TORSDOF 5
ENDMDL
MODEL 9
REMARK VINA RESULT:      -7.1     10.322     12.432
REMARK  Name = 
REMARK  5 active torsions:
REMARK  status: ('A' for Active; 'I' for Inactive)
REMARK    1  A    between atoms: N_1  and  C_2
REMARK    2  A    between atoms: C_7  and  C_8
REMARK    3  A    between atoms: C_12  and  C_13
REMARK    4  A    between atoms: N_20  and  C_21
REMARK    5  A    between atoms: C_25  and  O_26
REMARK                            x       y       z     vdW  Elec       q    Type
REMARK                         _______ _______ _______ _____ _____    ______ ____
ROOT
ATOM      1  C   UNL     1      11.661  12.870  17.141  0.00  0.00    +0.000 A 
ATOM      2  C   UNL     1      12.166  11.991  18.095  0.00  0.00    +0.000 A 
ATOM      3  C   UNL     1      11.569  11.898  19.356  0.00  0.00    +0.000 A 
ATOM      4  C   UNL     1      10.484  12.684  19.709  0.00  0.00    +0.000 A 
ATOM      5  N   UNL     1       9.961  12.517  20.924  0.00  0.00    +0.000 NA
ATOM      6  C   UNL     1       8.903  13.275  21.249  0.00  0.00    +0.000 A 
ATOM      7  N   UNL     1       8.327  14.164  20.432  0.00  0.00    +0.000 NA
ATOM      8  C   UNL     1       8.847  14.311  19.196  0.00  0.00    +0.000 A 
ATOM      9  N   UNL     1       8.172  15.165  18.285  0.00  0.00    +0.000 N 
ATOM     10  C   UNL     1       9.982  13.597  18.776  0.00  0.00    +0.000 A 
ATOM     11  C   UNL     1      10.606  13.703  17.505  0.00  0.00    +0.000 A 
ATOM     12  H   UNL     1       8.791  15.886  17.935  0.00  0.00    +0.000 HD
ENDROOT
BRANCH   6  13
ATOM     13  C   UNL     1       8.292  13.067  22.573  0.00  0.00    +0.000 A 
ATOM     14  C   UNL     1       7.793  11.805  22.946  0.00  0.00    +0.000 A 
ATOM     15  C   UNL     1       7.180  11.599  24.182  0.00  0.00    +0.000 A 
ATOM     16  C   UNL     1       7.062  12.653  25.085  0.00  0.00    +0.000 A 
ATOM     17  C   UNL     1       7.556  13.923  24.761  0.00  0.00    +0.000 A 
ATOM     18  C   UNL     1       8.167  14.116  23.507  0.00  0.00    +0.000 A 
BRANCH  17  19
ATOM     19  C   UNL     1       7.440  15.071  25.733  0.00  0.00    +0.000 C 
ATOM     20  F   UNL     1       6.167  15.535  25.881  0.00  0.00    +0.000 F 
ATOM     21  F   UNL     1       7.859  14.739  26.986  0.00  0.00    +0.000 F 
ATOM     22  F   UNL     1       8.185  16.150  25.363  0.00  0.00    +0.000 F 
ENDBRANCH  17  19
ENDBRANCH   6  13
BRANCH   9  23
ATOM     23  C   UNL     1       6.831  15.588  18.423  0.00  0.00    +0.000 A 
ATOM     24  C   UNL     1       5.774  14.810  17.921  0.00  0.00    +0.000 A 
ATOM     25  C   UNL     1       4.444  15.195  18.097  0.00  0.00    +0.000 A 
ATOM     26  C   UNL     1       4.148  16.372  18.779  0.00  0.00    +0.000 A 
ATOM     27  C   UNL     1       5.191  17.158  19.260  0.00  0.00    +0.000 A 
ATOM     28  C   UNL     1       6.522  16.786  19.075  0.00  0.00    +0.000 A 
BRANCH  27  29
ATOM     29  O   UNL     1       4.942  18.312  19.945  0.00  0.00    +0.000 OA
ATOM     30  H   UNL     1       5.792  18.734  20.151  0.00  0.00    +0.000 HD
ENDBRANCH  27  29
ENDBRANCH   9  23
BRANCH   1  31
ATOM     31  N   UNL     1      12.333  13.055  15.929  0.00  0.00    +0.000 N 
ATOM     32  H   UNL     1      12.328  14.017  15.600  0.00  0.00    +0.000 HD
ATOM     33  H   UNL     1      13.262  12.650  15.900  0.00  0.00    +0.000 HD
ENDBRANCH   1  31
TORSDOF 5
ENDMDL
