MODEL 1
REMARK VINA RESULT:      -7.4      0.000      0.000
REMARK  Name = 
REMARK  6 active torsions:
REMARK  status: ('A' for Active; 'I' for Inactive)
REMARK    1  A    between atoms: C_1  and  C_2
REMARK    2  A    between atoms: C_2  and  N_3
REMARK    3  A    between atoms: N_3  and  C_4
REMARK    4  A    between atoms: C_11  and  C_12
REMARK    5  A    between atoms: N_13  and  S_14
REMARK    6  A    between atoms: S_14  and  C_17
REMARK                            x       y       z     vdW  Elec       q    Type
REMARK                         _______ _______ _______ _____ _____    ______ ____
ROOT
ATOM      1  C   UNL     1       1.605   8.528  19.611  0.00  0.00    +0.000 A 
ATOM      2  C   UNL     1       2.207   8.168  18.396  0.00  0.00    +0.000 A 
ATOM      3  C   UNL     1       2.691   6.871  18.141  0.00  0.00    +0.000 A 
ATOM      4  C   UNL     1       2.548   5.917  19.158  0.00  0.00    +0.000 A 
ATOM      5  C   UNL     1       1.913   6.231  20.356  0.00  0.00    +0.000 A 
ATOM      6  C   UNL     1       1.422   7.528  20.575  0.00  0.00    +0.000 A 
ATOM      7  N   UNL     1       1.865   5.156  21.202  0.00  0.00    +0.000 NA
ATOM      8  C   UNL     1       2.460   4.165  20.563  0.00  0.00    +0.000 A 
ATOM      9  C   UNL     1       2.609   2.803  21.133  0.00  0.00    +0.000 C 
ATOM     10  N   UNL     1       2.887   4.588  19.318  0.00  0.00    +0.000 N 
ENDROOT
BRANCH  10  11
ATOM     11  S   UNL     1       3.907   3.697  18.298  0.00  0.00    +0.000 S 
ATOM     12  O   UNL     1       4.290   2.519  19.048  0.00  0.00    +0.000 OA
ATOM     13  O   UNL     1       3.243   3.588  17.014  0.00  0.00    +0.000 OA
BRANCH  11  14
ATOM     14  C   UNL     1       5.340   4.722  18.083  0.00  0.00    +0.000 A 
ATOM     15  C   UNL     1       6.143   5.031  19.186  0.00  0.00    +0.000 A 
ATOM     16  C   UNL     1       7.263   5.845  19.016  0.00  0.00    +0.000 A 
ATOM     17  C   UNL     1       7.585   6.335  17.750  0.00  0.00    +0.000 A 
ATOM     18  C   UNL     1       6.800   5.998  16.646  0.00  0.00    +0.000 A 
ATOM     19  C   UNL     1       5.678   5.184  16.807  0.00  0.00    +0.000 A 
ENDBRANCH  11  14
ENDBRANCH  10  11
BRANCH   1  20
ATOM     20  N   UNL     1       1.114   9.833  19.760  0.00  0.00    +0.000 N 
ATOM     21  H   UNL     1       1.626  10.347  20.476  0.00  0.00    +0.000 HD
BRANCH  20  23
ATOM     22  C   UNL     1      -0.853  10.369  18.399  0.00  0.00    +0.000 C 
ATOM     23  C   UNL     1      -0.330  10.048  19.788  0.00  0.00    +0.000 C 
ENDBRANCH  20  23
ENDBRANCH   1  20
TORSDOF 4
ENDMDL
MODEL 2
REMARK VINA RESULT:      -7.4      0.030      1.034
REMARK  Name = 
REMARK  6 active torsions:
REMARK  status: ('A' for Active; 'I' for Inactive)
REMARK    1  A    between atoms: C_1  and  C_2
REMARK    2  A    between atoms: C_2  and  N_3
REMARK    3  A    between atoms: N_3  and  C_4
REMARK    4  A    between atoms: C_11  and  C_12
REMARK    5  A    between atoms: N_13  and  S_14
REMARK    6  A    between atoms: S_14  and  C_17
REMARK                            x       y       z     vdW  Elec       q    Type
REMARK                         _______ _______ _______ _____ _____    ______ ____
ROOT
ATOM      1  C   UNL     1       1.605   8.531  19.617  0.00  0.00    +0.000 A 
ATOM      2  C   UNL     1       2.197   8.173  18.396  0.00  0.00    +0.000 A 
ATOM      3  C   UNL     1       2.678   6.877  18.134  0.00  0.00    +0.000 A 
ATOM      4  C   UNL     1       2.543   5.921  19.150  0.00  0.00    +0.000 A 
ATOM      5  C   UNL     1       1.918   6.233  20.355  0.00  0.00    +0.000 A 
ATOM      6  C   UNL     1       1.430   7.530  20.580  0.00  0.00    +0.000 A 
ATOM      7  N   UNL     1       1.877   5.156  21.198  0.00  0.00    +0.000 NA
ATOM      8  C   UNL     1       2.466   4.166  20.553  0.00  0.00    +0.000 A 
ATOM      9  C   UNL     1       2.620   2.803  21.119  0.00  0.00    +0.000 C 
ATOM     10  N   UNL     1       2.883   4.592  19.305  0.00  0.00    +0.000 N 
ENDROOT
BRANCH  10  11
ATOM     11  S   UNL     1       3.894   3.703  18.274  0.00  0.00    +0.000 S 
ATOM     12  O   UNL     1       4.259   2.508  19.008  0.00  0.00    +0.000 OA
ATOM     13  O   UNL     1       3.232   3.621  16.988  0.00  0.00    +0.000 OA
BRANCH  11  14
ATOM     14  C   UNL     1       5.341   4.712  18.078  0.00  0.00    +0.000 A 
ATOM     15  C   UNL     1       5.695   5.178  16.808  0.00  0.00    +0.000 A 
ATOM     16  C   UNL     1       6.838   5.962  16.656  0.00  0.00    +0.000 A 
ATOM     17  C   UNL     1       7.614   6.289  17.768  0.00  0.00    +0.000 A 
ATOM     18  C   UNL     1       7.240   5.850  19.039  0.00  0.00    +0.000 A 
ATOM     19  C   UNL     1       6.098   5.065  19.200  0.00  0.00    +0.000 A 
ENDBRANCH  11  14
ENDBRANCH  10  11
BRANCH   1  20
ATOM     20  N   UNL     1       1.116   9.837  19.773  0.00  0.00    +0.000 N 
ATOM     21  H   UNL     1       1.635  10.349  20.484  0.00  0.00    +0.000 HD
BRANCH  20  23
ATOM     22  C   UNL     1      -0.869  10.342  18.427  0.00  0.00    +0.000 C 
ATOM     23  C   UNL     1      -0.328  10.051  19.815  0.00  0.00    +0.000 C 
ENDBRANCH  20  23
ENDBRANCH   1  20
TORSDOF 4
ENDMDL
MODEL 3
REMARK VINA RESULT:      -7.3      0.962      1.002
REMARK  Name = 
REMARK  6 active torsions:
REMARK  status: ('A' for Active; 'I' for Inactive)
REMARK    1  A    between atoms: C_1  and  C_2
REMARK    2  A    between atoms: C_2  and  N_3
REMARK    3  A    between atoms: N_3  and  C_4
REMARK    4  A    between atoms: C_11  and  C_12
REMARK    5  A    between atoms: N_13  and  S_14
REMARK    6  A    between atoms: S_14  and  C_17
REMARK                            x       y       z     vdW  Elec       q    Type
REMARK                         _______ _______ _______ _____ _____    ______ ____
ROOT
ATOM      1  C   UNL     1       1.822   8.303  19.266  0.00  0.00    +0.000 A 
ATOM      2  C   UNL     1       2.600   7.842  18.194  0.00  0.00    +0.000 A 
ATOM      3  C   UNL     1       3.117   6.534  18.136  0.00  0.00    +0.000 A 
ATOM      4  C   UNL     1       2.824   5.676  19.205  0.00  0.00    +0.000 A 
ATOM      5  C   UNL     1       2.016   6.091  20.261  0.00  0.00    +0.000 A 
ATOM      6  C   UNL     1       1.497   7.395  20.281  0.00  0.00    +0.000 A 
ATOM      7  N   UNL     1       1.843   5.098  21.186  0.00  0.00    +0.000 NA
ATOM      8  C   UNL     1       2.527   4.061  20.740  0.00  0.00    +0.000 A 
ATOM      9  C   UNL     1       2.590   2.760  21.451  0.00  0.00    +0.000 C 
ATOM     10  N   UNL     1       3.136   4.373  19.538  0.00  0.00    +0.000 N 
ENDROOT
BRANCH  10  11
ATOM     11  S   UNL     1       4.297   3.407  18.769  0.00  0.00    +0.000 S 
ATOM     12  O   UNL     1       4.892   2.595  19.811  0.00  0.00    +0.000 OA
ATOM     13  O   UNL     1       3.660   2.801  17.617  0.00  0.00    +0.000 OA
BRANCH  11  14
ATOM     14  C   UNL     1       5.518   4.551  18.177  0.00  0.00    +0.000 A 
ATOM     15  C   UNL     1       6.332   5.231  19.089  0.00  0.00    +0.000 A 
ATOM     16  C   UNL     1       7.283   6.137  18.621  0.00  0.00    +0.000 A 
ATOM     17  C   UNL     1       7.429   6.351  17.250  0.00  0.00    +0.000 A 
ATOM     18  C   UNL     1       6.638   5.647  16.341  0.00  0.00    +0.000 A 
ATOM     19  C   UNL     1       5.684   4.738  16.801  0.00  0.00    +0.000 A 
ENDBRANCH  11  14
ENDBRANCH  10  11
BRANCH   1  20
ATOM     20  N   UNL     1       1.314   9.610  19.217  0.00  0.00    +0.000 N 
ATOM     21  H   UNL     1       0.302   9.624  19.335  0.00  0.00    +0.000 HD
BRANCH  20  23
ATOM     22  C   UNL     1       1.725  11.962  18.664  0.00  0.00    +0.000 C 
ATOM     23  C   UNL     1       1.808  10.523  18.189  0.00  0.00    +0.000 C 
ENDBRANCH  20  23
ENDBRANCH   1  20
TORSDOF 4
ENDMDL
MODEL 4
REMARK VINA RESULT:      -7.2      3.425      6.839
REMARK  Name = 
REMARK  6 active torsions:
REMARK  status: ('A' for Active; 'I' for Inactive)
REMARK    1  A    between atoms: C_1  and  C_2
REMARK    2  A    between atoms: C_2  and  N_3
REMARK    3  A    between atoms: N_3  and  C_4
REMARK    4  A    between atoms: C_11  and  C_12
REMARK    5  A    between atoms: N_13  and  S_14
REMARK    6  A    between atoms: S_14  and  C_17
REMARK                            x       y       z     vdW  Elec       q    Type
REMARK                         _______ _______ _______ _____ _____    ______ ____
ROOT
ATOM      1  C   UNL     1       6.206   3.868  13.392  0.00  0.00    +0.000 A 
ATOM      2  C   UNL     1       5.167   3.399  14.210  0.00  0.00    +0.000 A 
ATOM      3  C   UNL     1       5.005   3.808  15.547  0.00  0.00    +0.000 A 
ATOM      4  C   UNL     1       5.932   4.729  16.056  0.00  0.00    +0.000 A 
ATOM      5  C   UNL     1       6.946   5.248  15.256  0.00  0.00    +0.000 A 
ATOM      6  C   UNL     1       7.070   4.836  13.920  0.00  0.00    +0.000 A 
ATOM      7  N   UNL     1       7.726   6.139  15.942  0.00  0.00    +0.000 NA
ATOM      8  C   UNL     1       7.228   6.193  17.163  0.00  0.00    +0.000 A 
ATOM      9  C   UNL     1       7.782   7.063  18.231  0.00  0.00    +0.000 C 
ATOM     10  N   UNL     1       6.137   5.352  17.271  0.00  0.00    +0.000 N 
ENDROOT
BRANCH  10  11
ATOM     11  S   UNL     1       5.374   4.948  18.731  0.00  0.00    +0.000 S 
ATOM     12  O   UNL     1       4.862   3.604  18.554  0.00  0.00    +0.000 OA
ATOM     13  O   UNL     1       6.299   5.264  19.801  0.00  0.00    +0.000 OA
BRANCH  11  14
ATOM     14  C   UNL     1       4.001   6.066  18.849  0.00  0.00    +0.000 A 
ATOM     15  C   UNL     1       3.132   5.985  19.943  0.00  0.00    +0.000 A 
ATOM     16  C   UNL     1       2.049   6.859  20.028  0.00  0.00    +0.000 A 
ATOM     17  C   UNL     1       1.843   7.815  19.033  0.00  0.00    +0.000 A 
ATOM     18  C   UNL     1       2.730   7.915  17.960  0.00  0.00    +0.000 A 
ATOM     19  C   UNL     1       3.817   7.046  17.868  0.00  0.00    +0.000 A 
ENDBRANCH  11  14
ENDBRANCH  10  11
BRANCH   1  20
ATOM     20  N   UNL     1       6.264   3.436  12.059  0.00  0.00    +0.000 N 
ATOM     21  H   UNL     1       6.446   4.210  11.422  0.00  0.00    +0.000 HD
BRANCH  20  23
ATOM     22  C   UNL     1       4.057   3.222  11.014  0.00  0.00    +0.000 C 
ATOM     23  C   UNL     1       5.261   2.490  11.579  0.00  0.00    +0.000 C 
ENDBRANCH  20  23
ENDBRANCH   1  20
TORSDOF 4
ENDMDL
MODEL 5
REMARK VINA RESULT:      -7.1      3.676      7.039
REMARK  Name = 
REMARK  6 active torsions:
REMARK  status: ('A' for Active; 'I' for Inactive)
REMARK    1  A    between atoms: C_1  and  C_2
REMARK    2  A    between atoms: C_2  and  N_3
REMARK    3  A    between atoms: N_3  and  C_4
REMARK    4  A    between atoms: C_11  and  C_12
REMARK    5  A    between atoms: N_13  and  S_14
REMARK    6  A    between atoms: S_14  and  C_17
REMARK                            x       y       z     vdW  Elec       q    Type
REMARK                         _______ _______ _______ _____ _____    ______ ____
ROOT
ATOM      1  C   UNL     1       6.255   3.844  13.579  0.00  0.00    +0.000 A 
ATOM      2  C   UNL     1       4.963   4.247  13.947  0.00  0.00    +0.000 A 
ATOM      3  C   UNL     1       4.662   4.772  15.219  0.00  0.00    +0.000 A 
ATOM      4  C   UNL     1       5.718   4.891  16.133  0.00  0.00    +0.000 A 
ATOM      5  C   UNL     1       7.019   4.543  15.781  0.00  0.00    +0.000 A 
ATOM      6  C   UNL     1       7.292   4.042  14.499  0.00  0.00    +0.000 A 
ATOM      7  N   UNL     1       7.896   4.752  16.811  0.00  0.00    +0.000 NA
ATOM      8  C   UNL     1       7.175   5.224  17.812  0.00  0.00    +0.000 A 
ATOM      9  C   UNL     1       7.754   5.597  19.126  0.00  0.00    +0.000 C 
ATOM     10  N   UNL     1       5.848   5.324  17.438  0.00  0.00    +0.000 N 
ENDROOT
BRANCH  10  11
ATOM     11  S   UNL     1       4.570   5.647  18.505  0.00  0.00    +0.000 S 
ATOM     12  O   UNL     1       5.158   5.691  19.828  0.00  0.00    +0.000 OA
ATOM     13  O   UNL     1       3.838   6.777  17.970  0.00  0.00    +0.000 OA
BRANCH  11  14
ATOM     14  C   UNL     1       3.521   4.219  18.399  0.00  0.00    +0.000 A 
ATOM     15  C   UNL     1       2.146   4.382  18.200  0.00  0.00    +0.000 A 
ATOM     16  C   UNL     1       1.322   3.259  18.127  0.00  0.00    +0.000 A 
ATOM     17  C   UNL     1       1.872   1.981  18.240  0.00  0.00    +0.000 A 
ATOM     18  C   UNL     1       3.248   1.821  18.407  0.00  0.00    +0.000 A 
ATOM     19  C   UNL     1       4.079   2.939  18.480  0.00  0.00    +0.000 A 
ENDBRANCH  11  14
ENDBRANCH  10  11
BRANCH   1  20
ATOM     20  N   UNL     1       6.468   3.372  12.275  0.00  0.00    +0.000 N 
ATOM     21  H   UNL     1       6.701   4.129  11.635  0.00  0.00    +0.000 HD
BRANCH  20  23
ATOM     22  C   UNL     1       6.305   1.211  11.130  0.00  0.00    +0.000 C 
ATOM     23  C   UNL     1       5.545   2.385  11.721  0.00  0.00    +0.000 C 
ENDBRANCH  20  23
ENDBRANCH   1  20
TORSDOF 4
ENDMDL
MODEL 6
REMARK VINA RESULT:      -7.1      3.675      7.027
REMARK  Name = 
REMARK  6 active torsions:
REMARK  status: ('A' for Active; 'I' for Inactive)
REMARK    1  A    between atoms: C_1  and  C_2
REMARK    2  A    between atoms: C_2  and  N_3
REMARK    3  A    between atoms: N_3  and  C_4
REMARK    4  A    between atoms: C_11  and  C_12
REMARK    5  A    between atoms: N_13  and  S_14
REMARK    6  A    between atoms: S_14  and  C_17
REMARK                            x       y       z     vdW  Elec       q    Type
REMARK                         _______ _______ _______ _____ _____    ______ ____
ROOT
ATOM      1  C   UNL     1       6.248   3.881  13.551  0.00  0.00    +0.000 A 
ATOM      2  C   UNL     1       4.959   4.288  13.926  0.00  0.00    +0.000 A 
ATOM      3  C   UNL     1       4.663   4.802  15.203  0.00  0.00    +0.000 A 
ATOM      4  C   UNL     1       5.721   4.905  16.117  0.00  0.00    +0.000 A 
ATOM      5  C   UNL     1       7.020   4.552  15.760  0.00  0.00    +0.000 A 
ATOM      6  C   UNL     1       7.287   4.062  14.472  0.00  0.00    +0.000 A 
ATOM      7  N   UNL     1       7.899   4.744  16.791  0.00  0.00    +0.000 NA
ATOM      8  C   UNL     1       7.183   5.210  17.797  0.00  0.00    +0.000 A 
ATOM      9  C   UNL     1       7.765   5.566  19.115  0.00  0.00    +0.000 C 
ATOM     10  N   UNL     1       5.856   5.322  17.426  0.00  0.00    +0.000 N 
ENDROOT
BRANCH  10  11
ATOM     11  S   UNL     1       4.581   5.642  18.498  0.00  0.00    +0.000 S 
ATOM     12  O   UNL     1       5.174   5.682  19.820  0.00  0.00    +0.000 OA
ATOM     13  O   UNL     1       3.847   6.774  17.969  0.00  0.00    +0.000 OA
BRANCH  11  14
ATOM     14  C   UNL     1       3.532   4.215  18.392  0.00  0.00    +0.000 A 
ATOM     15  C   UNL     1       4.085   2.935  18.510  0.00  0.00    +0.000 A 
ATOM     16  C   UNL     1       3.259   1.816  18.416  0.00  0.00    +0.000 A 
ATOM     17  C   UNL     1       1.887   1.975  18.219  0.00  0.00    +0.000 A 
ATOM     18  C   UNL     1       1.333   3.253  18.135  0.00  0.00    +0.000 A 
ATOM     19  C   UNL     1       2.152   4.379  18.228  0.00  0.00    +0.000 A 
ENDBRANCH  11  14
ENDBRANCH  10  11
BRANCH   1  20
ATOM     20  N   UNL     1       6.456   3.421  12.242  0.00  0.00    +0.000 N 
ATOM     21  H   UNL     1       6.579   4.193  11.589  0.00  0.00    +0.000 HD
BRANCH  20  23
ATOM     22  C   UNL     1       6.482   1.235  11.134  0.00  0.00    +0.000 C 
ATOM     23  C   UNL     1       5.624   2.334  11.734  0.00  0.00    +0.000 C 
ENDBRANCH  20  23
ENDBRANCH   1  20
TORSDOF 4
ENDMDL
MODEL 7
REMARK VINA RESULT:      -7.1      1.918      4.145
REMARK  Name = 
REMARK  6 active torsions:
REMARK  status: ('A' for Active; 'I' for Inactive)
REMARK    1  A    between atoms: C_1  and  C_2
REMARK    2  A    between atoms: C_2  and  N_3
REMARK    3  A    between atoms: N_3  and  C_4
REMARK    4  A    between atoms: C_11  and  C_12
REMARK    5  A    between atoms: N_13  and  S_14
REMARK    6  A    between atoms: S_14  and  C_17
REMARK                            x       y       z     vdW  Elec       q    Type
REMARK                         _______ _______ _______ _____ _____    ______ ____
ROOT
ATOM      1  C   UNL     1       1.685   8.622  19.182  0.00  0.00    +0.000 A 
ATOM      2  C   UNL     1       1.870   7.515  20.025  0.00  0.00    +0.000 A 
ATOM      3  C   UNL     1       2.717   6.440  19.696  0.00  0.00    +0.000 A 
ATOM      4  C   UNL     1       3.396   6.506  18.471  0.00  0.00    +0.000 A 
ATOM      5  C   UNL     1       3.269   7.612  17.635  0.00  0.00    +0.000 A 
ATOM      6  C   UNL     1       2.432   8.678  18.000  0.00  0.00    +0.000 A 
ATOM      7  N   UNL     1       4.026   7.481  16.502  0.00  0.00    +0.000 NA
ATOM      8  C   UNL     1       4.630   6.312  16.603  0.00  0.00    +0.000 A 
ATOM      9  C   UNL     1       5.565   5.788  15.576  0.00  0.00    +0.000 C 
ATOM     10  N   UNL     1       4.274   5.690  17.785  0.00  0.00    +0.000 N 
ENDROOT
BRANCH  10  11
ATOM     11  S   UNL     1       4.634   4.079  18.171  0.00  0.00    +0.000 S 
ATOM     12  O   UNL     1       4.802   3.395  16.906  0.00  0.00    +0.000 OA
ATOM     13  O   UNL     1       5.692   4.100  19.161  0.00  0.00    +0.000 OA
BRANCH  11  14
ATOM     14  C   UNL     1       3.166   3.463  18.957  0.00  0.00    +0.000 A 
ATOM     15  C   UNL     1       2.021   3.215  18.192  0.00  0.00    +0.000 A 
ATOM     16  C   UNL     1       0.867   2.740  18.814  0.00  0.00    +0.000 A 
ATOM     17  C   UNL     1       0.861   2.503  20.189  0.00  0.00    +0.000 A 
ATOM     18  C   UNL     1       2.014   2.721  20.944  0.00  0.00    +0.000 A 
ATOM     19  C   UNL     1       3.174   3.195  20.330  0.00  0.00    +0.000 A 
ENDBRANCH  11  14
ENDBRANCH  10  11
BRANCH   1  20
ATOM     20  N   UNL     1       0.853   9.666  19.613  0.00  0.00    +0.000 N 
ATOM     21  H   UNL     1       0.143   9.335  20.265  0.00  0.00    +0.000 HD
BRANCH  20  23
ATOM     22  C   UNL     1      -1.016  10.231  18.131  0.00  0.00    +0.000 C 
ATOM     23  C   UNL     1       0.361  10.629  18.633  0.00  0.00    +0.000 C 
ENDBRANCH  20  23
ENDBRANCH   1  20
TORSDOF 4
ENDMDL
MODEL 8
REMARK VINA RESULT:      -7.0      3.584      6.905
REMARK  Name = 
REMARK  6 active torsions:
REMARK  status: ('A' for Active; 'I' for Inactive)
REMARK    1  A    between atoms: C_1  and  C_2
REMARK    2  A    between atoms: C_2  and  N_3
REMARK    3  A    between atoms: N_3  and  C_4
REMARK    4  A    between atoms: C_11  and  C_12
REMARK    5  A    between atoms: N_13  and  S_14
REMARK    6  A    between atoms: S_14  and  C_17
REMARK                            x       y       z     vdW  Elec       q    Type
REMARK                         _______ _______ _______ _____ _____    ______ ____
ROOT
ATOM      1  C   UNL     1       6.218   3.918  13.492  0.00  0.00    +0.000 A 
ATOM      2  C   UNL     1       5.239   3.367  14.334  0.00  0.00    +0.000 A 
ATOM      3  C   UNL     1       5.098   3.740  15.684  0.00  0.00    +0.000 A 
ATOM      4  C   UNL     1       5.982   4.707  16.181  0.00  0.00    +0.000 A 
ATOM      5  C   UNL     1       6.933   5.306  15.360  0.00  0.00    +0.000 A 
ATOM      6  C   UNL     1       7.036   4.928  14.011  0.00  0.00    +0.000 A 
ATOM      7  N   UNL     1       7.679   6.231  16.038  0.00  0.00    +0.000 NA
ATOM      8  C   UNL     1       7.222   6.230  17.276  0.00  0.00    +0.000 A 
ATOM      9  C   UNL     1       7.757   7.112  18.343  0.00  0.00    +0.000 C 
ATOM     10  N   UNL     1       6.190   5.318  17.402  0.00  0.00    +0.000 N 
ENDROOT
BRANCH  10  11
ATOM     11  S   UNL     1       5.506   4.838  18.878  0.00  0.00    +0.000 S 
ATOM     12  O   UNL     1       6.276   3.693  19.319  0.00  0.00    +0.000 OA
ATOM     13  O   UNL     1       5.384   6.024  19.702  0.00  0.00    +0.000 OA
BRANCH  11  14
ATOM     14  C   UNL     1       3.869   4.293  18.462  0.00  0.00    +0.000 A 
ATOM     15  C   UNL     1       2.908   5.227  18.059  0.00  0.00    +0.000 A 
ATOM     16  C   UNL     1       1.620   4.797  17.743  0.00  0.00    +0.000 A 
ATOM     17  C   UNL     1       1.298   3.441  17.816  0.00  0.00    +0.000 A 
ATOM     18  C   UNL     1       2.268   2.508  18.186  0.00  0.00    +0.000 A 
ATOM     19  C   UNL     1       3.560   2.930  18.504  0.00  0.00    +0.000 A 
ENDBRANCH  11  14
ENDBRANCH  10  11
BRANCH   1  20
ATOM     20  N   UNL     1       6.255   3.516  12.149  0.00  0.00    +0.000 N 
ATOM     21  H   UNL     1       6.400   4.308  11.525  0.00  0.00    +0.000 HD
BRANCH  20  23
ATOM     22  C   UNL     1       4.047   3.261  11.117  0.00  0.00    +0.000 C 
ATOM     23  C   UNL     1       5.269   2.551  11.671  0.00  0.00    +0.000 C 
ENDBRANCH  20  23
ENDBRANCH   1  20
TORSDOF 4
ENDMDL
MODEL 9
REMARK VINA RESULT:      -7.0      1.915      4.024
REMARK  Name = 
REMARK  6 active torsions:
REMARK  status: ('A' for Active; 'I' for Inactive)
REMARK    1  A    between atoms: C_1  and  C_2
REMARK    2  A    between atoms: C_2  and  N_3
REMARK    3  A    between atoms: N_3  and  C_4
REMARK    4  A    between atoms: C_11  and  C_12
REMARK    5  A    between atoms: N_13  and  S_14
REMARK    6  A    between atoms: S_14  and  C_17
REMARK                            x       y       z     vdW  Elec       q    Type
REMARK                         _______ _______ _______ _____ _____    ______ ____
ROOT
ATOM      1  C   UNL     1       1.652   8.672  19.190  0.00  0.00    +0.000 A 
ATOM      2  C   UNL     1       1.836   7.572  20.041  0.00  0.00    +0.000 A 
ATOM      3  C   UNL     1       2.691   6.499  19.724  0.00  0.00    +0.000 A 
ATOM      4  C   UNL     1       3.378   6.561  18.503  0.00  0.00    +0.000 A 
ATOM      5  C   UNL     1       3.250   7.660  17.659  0.00  0.00    +0.000 A 
ATOM      6  C   UNL     1       2.406   8.725  18.012  0.00  0.00    +0.000 A 
ATOM      7  N   UNL     1       4.016   7.526  16.532  0.00  0.00    +0.000 NA
ATOM      8  C   UNL     1       4.625   6.360  16.644  0.00  0.00    +0.000 A 
ATOM      9  C   UNL     1       5.569   5.834  15.627  0.00  0.00    +0.000 C 
ATOM     10  N   UNL     1       4.264   5.745  17.828  0.00  0.00    +0.000 N 
ENDROOT
BRANCH  10  11
ATOM     11  S   UNL     1       4.628   4.137  18.227  0.00  0.00    +0.000 S 
ATOM     12  O   UNL     1       4.875   3.462  16.969  0.00  0.00    +0.000 OA
ATOM     13  O   UNL     1       5.632   4.170  19.272  0.00  0.00    +0.000 OA
BRANCH  11  14
ATOM     14  C   UNL     1       3.131   3.494  18.930  0.00  0.00    +0.000 A 
ATOM     15  C   UNL     1       3.066   3.232  20.303  0.00  0.00    +0.000 A 
ATOM     16  C   UNL     1       1.891   2.718  20.851  0.00  0.00    +0.000 A 
ATOM     17  C   UNL     1       0.785   2.479  20.034  0.00  0.00    +0.000 A 
ATOM     18  C   UNL     1       0.842   2.773  18.671  0.00  0.00    +0.000 A 
ATOM     19  C   UNL     1       2.013   3.289  18.115  0.00  0.00    +0.000 A 
ENDBRANCH  11  14
ENDBRANCH  10  11
BRANCH   1  20
ATOM     20  N   UNL     1       0.812   9.715  19.609  0.00  0.00    +0.000 N 
ATOM     21  H   UNL     1       0.097   9.384  20.255  0.00  0.00    +0.000 HD
BRANCH  20  23
ATOM     22  C   UNL     1      -1.103  10.351  18.216  0.00  0.00    +0.000 C 
ATOM     23  C   UNL     1       0.325  10.672  18.619  0.00  0.00    +0.000 C 
ENDBRANCH  20  23
ENDBRANCH   1  20
TORSDOF 4
ENDMDL
