MODEL 1
REMARK VINA RESULT:      -8.7      0.000      0.000
REMARK  Name = 
REMARK  4 active torsions:
REMARK  status: ('A' for Active; 'I' for Inactive)
REMARK    1  A    between atoms: C_1  and  C_2
REMARK    2  A    between atoms: C_11  and  C_12
REMARK    3  A    between atoms: N_14  and  C_15
REMARK    4  A    between atoms: C_25  and  C_26
REMARK                            x       y       z     vdW  Elec       q    Type
REMARK                         _______ _______ _______ _____ _____    ______ ____
ROOT
ATOM      1  C   UNL     1      -1.162  10.862  23.239  0.00  0.00    +0.000 C 
ATOM      2  C   UNL     1      -0.775  11.174  21.821  0.00  0.00    +0.000 A 
ATOM      3  C   UNL     1      -1.133  12.320  21.226  0.00  0.00    +0.000 A 
ATOM      4  C   UNL     1      -0.685  12.566  19.843  0.00  0.00    +0.000 A 
ATOM      5  O   UNL     1      -1.014  13.580  19.237  0.00  0.00    +0.000 OA
ATOM      6  N   UNL     1       0.106  11.594  19.310  0.00  0.00    +0.000 N 
ATOM      7  C   UNL     1       0.385  10.448  20.005  0.00  0.00    +0.000 A 
ATOM      8  N   UNL     1       1.170   9.547  19.248  0.00  0.00    +0.000 N 
ATOM      9  N   UNL     1       1.628   9.920  18.015  0.00  0.00    +0.000 NA
ATOM     10  C   UNL     1       2.293   8.848  17.576  0.00  0.00    +0.000 A 
ATOM     11  C   UNL     1       2.271   7.759  18.479  0.00  0.00    +0.000 A 
ATOM     12  C   UNL     1       1.562   8.255  19.569  0.00  0.00    +0.000 A 
ATOM     13  C   UNL     1       1.184   7.621  20.864  0.00  0.00    +0.000 C 
ATOM     14  N   UNL     1      -0.024  10.203  21.206  0.00  0.00    +0.000 NA
ATOM     15  H   UNL     1       0.454  11.698  18.363  0.00  0.00    +0.000 HD
ENDROOT
BRANCH  11  16
ATOM     16  C   UNL     1       2.817   6.411  18.360  0.00  0.00    +0.000 C 
ATOM     17  O   UNL     1       2.099   5.422  18.273  0.00  0.00    +0.000 OA
ATOM     18  N   UNL     1       4.189   6.295  18.332  0.00  0.00    +0.000 N 
ATOM     19  H   UNL     1       4.789   7.084  18.524  0.00  0.00    +0.000 HD
BRANCH  18  20
ATOM     20  C   UNL     1       4.803   4.975  18.240  0.00  0.00    +0.000 C 
ATOM     21  C   UNL     1       5.750   4.731  19.423  0.00  0.00    +0.000 C 
ATOM     22  C   UNL     1       7.053   5.501  19.234  0.00  0.00    +0.000 C 
ATOM     23  C   UNL     1       7.789   4.990  17.999  0.00  0.00    +0.000 C 
ATOM     24  C   UNL     1       6.900   4.837  16.789  0.00  0.00    +0.000 A 
ATOM     25  C   UNL     1       7.493   4.634  15.534  0.00  0.00    +0.000 A 
ATOM     26  C   UNL     1       6.709   4.420  14.402  0.00  0.00    +0.000 A 
ATOM     27  C   UNL     1       5.321   4.405  14.508  0.00  0.00    +0.000 A 
ATOM     28  C   UNL     1       4.718   4.601  15.750  0.00  0.00    +0.000 A 
ATOM     29  C   UNL     1       5.497   4.807  16.901  0.00  0.00    +0.000 A 
ENDBRANCH  18  20
ENDBRANCH  11  16
TORSDOF 2
ENDMDL
MODEL 2
REMARK VINA RESULT:      -8.6      2.835      9.079
REMARK  Name = 
REMARK  4 active torsions:
REMARK  status: ('A' for Active; 'I' for Inactive)
REMARK    1  A    between atoms: C_1  and  C_2
REMARK    2  A    between atoms: C_11  and  C_12
REMARK    3  A    between atoms: N_14  and  C_15
REMARK    4  A    between atoms: C_25  and  C_26
REMARK                            x       y       z     vdW  Elec       q    Type
REMARK                         _______ _______ _______ _____ _____    ______ ____
ROOT
ATOM      1  C   UNL     1       4.386   3.688  17.457  0.00  0.00    +0.000 C 
ATOM      2  C   UNL     1       3.679   4.003  18.744  0.00  0.00    +0.000 A 
ATOM      3  C   UNL     1       3.583   3.107  19.736  0.00  0.00    +0.000 A 
ATOM      4  C   UNL     1       2.901   3.506  20.982  0.00  0.00    +0.000 A 
ATOM      5  O   UNL     1       2.751   2.716  21.907  0.00  0.00    +0.000 OA
ATOM      6  N   UNL     1       2.464   4.795  21.014  0.00  0.00    +0.000 N 
ATOM      7  C   UNL     1       2.595   5.616  19.927  0.00  0.00    +0.000 A 
ATOM      8  N   UNL     1       2.022   6.889  20.151  0.00  0.00    +0.000 N 
ATOM      9  N   UNL     1       1.515   7.195  21.383  0.00  0.00    +0.000 NA
ATOM     10  C   UNL     1       1.037   8.435  21.241  0.00  0.00    +0.000 A 
ATOM     11  C   UNL     1       1.196   8.956  19.935  0.00  0.00    +0.000 A 
ATOM     12  C   UNL     1       1.868   7.942  19.260  0.00  0.00    +0.000 A 
ATOM     13  C   UNL     1       2.342   7.850  17.849  0.00  0.00    +0.000 C 
ATOM     14  N   UNL     1       3.161   5.273  18.816  0.00  0.00    +0.000 NA
ATOM     15  H   UNL     1       1.989   5.140  21.842  0.00  0.00    +0.000 HD
ENDROOT
BRANCH  11  16
ATOM     16  C   UNL     1       0.770  10.227  19.359  0.00  0.00    +0.000 C 
ATOM     17  O   UNL     1       1.560  11.002  18.834  0.00  0.00    +0.000 OA
ATOM     18  N   UNL     1      -0.575  10.516  19.413  0.00  0.00    +0.000 N 
ATOM     19  H   UNL     1      -1.216   9.947  19.947  0.00  0.00    +0.000 HD
BRANCH  18  20
ATOM     20  C   UNL     1      -1.068  11.781  18.877  0.00  0.00    +0.000 C 
ATOM     21  C   UNL     1      -1.192  12.831  19.990  0.00  0.00    +0.000 C 
ATOM     22  C   UNL     1      -2.423  12.558  20.848  0.00  0.00    +0.000 C 
ATOM     23  C   UNL     1      -3.689  12.690  20.007  0.00  0.00    +0.000 C 
ATOM     24  C   UNL     1      -3.606  11.977  18.679  0.00  0.00    +0.000 A 
ATOM     25  C   UNL     1      -4.780  11.796  17.933  0.00  0.00    +0.000 A 
ATOM     26  C   UNL     1      -4.738  11.202  16.672  0.00  0.00    +0.000 A 
ATOM     27  C   UNL     1      -3.523  10.784  16.140  0.00  0.00    +0.000 A 
ATOM     28  C   UNL     1      -2.347  10.962  16.867  0.00  0.00    +0.000 A 
ATOM     29  C   UNL     1      -2.374  11.568  18.135  0.00  0.00    +0.000 A 
ENDBRANCH  18  20
ENDBRANCH  11  16
TORSDOF 2
ENDMDL
MODEL 3
REMARK VINA RESULT:      -8.1      2.737      9.583
REMARK  Name = 
REMARK  4 active torsions:
REMARK  status: ('A' for Active; 'I' for Inactive)
REMARK    1  A    between atoms: C_1  and  C_2
REMARK    2  A    between atoms: C_11  and  C_12
REMARK    3  A    between atoms: N_14  and  C_15
REMARK    4  A    between atoms: C_25  and  C_26
REMARK                            x       y       z     vdW  Elec       q    Type
REMARK                         _______ _______ _______ _____ _____    ______ ____
ROOT
ATOM      1  C   UNL     1       4.788   6.063  16.607  0.00  0.00    +0.000 C 
ATOM      2  C   UNL     1       4.002   5.909  17.878  0.00  0.00    +0.000 A 
ATOM      3  C   UNL     1       4.068   4.795  18.620  0.00  0.00    +0.000 A 
ATOM      4  C   UNL     1       3.291   4.736  19.872  0.00  0.00    +0.000 A 
ATOM      5  O   UNL     1       3.284   3.729  20.570  0.00  0.00    +0.000 OA
ATOM      6  N   UNL     1       2.599   5.868  20.177  0.00  0.00    +0.000 N 
ATOM      7  C   UNL     1       2.585   6.941  19.327  0.00  0.00    +0.000 A 
ATOM      8  N   UNL     1       1.758   7.985  19.804  0.00  0.00    +0.000 N 
ATOM      9  N   UNL     1       1.171   7.874  21.033  0.00  0.00    +0.000 NA
ATOM     10  C   UNL     1       0.454   8.995  21.155  0.00  0.00    +0.000 A 
ATOM     11  C   UNL     1       0.533   9.842  20.025  0.00  0.00    +0.000 A 
ATOM     12  C   UNL     1       1.413   9.175  19.179  0.00  0.00    +0.000 A 
ATOM     13  C   UNL     1       1.929   9.526  17.825  0.00  0.00    +0.000 C 
ATOM     14  N   UNL     1       3.234   6.998  18.211  0.00  0.00    +0.000 NA
ATOM     15  H   UNL     1       2.045   5.900  21.026  0.00  0.00    +0.000 HD
ENDROOT
BRANCH  11  16
ATOM     16  C   UNL     1      -0.131  11.109  19.736  0.00  0.00    +0.000 C 
ATOM     17  O   UNL     1       0.494  12.116  19.423  0.00  0.00    +0.000 OA
ATOM     18  N   UNL     1      -1.505  11.125  19.815  0.00  0.00    +0.000 N 
ATOM     19  H   UNL     1      -2.021  10.342  20.188  0.00  0.00    +0.000 HD
BRANCH  18  20
ATOM     20  C   UNL     1      -2.232  12.365  19.563  0.00  0.00    +0.000 C 
ATOM     21  C   UNL     1      -2.276  13.237  20.826  0.00  0.00    +0.000 C 
ATOM     22  C   UNL     1      -3.291  12.684  21.822  0.00  0.00    +0.000 C 
ATOM     23  C   UNL     1      -4.695  12.741  21.227  0.00  0.00    +0.000 C 
ATOM     24  C   UNL     1      -4.769  12.223  19.811  0.00  0.00    +0.000 A 
ATOM     25  C   UNL     1      -6.029  11.973  19.247  0.00  0.00    +0.000 A 
ATOM     26  C   UNL     1      -6.146  11.558  17.921  0.00  0.00    +0.000 A 
ATOM     27  C   UNL     1      -5.006  11.388  17.142  0.00  0.00    +0.000 A 
ATOM     28  C   UNL     1      -3.748  11.637  17.687  0.00  0.00    +0.000 A 
ATOM     29  C   UNL     1      -3.616  12.066  19.019  0.00  0.00    +0.000 A 
ENDBRANCH  18  20
ENDBRANCH  11  16
TORSDOF 2
ENDMDL
MODEL 4
REMARK VINA RESULT:      -7.7      2.095      9.691
REMARK  Name = 
REMARK  4 active torsions:
REMARK  status: ('A' for Active; 'I' for Inactive)
REMARK    1  A    between atoms: C_1  and  C_2
REMARK    2  A    between atoms: C_11  and  C_12
REMARK    3  A    between atoms: N_14  and  C_15
REMARK    4  A    between atoms: C_25  and  C_26
REMARK                            x       y       z     vdW  Elec       q    Type
REMARK                         _______ _______ _______ _____ _____    ______ ____
ROOT
ATOM      1  C   UNL     1       4.977   6.355  16.216  0.00  0.00    +0.000 C 
ATOM      2  C   UNL     1       4.288   6.035  17.512  0.00  0.00    +0.000 A 
ATOM      3  C   UNL     1       4.514   4.888  18.169  0.00  0.00    +0.000 A 
ATOM      4  C   UNL     1       3.824   4.664  19.452  0.00  0.00    +0.000 A 
ATOM      5  O   UNL     1       3.964   3.618  20.077  0.00  0.00    +0.000 OA
ATOM      6  N   UNL     1       3.037   5.692  19.873  0.00  0.00    +0.000 N 
ATOM      7  C   UNL     1       2.859   6.809  19.103  0.00  0.00    +0.000 A 
ATOM      8  N   UNL     1       1.958   7.724  19.696  0.00  0.00    +0.000 N 
ATOM      9  N   UNL     1       1.459   7.471  20.943  0.00  0.00    +0.000 NA
ATOM     10  C   UNL     1       0.638   8.497  21.182  0.00  0.00    +0.000 A 
ATOM     11  C   UNL     1       0.560   9.419  20.112  0.00  0.00    +0.000 A 
ATOM     12  C   UNL     1       1.453   8.908  19.176  0.00  0.00    +0.000 A 
ATOM     13  C   UNL     1       1.848   9.401  17.825  0.00  0.00    +0.000 C 
ATOM     14  N   UNL     1       3.432   7.010  17.962  0.00  0.00    +0.000 NA
ATOM     15  H   UNL     1       2.533   5.608  20.750  0.00  0.00    +0.000 HD
ENDROOT
BRANCH  11  16
ATOM     16  C   UNL     1      -0.249  10.623  19.949  0.00  0.00    +0.000 C 
ATOM     17  O   UNL     1      -1.101  10.722  19.074  0.00  0.00    +0.000 OA
ATOM     18  N   UNL     1      -0.025  11.649  20.839  0.00  0.00    +0.000 N 
ATOM     19  H   UNL     1       0.752  11.628  21.482  0.00  0.00    +0.000 HD
BRANCH  18  20
ATOM     20  C   UNL     1      -0.781  12.892  20.719  0.00  0.00    +0.000 C 
ATOM     21  C   UNL     1       0.147  14.061  20.358  0.00  0.00    +0.000 C 
ATOM     22  C   UNL     1       0.947  14.505  21.579  0.00  0.00    +0.000 C 
ATOM     23  C   UNL     1       0.007  15.036  22.657  0.00  0.00    +0.000 C 
ATOM     24  C   UNL     1      -1.187  14.147  22.904  0.00  0.00    +0.000 A 
ATOM     25  C   UNL     1      -1.980  14.378  24.039  0.00  0.00    +0.000 A 
ATOM     26  C   UNL     1      -3.129  13.624  24.270  0.00  0.00    +0.000 A 
ATOM     27  C   UNL     1      -3.504  12.631  23.370  0.00  0.00    +0.000 A 
ATOM     28  C   UNL     1      -2.729  12.394  22.236  0.00  0.00    +0.000 A 
ATOM     29  C   UNL     1      -1.573  13.153  21.985  0.00  0.00    +0.000 A 
ENDBRANCH  18  20
ENDBRANCH  11  16
TORSDOF 2
ENDMDL
MODEL 5
REMARK VINA RESULT:      -7.7      2.456      9.795
REMARK  Name = 
REMARK  4 active torsions:
REMARK  status: ('A' for Active; 'I' for Inactive)
REMARK    1  A    between atoms: C_1  and  C_2
REMARK    2  A    between atoms: C_11  and  C_12
REMARK    3  A    between atoms: N_14  and  C_15
REMARK    4  A    between atoms: C_25  and  C_26
REMARK                            x       y       z     vdW  Elec       q    Type
REMARK                         _______ _______ _______ _____ _____    ______ ____
ROOT
ATOM      1  C   UNL     1       4.831   6.546  16.529  0.00  0.00    +0.000 C 
ATOM      2  C   UNL     1       4.044   6.271  17.779  0.00  0.00    +0.000 A 
ATOM      3  C   UNL     1       4.150   5.110  18.440  0.00  0.00    +0.000 A 
ATOM      4  C   UNL     1       3.369   4.930  19.678  0.00  0.00    +0.000 A 
ATOM      5  O   UNL     1       3.399   3.876  20.303  0.00  0.00    +0.000 OA
ATOM      6  N   UNL     1       2.630   6.009  20.057  0.00  0.00    +0.000 N 
ATOM      7  C   UNL     1       2.577   7.138  19.285  0.00  0.00    +0.000 A 
ATOM      8  N   UNL     1       1.706   8.111  19.828  0.00  0.00    +0.000 N 
ATOM      9  N   UNL     1       1.116   7.889  21.041  0.00  0.00    +0.000 NA
ATOM     10  C   UNL     1       0.354   8.969  21.236  0.00  0.00    +0.000 A 
ATOM     11  C   UNL     1       0.405   9.897  20.170  0.00  0.00    +0.000 A 
ATOM     12  C   UNL     1       1.316   9.328  19.287  0.00  0.00    +0.000 A 
ATOM     13  C   UNL     1       1.826   9.796  17.965  0.00  0.00    +0.000 C 
ATOM     14  N   UNL     1       3.231   7.301  18.182  0.00  0.00    +0.000 NA
ATOM     15  H   UNL     1       2.070   5.958  20.901  0.00  0.00    +0.000 HD
ENDROOT
BRANCH  11  16
ATOM     16  C   UNL     1      -0.308  11.154  19.966  0.00  0.00    +0.000 C 
ATOM     17  O   UNL     1      -0.203  11.802  18.932  0.00  0.00    +0.000 OA
ATOM     18  N   UNL     1      -1.126  11.580  20.989  0.00  0.00    +0.000 N 
ATOM     19  H   UNL     1      -1.126  11.122  21.888  0.00  0.00    +0.000 HD
BRANCH  18  20
ATOM     20  C   UNL     1      -1.849  12.841  20.862  0.00  0.00    +0.000 C 
ATOM     21  C   UNL     1      -1.627  13.722  22.100  0.00  0.00    +0.000 C 
ATOM     22  C   UNL     1      -2.451  13.209  23.276  0.00  0.00    +0.000 C 
ATOM     23  C   UNL     1      -3.940  13.307  22.957  0.00  0.00    +0.000 C 
ATOM     24  C   UNL     1      -4.296  12.782  21.587  0.00  0.00    +0.000 A 
ATOM     25  C   UNL     1      -5.648  12.569  21.275  0.00  0.00    +0.000 A 
ATOM     26  C   UNL     1      -6.026  12.149  20.001  0.00  0.00    +0.000 A 
ATOM     27  C   UNL     1      -5.060  11.937  19.022  0.00  0.00    +0.000 A 
ATOM     28  C   UNL     1      -3.714  12.148  19.316  0.00  0.00    +0.000 A 
ATOM     29  C   UNL     1      -3.320  12.582  20.594  0.00  0.00    +0.000 A 
ENDBRANCH  18  20
ENDBRANCH  11  16
TORSDOF 2
ENDMDL
MODEL 6
REMARK VINA RESULT:      -7.6      2.687      8.966
REMARK  Name = 
REMARK  4 active torsions:
REMARK  status: ('A' for Active; 'I' for Inactive)
REMARK    1  A    between atoms: C_1  and  C_2
REMARK    2  A    between atoms: C_11  and  C_12
REMARK    3  A    between atoms: N_14  and  C_15
REMARK    4  A    between atoms: C_25  and  C_26
REMARK                            x       y       z     vdW  Elec       q    Type
REMARK                         _______ _______ _______ _____ _____    ______ ____
ROOT
ATOM      1  C   UNL     1       4.483   3.979  17.830  0.00  0.00    +0.000 C 
ATOM      2  C   UNL     1       3.627   4.366  19.002  0.00  0.00    +0.000 A 
ATOM      3  C   UNL     1       3.396   3.523  20.018  0.00  0.00    +0.000 A 
ATOM      4  C   UNL     1       2.571   3.991  21.148  0.00  0.00    +0.000 A 
ATOM      5  O   UNL     1       2.297   3.250  22.086  0.00  0.00    +0.000 OA
ATOM      6  N   UNL     1       2.152   5.283  21.062  0.00  0.00    +0.000 N 
ATOM      7  C   UNL     1       2.428   6.045  19.959  0.00  0.00    +0.000 A 
ATOM      8  N   UNL     1       1.850   7.333  20.046  0.00  0.00    +0.000 N 
ATOM      9  N   UNL     1       1.199   7.706  21.189  0.00  0.00    +0.000 NA
ATOM     10  C   UNL     1       0.761   8.941  20.927  0.00  0.00    +0.000 A 
ATOM     11  C   UNL     1       1.087   9.393  19.627  0.00  0.00    +0.000 A 
ATOM     12  C   UNL     1       1.822   8.340  19.092  0.00  0.00    +0.000 A 
ATOM     13  C   UNL     1       2.466   8.172  17.757  0.00  0.00    +0.000 C 
ATOM     14  N   UNL     1       3.122   5.642  18.946  0.00  0.00    +0.000 NA
ATOM     15  H   UNL     1       1.584   5.673  21.805  0.00  0.00    +0.000 HD
ENDROOT
BRANCH  11  16
ATOM     16  C   UNL     1       0.753  10.636  18.939  0.00  0.00    +0.000 C 
ATOM     17  O   UNL     1      -0.141  10.699  18.104  0.00  0.00    +0.000 OA
ATOM     18  N   UNL     1       1.482  11.752  19.282  0.00  0.00    +0.000 N 
ATOM     19  H   UNL     1       2.296  11.689  19.874  0.00  0.00    +0.000 HD
BRANCH  18  20
ATOM     20  C   UNL     1       1.218  13.024  18.615  0.00  0.00    +0.000 C 
ATOM     21  C   UNL     1       2.519  13.639  18.082  0.00  0.00    +0.000 C 
ATOM     22  C   UNL     1       3.330  14.248  19.221  0.00  0.00    +0.000 C 
ATOM     23  C   UNL     1       2.556  15.398  19.859  0.00  0.00    +0.000 C 
ATOM     24  C   UNL     1       1.112  15.066  20.144  0.00  0.00    +0.000 A 
ATOM     25  C   UNL     1       0.367  15.929  20.962  0.00  0.00    +0.000 A 
ATOM     26  C   UNL     1      -0.987  15.696  21.196  0.00  0.00    +0.000 A 
ATOM     27  C   UNL     1      -1.616  14.599  20.616  0.00  0.00    +0.000 A 
ATOM     28  C   UNL     1      -0.890  13.735  19.798  0.00  0.00    +0.000 A 
ATOM     29  C   UNL     1       0.473  13.964  19.544  0.00  0.00    +0.000 A 
ENDBRANCH  18  20
ENDBRANCH  11  16
TORSDOF 2
ENDMDL
MODEL 7
REMARK VINA RESULT:      -7.5      2.157      3.204
REMARK  Name = 
REMARK  4 active torsions:
REMARK  status: ('A' for Active; 'I' for Inactive)
REMARK    1  A    between atoms: C_1  and  C_2
REMARK    2  A    between atoms: C_11  and  C_12
REMARK    3  A    between atoms: N_14  and  C_15
REMARK    4  A    between atoms: C_25  and  C_26
REMARK                            x       y       z     vdW  Elec       q    Type
REMARK                         _______ _______ _______ _____ _____    ______ ____
ROOT
ATOM      1  C   UNL     1      -3.904  13.140  20.074  0.00  0.00    +0.000 C 
ATOM      2  C   UNL     1      -2.696  12.855  20.919  0.00  0.00    +0.000 A 
ATOM      3  C   UNL     1      -2.483  13.482  22.085  0.00  0.00    +0.000 A 
ATOM      4  C   UNL     1      -1.289  13.121  22.872  0.00  0.00    +0.000 A 
ATOM      5  O   UNL     1      -1.026  13.688  23.926  0.00  0.00    +0.000 OA
ATOM      6  N   UNL     1      -0.525  12.128  22.340  0.00  0.00    +0.000 N 
ATOM      7  C   UNL     1      -0.826  11.576  21.124  0.00  0.00    +0.000 A 
ATOM      8  N   UNL     1       0.128  10.609  20.730  0.00  0.00    +0.000 N 
ATOM      9  N   UNL     1       1.138  10.267  21.586  0.00  0.00    +0.000 NA
ATOM     10  C   UNL     1       1.856   9.371  20.903  0.00  0.00    +0.000 A 
ATOM     11  C   UNL     1       1.361   9.123  19.601  0.00  0.00    +0.000 A 
ATOM     12  C   UNL     1       0.220   9.917  19.531  0.00  0.00    +0.000 A 
ATOM     13  C   UNL     1      -0.769  10.119  18.433  0.00  0.00    +0.000 C 
ATOM     14  N   UNL     1      -1.850  11.902  20.406  0.00  0.00    +0.000 NA
ATOM     15  H   UNL     1       0.311  11.826  22.829  0.00  0.00    +0.000 HD
ENDROOT
BRANCH  11  16
ATOM     16  C   UNL     1       1.875   8.274  18.532  0.00  0.00    +0.000 C 
ATOM     17  O   UNL     1       1.917   8.648  17.366  0.00  0.00    +0.000 OA
ATOM     18  N   UNL     1       2.331   7.026  18.892  0.00  0.00    +0.000 N 
ATOM     19  H   UNL     1       2.190   6.662  19.823  0.00  0.00    +0.000 HD
BRANCH  18  20
ATOM     20  C   UNL     1       2.836   6.115  17.870  0.00  0.00    +0.000 C 
ATOM     21  C   UNL     1       2.178   4.734  18.000  0.00  0.00    +0.000 C 
ATOM     22  C   UNL     1       2.775   3.965  19.174  0.00  0.00    +0.000 C 
ATOM     23  C   UNL     1       4.257   3.699  18.929  0.00  0.00    +0.000 C 
ATOM     24  C   UNL     1       5.013   4.913  18.447  0.00  0.00    +0.000 A 
ATOM     25  C   UNL     1       6.416   4.877  18.439  0.00  0.00    +0.000 A 
ATOM     26  C   UNL     1       7.153   5.950  17.939  0.00  0.00    +0.000 A 
ATOM     27  C   UNL     1       6.498   7.072  17.440  0.00  0.00    +0.000 A 
ATOM     28  C   UNL     1       5.105   7.120  17.438  0.00  0.00    +0.000 A 
ATOM     29  C   UNL     1       4.350   6.041  17.929  0.00  0.00    +0.000 A 
ENDBRANCH  18  20
ENDBRANCH  11  16
TORSDOF 2
ENDMDL
MODEL 8
REMARK VINA RESULT:      -7.5      3.452     10.758
REMARK  Name = 
REMARK  4 active torsions:
REMARK  status: ('A' for Active; 'I' for Inactive)
REMARK    1  A    between atoms: C_1  and  C_2
REMARK    2  A    between atoms: C_11  and  C_12
REMARK    3  A    between atoms: N_14  and  C_15
REMARK    4  A    between atoms: C_25  and  C_26
REMARK                            x       y       z     vdW  Elec       q    Type
REMARK                         _______ _______ _______ _____ _____    ______ ____
ROOT
ATOM      1  C   UNL     1       2.674   8.528  17.392  0.00  0.00    +0.000 C 
ATOM      2  C   UNL     1       2.231   7.998  18.726  0.00  0.00    +0.000 A 
ATOM      3  C   UNL     1       2.510   6.748  19.120  0.00  0.00    +0.000 A 
ATOM      4  C   UNL     1       2.068   6.315  20.458  0.00  0.00    +0.000 A 
ATOM      5  O   UNL     1       2.264   5.171  20.855  0.00  0.00    +0.000 OA
ATOM      6  N   UNL     1       1.440   7.270  21.197  0.00  0.00    +0.000 N 
ATOM      7  C   UNL     1       1.185   8.511  20.680  0.00  0.00    +0.000 A 
ATOM      8  N   UNL     1       0.471   9.328  21.587  0.00  0.00    +0.000 N 
ATOM      9  N   UNL     1       0.208   8.868  22.848  0.00  0.00    +0.000 NA
ATOM     10  C   UNL     1      -0.489   9.855  23.417  0.00  0.00    +0.000 A 
ATOM     11  C   UNL     1      -0.717  10.955  22.558  0.00  0.00    +0.000 A 
ATOM     12  C   UNL     1      -0.053  10.597  21.389  0.00  0.00    +0.000 A 
ATOM     13  C   UNL     1       0.102  11.313  20.090  0.00  0.00    +0.000 C 
ATOM     14  N   UNL     1       1.537   8.898  19.497  0.00  0.00    +0.000 NA
ATOM     15  H   UNL     1       1.112   7.044  22.129  0.00  0.00    +0.000 HD
ENDROOT
BRANCH  11  16
ATOM     16  C   UNL     1      -1.469  12.188  22.767  0.00  0.00    +0.000 C 
ATOM     17  O   UNL     1      -0.916  13.260  22.983  0.00  0.00    +0.000 OA
ATOM     18  N   UNL     1      -2.841  12.101  22.696  0.00  0.00    +0.000 N 
ATOM     19  H   UNL     1      -3.310  11.210  22.641  0.00  0.00    +0.000 HD
BRANCH  18  20
ATOM     20  C   UNL     1      -3.656  13.291  22.919  0.00  0.00    +0.000 C 
ATOM     21  C   UNL     1      -4.007  13.438  24.407  0.00  0.00    +0.000 C 
ATOM     22  C   UNL     1      -5.100  12.449  24.798  0.00  0.00    +0.000 C 
ATOM     23  C   UNL     1      -6.385  12.756  24.034  0.00  0.00    +0.000 C 
ATOM     24  C   UNL     1      -6.165  12.989  22.559  0.00  0.00    +0.000 A 
ATOM     25  C   UNL     1      -7.279  13.016  21.706  0.00  0.00    +0.000 A 
ATOM     26  C   UNL     1      -7.128  13.295  20.348  0.00  0.00    +0.000 A 
ATOM     27  C   UNL     1      -5.864  13.551  19.826  0.00  0.00    +0.000 A 
ATOM     28  C   UNL     1      -4.749  13.532  20.662  0.00  0.00    +0.000 A 
ATOM     29  C   UNL     1      -4.888  13.262  22.035  0.00  0.00    +0.000 A 
ENDBRANCH  18  20
ENDBRANCH  11  16
TORSDOF 2
ENDMDL
MODEL 9
REMARK VINA RESULT:      -7.4      2.166      3.260
REMARK  Name = 
REMARK  4 active torsions:
REMARK  status: ('A' for Active; 'I' for Inactive)
REMARK    1  A    between atoms: C_1  and  C_2
REMARK    2  A    between atoms: C_11  and  C_12
REMARK    3  A    between atoms: N_14  and  C_15
REMARK    4  A    between atoms: C_25  and  C_26
REMARK                            x       y       z     vdW  Elec       q    Type
REMARK                         _______ _______ _______ _____ _____    ______ ____
ROOT
ATOM      1  C   UNL     1       0.463  15.566  19.270  0.00  0.00    +0.000 C 
ATOM      2  C   UNL     1       0.301  14.444  20.255  0.00  0.00    +0.000 A 
ATOM      3  C   UNL     1      -0.173  14.650  21.492  0.00  0.00    +0.000 A 
ATOM      4  C   UNL     1      -0.333  13.490  22.388  0.00  0.00    +0.000 A 
ATOM      5  O   UNL     1      -0.727  13.626  23.541  0.00  0.00    +0.000 OA
ATOM      6  N   UNL     1      -0.014  12.287  21.838  0.00  0.00    +0.000 N 
ATOM      7  C   UNL     1       0.487  12.199  20.568  0.00  0.00    +0.000 A 
ATOM      8  N   UNL     1       0.809  10.867  20.216  0.00  0.00    +0.000 N 
ATOM      9  N   UNL     1       0.515   9.849  21.080  0.00  0.00    +0.000 NA
ATOM     10  C   UNL     1       0.968   8.755  20.461  0.00  0.00    +0.000 A 
ATOM     11  C   UNL     1       1.576   9.021  19.213  0.00  0.00    +0.000 A 
ATOM     12  C   UNL     1       1.428  10.397  19.066  0.00  0.00    +0.000 A 
ATOM     13  C   UNL     1       1.848  11.318  17.971  0.00  0.00    +0.000 C 
ATOM     14  N   UNL     1       0.664  13.208  19.779  0.00  0.00    +0.000 NA
ATOM     15  H   UNL     1      -0.104  11.445  22.396  0.00  0.00    +0.000 HD
ENDROOT
BRANCH  11  16
ATOM     16  C   UNL     1       2.235   8.130  18.264  0.00  0.00    +0.000 C 
ATOM     17  O   UNL     1       2.399   8.435  17.089  0.00  0.00    +0.000 OA
ATOM     18  N   UNL     1       2.686   6.924  18.752  0.00  0.00    +0.000 N 
ATOM     19  H   UNL     1       2.451   6.611  19.682  0.00  0.00    +0.000 HD
BRANCH  18  20
ATOM     20  C   UNL     1       3.332   5.973  17.853  0.00  0.00    +0.000 C 
ATOM     21  C   UNL     1       2.801   4.553  18.091  0.00  0.00    +0.000 C 
ATOM     22  C   UNL     1       3.399   3.964  19.364  0.00  0.00    +0.000 C 
ATOM     23  C   UNL     1       4.911   3.824  19.219  0.00  0.00    +0.000 C 
ATOM     24  C   UNL     1       5.576   5.055  18.653  0.00  0.00    +0.000 A 
ATOM     25  C   UNL     1       6.975   5.159  18.716  0.00  0.00    +0.000 A 
ATOM     26  C   UNL     1       7.634   6.246  18.146  0.00  0.00    +0.000 A 
ATOM     27  C   UNL     1       6.907   7.244  17.505  0.00  0.00    +0.000 A 
ATOM     28  C   UNL     1       5.518   7.153  17.430  0.00  0.00    +0.000 A 
ATOM     29  C   UNL     1       4.841   6.057  17.991  0.00  0.00    +0.000 A 
ENDBRANCH  18  20
ENDBRANCH  11  16
TORSDOF 2
ENDMDL
