MODEL 1
REMARK VINA RESULT:      -7.7      0.000      0.000
REMARK  Name = 
REMARK  1 active torsions:
REMARK  status: ('A' for Active; 'I' for Inactive)
REMARK    1  A    between atoms: C_4  and  C_5
REMARK                            x       y       z     vdW  Elec       q    Type
REMARK                         _______ _______ _______ _____ _____    ______ ____
ROOT
ATOM      1  O   UNL     1       7.056   5.130  19.483  0.00  0.00    +0.000 OA
ATOM      2  C   UNL     1       6.258   5.058  18.557  0.00  0.00    +0.000 C 
ATOM      3  C   UNL     1       6.713   4.768  17.200  0.00  0.00    +0.000 C 
ATOM      4  C   UNL     1       5.842   4.777  16.186  0.00  0.00    +0.000 C 
ATOM      5  O   UNL     1       4.492   4.990  16.366  0.00  0.00    +0.000 OA
ATOM      6  C   UNL     1       4.072   4.744  17.710  0.00  0.00    +0.000 C 
ATOM      7  C   UNL     1       2.689   5.391  17.904  0.00  0.00    +0.000 C 
ATOM      8  C   UNL     1       1.696   4.263  17.664  0.00  0.00    +0.000 C 
ATOM      9  C   UNL     1       2.376   3.072  18.310  0.00  0.00    +0.000 C 
ATOM     10  C   UNL     1       3.842   3.227  17.923  0.00  0.00    +0.000 C 
ATOM     11  O   UNL     1       4.938   5.271  18.714  0.00  0.00    +0.000 OA
ENDROOT
BRANCH   4  12
ATOM     12  C   UNL     1       6.256   4.559  14.785  0.00  0.00    +0.000 A 
ATOM     13  C   UNL     1       5.542   3.695  13.936  0.00  0.00    +0.000 A 
ATOM     14  C   UNL     1       5.939   3.501  12.611  0.00  0.00    +0.000 A 
ATOM     15  C   UNL     1       7.049   4.174  12.109  0.00  0.00    +0.000 A 
ATOM     16  C   UNL     1       7.757   5.048  12.930  0.00  0.00    +0.000 A 
ATOM     17  C   UNL     1       7.361   5.242  14.256  0.00  0.00    +0.000 A 
ENDBRANCH   4  12
TORSDOF 1
ENDMDL
MODEL 2
REMARK VINA RESULT:      -7.7      0.045      1.169
REMARK  Name = 
REMARK  1 active torsions:
REMARK  status: ('A' for Active; 'I' for Inactive)
REMARK    1  A    between atoms: C_4  and  C_5
REMARK                            x       y       z     vdW  Elec       q    Type
REMARK                         _______ _______ _______ _____ _____    ______ ____
ROOT
ATOM      1  O   UNL     1       7.081   5.132  19.475  0.00  0.00    +0.000 OA
ATOM      2  C   UNL     1       6.276   5.055  18.556  0.00  0.00    +0.000 C 
ATOM      3  C   UNL     1       6.723   4.779  17.194  0.00  0.00    +0.000 C 
ATOM      4  C   UNL     1       5.843   4.783  16.188  0.00  0.00    +0.000 C 
ATOM      5  O   UNL     1       4.492   4.978  16.380  0.00  0.00    +0.000 OA
ATOM      6  C   UNL     1       4.086   4.718  17.727  0.00  0.00    +0.000 C 
ATOM      7  C   UNL     1       2.697   5.346  17.937  0.00  0.00    +0.000 C 
ATOM      8  C   UNL     1       1.716   4.208  17.699  0.00  0.00    +0.000 C 
ATOM      9  C   UNL     1       2.417   3.022  18.331  0.00  0.00    +0.000 C 
ATOM     10  C   UNL     1       3.878   3.197  17.932  0.00  0.00    +0.000 C 
ATOM     11  O   UNL     1       4.955   5.251  18.726  0.00  0.00    +0.000 OA
ENDROOT
BRANCH   4  12
ATOM     12  C   UNL     1       6.247   4.578  14.781  0.00  0.00    +0.000 A 
ATOM     13  C   UNL     1       7.394   5.195  14.251  0.00  0.00    +0.000 A 
ATOM     14  C   UNL     1       7.769   4.990  12.921  0.00  0.00    +0.000 A 
ATOM     15  C   UNL     1       7.012   4.158  12.102  0.00  0.00    +0.000 A 
ATOM     16  C   UNL     1       5.883   3.524  12.615  0.00  0.00    +0.000 A 
ATOM     17  C   UNL     1       5.505   3.730  13.945  0.00  0.00    +0.000 A 
ENDBRANCH   4  12
TORSDOF 1
ENDMDL
MODEL 3
REMARK VINA RESULT:      -7.6      1.577      5.559
REMARK  Name = 
REMARK  1 active torsions:
REMARK  status: ('A' for Active; 'I' for Inactive)
REMARK    1  A    between atoms: C_4  and  C_5
REMARK                            x       y       z     vdW  Elec       q    Type
REMARK                         _______ _______ _______ _____ _____    ______ ____
ROOT
ATOM      1  O   UNL     1       7.581   5.532  19.523  0.00  0.00    +0.000 OA
ATOM      2  C   UNL     1       6.722   5.010  18.825  0.00  0.00    +0.000 C 
ATOM      3  C   UNL     1       5.383   4.760  19.351  0.00  0.00    +0.000 C 
ATOM      4  C   UNL     1       4.481   4.113  18.606  0.00  0.00    +0.000 C 
ATOM      5  O   UNL     1       4.734   3.712  17.311  0.00  0.00    +0.000 OA
ATOM      6  C   UNL     1       5.819   4.430  16.717  0.00  0.00    +0.000 C 
ATOM      7  C   UNL     1       6.282   3.651  15.473  0.00  0.00    +0.000 C 
ATOM      8  C   UNL     1       5.553   4.308  14.310  0.00  0.00    +0.000 C 
ATOM      9  C   UNL     1       5.589   5.778  14.678  0.00  0.00    +0.000 C 
ATOM     10  C   UNL     1       5.318   5.793  16.178  0.00  0.00    +0.000 C 
ATOM     11  O   UNL     1       6.955   4.606  17.563  0.00  0.00    +0.000 OA
ENDROOT
BRANCH   4  12
ATOM     12  C   UNL     1       3.135   3.772  19.110  0.00  0.00    +0.000 A 
ATOM     13  C   UNL     1       2.649   4.302  20.318  0.00  0.00    +0.000 A 
ATOM     14  C   UNL     1       1.372   3.977  20.782  0.00  0.00    +0.000 A 
ATOM     15  C   UNL     1       0.556   3.126  20.043  0.00  0.00    +0.000 A 
ATOM     16  C   UNL     1       1.013   2.607  18.834  0.00  0.00    +0.000 A 
ATOM     17  C   UNL     1       2.292   2.930  18.370  0.00  0.00    +0.000 A 
ENDBRANCH   4  12
TORSDOF 1
ENDMDL
MODEL 4
REMARK VINA RESULT:      -7.6      1.584      5.492
REMARK  Name = 
REMARK  1 active torsions:
REMARK  status: ('A' for Active; 'I' for Inactive)
REMARK    1  A    between atoms: C_4  and  C_5
REMARK                            x       y       z     vdW  Elec       q    Type
REMARK                         _______ _______ _______ _____ _____    ______ ____
ROOT
ATOM      1  O   UNL     1       7.678   5.516  19.453  0.00  0.00    +0.000 OA
ATOM      2  C   UNL     1       6.795   5.010  18.772  0.00  0.00    +0.000 C 
ATOM      3  C   UNL     1       5.460   4.791  19.322  0.00  0.00    +0.000 C 
ATOM      4  C   UNL     1       4.532   4.162  18.595  0.00  0.00    +0.000 C 
ATOM      5  O   UNL     1       4.753   3.752  17.298  0.00  0.00    +0.000 OA
ATOM      6  C   UNL     1       5.842   4.445  16.682  0.00  0.00    +0.000 C 
ATOM      7  C   UNL     1       6.266   3.653  15.432  0.00  0.00    +0.000 C 
ATOM      8  C   UNL     1       5.531   4.322  14.281  0.00  0.00    +0.000 C 
ATOM      9  C   UNL     1       5.605   5.793  14.643  0.00  0.00    +0.000 C 
ATOM     10  C   UNL     1       5.362   5.817  16.147  0.00  0.00    +0.000 C 
ATOM     11  O   UNL     1       6.997   4.598  17.507  0.00  0.00    +0.000 OA
ENDROOT
BRANCH   4  12
ATOM     12  C   UNL     1       3.187   3.852  19.124  0.00  0.00    +0.000 A 
ATOM     13  C   UNL     1       2.389   2.846  18.552  0.00  0.00    +0.000 A 
ATOM     14  C   UNL     1       1.122   2.557  19.064  0.00  0.00    +0.000 A 
ATOM     15  C   UNL     1       0.635   3.261  20.161  0.00  0.00    +0.000 A 
ATOM     16  C   UNL     1       1.420   4.249  20.753  0.00  0.00    +0.000 A 
ATOM     17  C   UNL     1       2.687   4.539  20.240  0.00  0.00    +0.000 A 
ENDBRANCH   4  12
TORSDOF 1
ENDMDL
MODEL 5
REMARK VINA RESULT:      -7.3      3.472      5.907
REMARK  Name = 
REMARK  1 active torsions:
REMARK  status: ('A' for Active; 'I' for Inactive)
REMARK    1  A    between atoms: C_4  and  C_5
REMARK                            x       y       z     vdW  Elec       q    Type
REMARK                         _______ _______ _______ _____ _____    ______ ____
ROOT
ATOM      1  O   UNL     1       5.384   4.557  17.309  0.00  0.00    +0.000 OA
ATOM      2  C   UNL     1       4.467   4.825  18.074  0.00  0.00    +0.000 C 
ATOM      3  C   UNL     1       3.813   6.129  18.028  0.00  0.00    +0.000 C 
ATOM      4  C   UNL     1       2.871   6.438  18.925  0.00  0.00    +0.000 C 
ATOM      5  O   UNL     1       2.430   5.546  19.879  0.00  0.00    +0.000 OA
ATOM      6  C   UNL     1       2.719   4.188  19.535  0.00  0.00    +0.000 C 
ATOM      7  C   UNL     1       2.573   3.332  20.806  0.00  0.00    +0.000 C 
ATOM      8  C   UNL     1       1.160   2.774  20.739  0.00  0.00    +0.000 C 
ATOM      9  C   UNL     1       0.989   2.466  19.264  0.00  0.00    +0.000 C 
ATOM     10  C   UNL     1       1.643   3.649  18.560  0.00  0.00    +0.000 C 
ATOM     11  O   UNL     1       4.030   3.968  19.016  0.00  0.00    +0.000 OA
ENDROOT
BRANCH   4  12
ATOM     12  C   UNL     1       2.224   7.765  18.969  0.00  0.00    +0.000 A 
ATOM     13  C   UNL     1       1.572   8.225  20.128  0.00  0.00    +0.000 A 
ATOM     14  C   UNL     1       0.969   9.484  20.160  0.00  0.00    +0.000 A 
ATOM     15  C   UNL     1       1.014  10.309  19.040  0.00  0.00    +0.000 A 
ATOM     16  C   UNL     1       1.671   9.878  17.890  0.00  0.00    +0.000 A 
ATOM     17  C   UNL     1       2.274   8.618  17.856  0.00  0.00    +0.000 A 
ENDBRANCH   4  12
TORSDOF 1
ENDMDL
MODEL 6
REMARK VINA RESULT:      -7.3      3.356      6.062
REMARK  Name = 
REMARK  1 active torsions:
REMARK  status: ('A' for Active; 'I' for Inactive)
REMARK    1  A    between atoms: C_4  and  C_5
REMARK                            x       y       z     vdW  Elec       q    Type
REMARK                         _______ _______ _______ _____ _____    ______ ____
ROOT
ATOM      1  O   UNL     1       5.094   4.844  16.748  0.00  0.00    +0.000 OA
ATOM      2  C   UNL     1       4.262   5.048  17.624  0.00  0.00    +0.000 C 
ATOM      3  C   UNL     1       3.613   6.350  17.748  0.00  0.00    +0.000 C 
ATOM      4  C   UNL     1       2.771   6.584  18.759  0.00  0.00    +0.000 C 
ATOM      5  O   UNL     1       2.427   5.618  19.680  0.00  0.00    +0.000 OA
ATOM      6  C   UNL     1       2.672   4.292  19.203  0.00  0.00    +0.000 C 
ATOM      7  C   UNL     1       2.655   3.339  20.411  0.00  0.00    +0.000 C 
ATOM      8  C   UNL     1       1.239   2.783  20.446  0.00  0.00    +0.000 C 
ATOM      9  C   UNL     1       0.915   2.592  18.977  0.00  0.00    +0.000 C 
ATOM     10  C   UNL     1       1.499   3.828  18.304  0.00  0.00    +0.000 C 
ATOM     11  O   UNL     1       3.921   4.119  18.535  0.00  0.00    +0.000 OA
ENDROOT
BRANCH   4  12
ATOM     12  C   UNL     1       2.138   7.902  18.975  0.00  0.00    +0.000 A 
ATOM     13  C   UNL     1       2.114   8.877  17.963  0.00  0.00    +0.000 A 
ATOM     14  C   UNL     1       1.508  10.117  18.176  0.00  0.00    +0.000 A 
ATOM     15  C   UNL     1       0.907  10.400  19.399  0.00  0.00    +0.000 A 
ATOM     16  C   UNL     1       0.906   9.439  20.407  0.00  0.00    +0.000 A 
ATOM     17  C   UNL     1       1.513   8.198  20.195  0.00  0.00    +0.000 A 
ENDBRANCH   4  12
TORSDOF 1
ENDMDL
MODEL 7
REMARK VINA RESULT:      -7.3      2.692      6.269
REMARK  Name = 
REMARK  1 active torsions:
REMARK  status: ('A' for Active; 'I' for Inactive)
REMARK    1  A    between atoms: C_4  and  C_5
REMARK                            x       y       z     vdW  Elec       q    Type
REMARK                         _______ _______ _______ _____ _____    ______ ____
ROOT
ATOM      1  O   UNL     1       2.998   3.051  17.367  0.00  0.00    +0.000 OA
ATOM      2  C   UNL     1       3.443   4.187  17.481  0.00  0.00    +0.000 C 
ATOM      3  C   UNL     1       2.637   5.247  18.080  0.00  0.00    +0.000 C 
ATOM      4  C   UNL     1       3.103   6.499  18.121  0.00  0.00    +0.000 C 
ATOM      5  O   UNL     1       4.361   6.841  17.672  0.00  0.00    +0.000 OA
ATOM      6  C   UNL     1       5.242   5.717  17.601  0.00  0.00    +0.000 C 
ATOM      7  C   UNL     1       6.444   6.108  16.722  0.00  0.00    +0.000 C 
ATOM      8  C   UNL     1       7.515   6.554  17.706  0.00  0.00    +0.000 C 
ATOM      9  C   UNL     1       7.351   5.573  18.851  0.00  0.00    +0.000 C 
ATOM     10  C   UNL     1       5.841   5.425  18.999  0.00  0.00    +0.000 C 
ATOM     11  O   UNL     1       4.664   4.538  17.041  0.00  0.00    +0.000 OA
ENDROOT
BRANCH   4  12
ATOM     12  C   UNL     1       2.306   7.624  18.653  0.00  0.00    +0.000 A 
ATOM     13  C   UNL     1       1.920   7.675  20.003  0.00  0.00    +0.000 A 
ATOM     14  C   UNL     1       1.172   8.747  20.496  0.00  0.00    +0.000 A 
ATOM     15  C   UNL     1       0.805   9.789  19.650  0.00  0.00    +0.000 A 
ATOM     16  C   UNL     1       1.194   9.764  18.313  0.00  0.00    +0.000 A 
ATOM     17  C   UNL     1       1.942   8.692  17.819  0.00  0.00    +0.000 A 
ENDBRANCH   4  12
TORSDOF 1
ENDMDL
MODEL 8
REMARK VINA RESULT:      -7.3      2.703      6.320
REMARK  Name = 
REMARK  1 active torsions:
REMARK  status: ('A' for Active; 'I' for Inactive)
REMARK    1  A    between atoms: C_4  and  C_5
REMARK                            x       y       z     vdW  Elec       q    Type
REMARK                         _______ _______ _______ _____ _____    ______ ____
ROOT
ATOM      1  O   UNL     1       2.962   3.125  17.308  0.00  0.00    +0.000 OA
ATOM      2  C   UNL     1       3.415   4.256  17.436  0.00  0.00    +0.000 C 
ATOM      3  C   UNL     1       2.620   5.312  18.056  0.00  0.00    +0.000 C 
ATOM      4  C   UNL     1       3.095   6.560  18.113  0.00  0.00    +0.000 C 
ATOM      5  O   UNL     1       4.352   6.901  17.661  0.00  0.00    +0.000 OA
ATOM      6  C   UNL     1       5.225   5.772  17.568  0.00  0.00    +0.000 C 
ATOM      7  C   UNL     1       6.425   6.168  16.689  0.00  0.00    +0.000 C 
ATOM      8  C   UNL     1       7.504   6.593  17.673  0.00  0.00    +0.000 C 
ATOM      9  C   UNL     1       7.340   5.596  18.804  0.00  0.00    +0.000 C 
ATOM     10  C   UNL     1       5.830   5.456  18.958  0.00  0.00    +0.000 C 
ATOM     11  O   UNL     1       4.636   4.606  16.994  0.00  0.00    +0.000 OA
ENDROOT
BRANCH   4  12
ATOM     12  C   UNL     1       2.308   7.682  18.666  0.00  0.00    +0.000 A 
ATOM     13  C   UNL     1       1.902   8.760  17.859  0.00  0.00    +0.000 A 
ATOM     14  C   UNL     1       1.154   9.813  18.391  0.00  0.00    +0.000 A 
ATOM     15  C   UNL     1       0.790   9.802  19.735  0.00  0.00    +0.000 A 
ATOM     16  C   UNL     1       1.168   8.733  20.544  0.00  0.00    +0.000 A 
ATOM     17  C   UNL     1       1.918   7.680  20.013  0.00  0.00    +0.000 A 
ENDBRANCH   4  12
TORSDOF 1
ENDMDL
MODEL 9
REMARK VINA RESULT:      -7.3      2.737      5.710
REMARK  Name = 
REMARK  1 active torsions:
REMARK  status: ('A' for Active; 'I' for Inactive)
REMARK    1  A    between atoms: C_4  and  C_5
REMARK                            x       y       z     vdW  Elec       q    Type
REMARK                         _______ _______ _______ _____ _____    ______ ____
ROOT
ATOM      1  O   UNL     1       5.929   5.899  15.717  0.00  0.00    +0.000 OA
ATOM      2  C   UNL     1       5.171   5.719  16.662  0.00  0.00    +0.000 C 
ATOM      3  C   UNL     1       4.217   6.750  17.060  0.00  0.00    +0.000 C 
ATOM      4  C   UNL     1       3.455   6.573  18.144  0.00  0.00    +0.000 C 
ATOM      5  O   UNL     1       3.479   5.414  18.890  0.00  0.00    +0.000 OA
ATOM      6  C   UNL     1       4.014   4.304  18.163  0.00  0.00    +0.000 C 
ATOM      7  C   UNL     1       4.378   3.202  19.174  0.00  0.00    +0.000 C 
ATOM      8  C   UNL     1       3.172   2.275  19.188  0.00  0.00    +0.000 C 
ATOM      9  C   UNL     1       2.756   2.240  17.731  0.00  0.00    +0.000 C 
ATOM     10  C   UNL     1       2.917   3.682  17.264  0.00  0.00    +0.000 C 
ATOM     11  O   UNL     1       5.186   4.597  17.404  0.00  0.00    +0.000 OA
ENDROOT
BRANCH   4  12
ATOM     12  C   UNL     1       2.523   7.609  18.635  0.00  0.00    +0.000 A 
ATOM     13  C   UNL     1       2.058   7.607  19.962  0.00  0.00    +0.000 A 
ATOM     14  C   UNL     1       1.181   8.595  20.416  0.00  0.00    +0.000 A 
ATOM     15  C   UNL     1       0.762   9.606  19.557  0.00  0.00    +0.000 A 
ATOM     16  C   UNL     1       1.227   9.634  18.244  0.00  0.00    +0.000 A 
ATOM     17  C   UNL     1       2.103   8.645  17.788  0.00  0.00    +0.000 A 
ENDBRANCH   4  12
TORSDOF 1
ENDMDL
