MODEL 1
REMARK VINA RESULT:      -6.7      0.000      0.000
REMARK  Name = 
REMARK  2 active torsions:
REMARK  status: ('A' for Active; 'I' for Inactive)
REMARK    1  A    between atoms: C_2  and  C_3
REMARK    2  A    between atoms: C_3  and  N_4
REMARK                            x       y       z     vdW  Elec       q    Type
REMARK                         _______ _______ _______ _____ _____    ______ ____
ROOT
ATOM      1  O   UNL     1       4.075   2.171  18.700  0.00  0.00    +0.000 OA
ATOM      2  C   UNL     1       3.784   3.353  18.527  0.00  0.00    +0.000 C 
ATOM      3  N   UNL     1       3.227   4.057  19.577  0.00  0.00    +0.000 N 
ATOM      4  C   UNL     1       2.926   5.389  19.512  0.00  0.00    +0.000 A 
ATOM      5  N   UNL     1       3.279   6.207  18.561  0.00  0.00    +0.000 NA
ATOM      6  C   UNL     1       2.629   7.398  18.687  0.00  0.00    +0.000 A 
ATOM      7  C   UNL     1       2.681   8.442  17.742  0.00  0.00    +0.000 A 
ATOM      8  C   UNL     1       1.914   9.580  17.947  0.00  0.00    +0.000 A 
ATOM      9  C   UNL     1       1.138   9.689  19.090  0.00  0.00    +0.000 A 
ATOM     10  F   UNL     1       0.394  10.792  19.265  0.00  0.00    +0.000 F 
ATOM     11  C   UNL     1       1.087   8.683  20.063  0.00  0.00    +0.000 A 
ATOM     12  C   UNL     1       1.836   7.521  19.830  0.00  0.00    +0.000 A 
ATOM     13  S   UNL     1       1.970   6.055  20.750  0.00  0.00    +0.000 S 
ATOM     14  H   UNL     1       2.994   3.533  20.410  0.00  0.00    +0.000 HD
ENDROOT
BRANCH   2  15
ATOM     15  C   UNL     1       3.972   4.101  17.183  0.00  0.00    +0.000 C 
BRANCH  15  16
ATOM     16  N   UNL     1       5.291   3.981  16.531  0.00  0.00    +0.000 NA
ATOM     17  C   UNL     1       6.385   4.476  17.399  0.00  0.00    +0.000 C 
ATOM     18  C   UNL     1       6.358   5.994  17.650  0.00  0.00    +0.000 C 
ATOM     19  O   UNL     1       6.357   6.739  16.426  0.00  0.00    +0.000 OA
ATOM     20  C   UNL     1       5.303   6.333  15.545  0.00  0.00    +0.000 C 
ATOM     21  C   UNL     1       5.308   4.810  15.297  0.00  0.00    +0.000 C 
ENDBRANCH  15  16
ENDBRANCH   2  15
TORSDOF 2
ENDMDL
MODEL 2
REMARK VINA RESULT:      -6.4      3.633      5.818
REMARK  Name = 
REMARK  2 active torsions:
REMARK  status: ('A' for Active; 'I' for Inactive)
REMARK    1  A    between atoms: C_2  and  C_3
REMARK    2  A    between atoms: C_3  and  N_4
REMARK                            x       y       z     vdW  Elec       q    Type
REMARK                         _______ _______ _______ _____ _____    ______ ____
ROOT
ATOM      1  O   UNL     1       1.910   6.388  20.449  0.00  0.00    +0.000 OA
ATOM      2  C   UNL     1       2.527   5.901  19.503  0.00  0.00    +0.000 C 
ATOM      3  N   UNL     1       3.716   6.489  19.116  0.00  0.00    +0.000 N 
ATOM      4  C   UNL     1       4.511   5.991  18.121  0.00  0.00    +0.000 A 
ATOM      5  N   UNL     1       4.375   4.831  17.543  0.00  0.00    +0.000 NA
ATOM      6  C   UNL     1       5.183   4.744  16.449  0.00  0.00    +0.000 A 
ATOM      7  C   UNL     1       5.169   3.679  15.527  0.00  0.00    +0.000 A 
ATOM      8  C   UNL     1       5.990   3.739  14.409  0.00  0.00    +0.000 A 
ATOM      9  C   UNL     1       6.834   4.824  14.235  0.00  0.00    +0.000 A 
ATOM     10  F   UNL     1       7.612   4.870  13.143  0.00  0.00    +0.000 F 
ATOM     11  C   UNL     1       6.896   5.884  15.149  0.00  0.00    +0.000 A 
ATOM     12  C   UNL     1       6.036   5.832  16.255  0.00  0.00    +0.000 A 
ATOM     13  S   UNL     1       5.774   6.970  17.541  0.00  0.00    +0.000 S 
ATOM     14  H   UNL     1       3.970   7.356  19.570  0.00  0.00    +0.000 HD
ENDROOT
BRANCH   2  15
ATOM     15  C   UNL     1       2.034   4.678  18.688  0.00  0.00    +0.000 C 
BRANCH  15  16
ATOM     16  N   UNL     1       1.613   3.490  19.455  0.00  0.00    +0.000 NA
ATOM     17  C   UNL     1       2.647   3.064  20.427  0.00  0.00    +0.000 C 
ATOM     18  C   UNL     1       3.934   2.513  19.785  0.00  0.00    +0.000 C 
ATOM     19  O   UNL     1       3.662   1.432  18.884  0.00  0.00    +0.000 OA
ATOM     20  C   UNL     1       2.688   1.784  17.895  0.00  0.00    +0.000 C 
ATOM     21  C   UNL     1       1.399   2.351  18.523  0.00  0.00    +0.000 C 
ENDBRANCH  15  16
ENDBRANCH   2  15
TORSDOF 2
ENDMDL
MODEL 3
REMARK VINA RESULT:      -6.4      3.384      5.565
REMARK  Name = 
REMARK  2 active torsions:
REMARK  status: ('A' for Active; 'I' for Inactive)
REMARK    1  A    between atoms: C_2  and  C_3
REMARK    2  A    between atoms: C_3  and  N_4
REMARK                            x       y       z     vdW  Elec       q    Type
REMARK                         _______ _______ _______ _____ _____    ______ ____
ROOT
ATOM      1  O   UNL     1       0.823   6.757  21.218  0.00  0.00    +0.000 OA
ATOM      2  C   UNL     1       1.777   6.338  20.565  0.00  0.00    +0.000 C 
ATOM      3  N   UNL     1       2.194   7.061  19.464  0.00  0.00    +0.000 N 
ATOM      4  C   UNL     1       3.280   6.719  18.708  0.00  0.00    +0.000 A 
ATOM      5  N   UNL     1       4.165   5.811  19.009  0.00  0.00    +0.000 NA
ATOM      6  C   UNL     1       4.980   5.565  17.945  0.00  0.00    +0.000 A 
ATOM      7  C   UNL     1       5.946   4.541  17.897  0.00  0.00    +0.000 A 
ATOM      8  C   UNL     1       6.665   4.342  16.726  0.00  0.00    +0.000 A 
ATOM      9  C   UNL     1       6.449   5.172  15.638  0.00  0.00    +0.000 A 
ATOM     10  F   UNL     1       7.145   4.957  14.512  0.00  0.00    +0.000 F 
ATOM     11  C   UNL     1       5.519   6.218  15.663  0.00  0.00    +0.000 A 
ATOM     12  C   UNL     1       4.771   6.388  16.836  0.00  0.00    +0.000 A 
ATOM     13  S   UNL     1       3.497   7.506  17.216  0.00  0.00    +0.000 S 
ATOM     14  H   UNL     1       1.625   7.852  19.191  0.00  0.00    +0.000 HD
ENDROOT
BRANCH   2  15
ATOM     15  C   UNL     1       2.528   5.019  20.881  0.00  0.00    +0.000 C 
BRANCH  15  16
ATOM     16  N   UNL     1       1.713   3.791  20.969  0.00  0.00    +0.000 NA
ATOM     17  C   UNL     1       2.554   2.574  21.041  0.00  0.00    +0.000 C 
ATOM     18  C   UNL     1       3.341   2.269  19.754  0.00  0.00    +0.000 C 
ATOM     19  O   UNL     1       2.483   2.179  18.610  0.00  0.00    +0.000 OA
ATOM     20  C   UNL     1       1.658   3.341  18.461  0.00  0.00    +0.000 C 
ATOM     21  C   UNL     1       0.874   3.668  19.748  0.00  0.00    +0.000 C 
ENDBRANCH  15  16
ENDBRANCH   2  15
TORSDOF 2
ENDMDL
MODEL 4
REMARK VINA RESULT:      -6.4      2.087      3.955
REMARK  Name = 
REMARK  2 active torsions:
REMARK  status: ('A' for Active; 'I' for Inactive)
REMARK    1  A    between atoms: C_2  and  C_3
REMARK    2  A    between atoms: C_3  and  N_4
REMARK                            x       y       z     vdW  Elec       q    Type
REMARK                         _______ _______ _______ _____ _____    ______ ____
ROOT
ATOM      1  O   UNL     1       5.185   4.011  17.425  0.00  0.00    +0.000 OA
ATOM      2  C   UNL     1       4.429   4.681  18.126  0.00  0.00    +0.000 C 
ATOM      3  N   UNL     1       3.929   5.864  17.617  0.00  0.00    +0.000 N 
ATOM      4  C   UNL     1       3.034   6.650  18.287  0.00  0.00    +0.000 A 
ATOM      5  N   UNL     1       2.395   6.325  19.375  0.00  0.00    +0.000 NA
ATOM      6  C   UNL     1       1.761   7.410  19.901  0.00  0.00    +0.000 A 
ATOM      7  C   UNL     1       1.102   7.427  21.146  0.00  0.00    +0.000 A 
ATOM      8  C   UNL     1       0.557   8.617  21.609  0.00  0.00    +0.000 A 
ATOM      9  C   UNL     1       0.636   9.758  20.828  0.00  0.00    +0.000 A 
ATOM     10  F   UNL     1       0.113  10.901  21.297  0.00  0.00    +0.000 F 
ATOM     11  C   UNL     1       1.256   9.769  19.572  0.00  0.00    +0.000 A 
ATOM     12  C   UNL     1       1.837   8.572  19.129  0.00  0.00    +0.000 A 
ATOM     13  S   UNL     1       2.740   8.215  17.690  0.00  0.00    +0.000 S 
ATOM     14  H   UNL     1       4.292   6.169  16.724  0.00  0.00    +0.000 HD
ENDROOT
BRANCH   2  15
ATOM     15  C   UNL     1       4.025   4.296  19.572  0.00  0.00    +0.000 C 
BRANCH  15  16
ATOM     16  N   UNL     1       3.636   2.891  19.806  0.00  0.00    +0.000 NA
ATOM     17  C   UNL     1       2.693   2.399  18.775  0.00  0.00    +0.000 C 
ATOM     18  C   UNL     1       1.304   3.062  18.817  0.00  0.00    +0.000 C 
ATOM     19  O   UNL     1       0.692   2.942  20.107  0.00  0.00    +0.000 OA
ATOM     20  C   UNL     1       1.540   3.428  21.155  0.00  0.00    +0.000 C 
ATOM     21  C   UNL     1       2.941   2.783  21.116  0.00  0.00    +0.000 C 
ENDBRANCH  15  16
ENDBRANCH   2  15
TORSDOF 2
ENDMDL
MODEL 5
REMARK VINA RESULT:      -6.3      2.183      3.980
REMARK  Name = 
REMARK  2 active torsions:
REMARK  status: ('A' for Active; 'I' for Inactive)
REMARK    1  A    between atoms: C_2  and  C_3
REMARK    2  A    between atoms: C_3  and  N_4
REMARK                            x       y       z     vdW  Elec       q    Type
REMARK                         _______ _______ _______ _____ _____    ______ ____
ROOT
ATOM      1  O   UNL     1       4.855   5.874  16.667  0.00  0.00    +0.000 OA
ATOM      2  C   UNL     1       4.133   6.313  17.561  0.00  0.00    +0.000 C 
ATOM      3  N   UNL     1       3.414   7.469  17.322  0.00  0.00    +0.000 N 
ATOM      4  C   UNL     1       2.536   8.006  18.222  0.00  0.00    +0.000 A 
ATOM      5  N   UNL     1       2.115   7.433  19.314  0.00  0.00    +0.000 NA
ATOM      6  C   UNL     1       1.433   8.323  20.089  0.00  0.00    +0.000 A 
ATOM      7  C   UNL     1       0.972   8.058  21.394  0.00  0.00    +0.000 A 
ATOM      8  C   UNL     1       0.354   9.072  22.113  0.00  0.00    +0.000 A 
ATOM      9  C   UNL     1       0.168  10.314  21.528  0.00  0.00    +0.000 A 
ATOM     10  F   UNL     1      -0.422  11.284  22.242  0.00  0.00    +0.000 F 
ATOM     11  C   UNL     1       0.586  10.600  20.222  0.00  0.00    +0.000 A 
ATOM     12  C   UNL     1       1.242   9.582  19.517  0.00  0.00    +0.000 A 
ATOM     13  S   UNL     1       1.957   9.579  17.934  0.00  0.00    +0.000 S 
ATOM     14  H   UNL     1       3.596   7.952  16.453  0.00  0.00    +0.000 HD
ENDROOT
BRANCH   2  15
ATOM     15  C   UNL     1       4.004   5.666  18.963  0.00  0.00    +0.000 C 
BRANCH  15  16
ATOM     16  N   UNL     1       3.862   4.198  19.011  0.00  0.00    +0.000 NA
ATOM     17  C   UNL     1       2.956   3.695  17.952  0.00  0.00    +0.000 C 
ATOM     18  C   UNL     1       1.482   4.102  18.132  0.00  0.00    +0.000 C 
ATOM     19  O   UNL     1       0.971   3.710  19.412  0.00  0.00    +0.000 OA
ATOM     20  C   UNL     1       1.785   4.189  20.489  0.00  0.00    +0.000 C 
ATOM     21  C   UNL     1       3.268   3.801  20.315  0.00  0.00    +0.000 C 
ENDBRANCH  15  16
ENDBRANCH   2  15
TORSDOF 2
ENDMDL
MODEL 6
REMARK VINA RESULT:      -6.2      1.497      1.714
REMARK  Name = 
REMARK  2 active torsions:
REMARK  status: ('A' for Active; 'I' for Inactive)
REMARK    1  A    between atoms: C_2  and  C_3
REMARK    2  A    between atoms: C_3  and  N_4
REMARK                            x       y       z     vdW  Elec       q    Type
REMARK                         _______ _______ _______ _____ _____    ______ ____
ROOT
ATOM      1  O   UNL     1       2.508   2.985  20.777  0.00  0.00    +0.000 OA
ATOM      2  C   UNL     1       2.443   4.088  20.237  0.00  0.00    +0.000 C 
ATOM      3  N   UNL     1       2.029   5.169  20.991  0.00  0.00    +0.000 N 
ATOM      4  C   UNL     1       1.982   6.447  20.507  0.00  0.00    +0.000 A 
ATOM      5  N   UNL     1       2.483   6.855  19.376  0.00  0.00    +0.000 NA
ATOM      6  C   UNL     1       2.067   8.122  19.097  0.00  0.00    +0.000 A 
ATOM      7  C   UNL     1       2.314   8.797  17.885  0.00  0.00    +0.000 A 
ATOM      8  C   UNL     1       1.773  10.061  17.691  0.00  0.00    +0.000 A 
ATOM      9  C   UNL     1       1.032  10.654  18.700  0.00  0.00    +0.000 A 
ATOM     10  F   UNL     1       0.508  11.870  18.490  0.00  0.00    +0.000 F 
ATOM     11  C   UNL     1       0.794  10.023  19.928  0.00  0.00    +0.000 A 
ATOM     12  C   UNL     1       1.312   8.732  20.101  0.00  0.00    +0.000 A 
ATOM     13  S   UNL     1       1.168   7.622  21.429  0.00  0.00    +0.000 S 
ATOM     14  H   UNL     1       1.702   4.978  21.928  0.00  0.00    +0.000 HD
ENDROOT
BRANCH   2  15
ATOM     15  C   UNL     1       2.768   4.339  18.742  0.00  0.00    +0.000 C 
BRANCH  15  16
ATOM     16  N   UNL     1       3.969   3.675  18.199  0.00  0.00    +0.000 NA
ATOM     17  C   UNL     1       5.162   3.909  19.046  0.00  0.00    +0.000 C 
ATOM     18  C   UNL     1       5.656   5.366  19.058  0.00  0.00    +0.000 C 
ATOM     19  O   UNL     1       5.917   5.854  17.736  0.00  0.00    +0.000 OA
ATOM     20  C   UNL     1       4.792   5.686  16.865  0.00  0.00    +0.000 C 
ATOM     21  C   UNL     1       4.276   4.232  16.855  0.00  0.00    +0.000 C 
ENDBRANCH  15  16
ENDBRANCH   2  15
TORSDOF 2
ENDMDL
MODEL 7
REMARK VINA RESULT:      -6.1      2.848      4.841
REMARK  Name = 
REMARK  2 active torsions:
REMARK  status: ('A' for Active; 'I' for Inactive)
REMARK    1  A    between atoms: C_2  and  C_3
REMARK    2  A    between atoms: C_3  and  N_4
REMARK                            x       y       z     vdW  Elec       q    Type
REMARK                         _______ _______ _______ _____ _____    ______ ____
ROOT
ATOM      1  O   UNL     1       3.596   7.061  17.273  0.00  0.00    +0.000 OA
ATOM      2  C   UNL     1       2.890   7.461  18.197  0.00  0.00    +0.000 C 
ATOM      3  N   UNL     1       2.345   8.728  18.112  0.00  0.00    +0.000 N 
ATOM      4  C   UNL     1       1.497   9.244  19.052  0.00  0.00    +0.000 A 
ATOM      5  N   UNL     1       0.944   8.583  20.029  0.00  0.00    +0.000 NA
ATOM      6  C   UNL     1       0.344   9.436  20.906  0.00  0.00    +0.000 A 
ATOM      7  C   UNL     1      -0.220   9.050  22.138  0.00  0.00    +0.000 A 
ATOM      8  C   UNL     1      -0.737  10.024  22.981  0.00  0.00    +0.000 A 
ATOM      9  C   UNL     1      -0.724  11.352  22.586  0.00  0.00    +0.000 A 
ATOM     10  F   UNL     1      -1.219  12.280  23.418  0.00  0.00    +0.000 F 
ATOM     11  C   UNL     1      -0.200  11.765  21.354  0.00  0.00    +0.000 A 
ATOM     12  C   UNL     1       0.354  10.779  20.526  0.00  0.00    +0.000 A 
ATOM     13  S   UNL     1       1.149  10.907  18.987  0.00  0.00    +0.000 S 
ATOM     14  H   UNL     1       2.638   9.303  17.334  0.00  0.00    +0.000 HD
ENDROOT
BRANCH   2  15
ATOM     15  C   UNL     1       2.599   6.640  19.479  0.00  0.00    +0.000 C 
BRANCH  15  16
ATOM     16  N   UNL     1       3.223   5.306  19.575  0.00  0.00    +0.000 NA
ATOM     17  C   UNL     1       2.975   4.490  18.364  0.00  0.00    +0.000 C 
ATOM     18  C   UNL     1       1.506   4.074  18.169  0.00  0.00    +0.000 C 
ATOM     19  O   UNL     1       0.990   3.383  19.314  0.00  0.00    +0.000 OA
ATOM     20  C   UNL     1       1.170   4.130  20.523  0.00  0.00    +0.000 C 
ATOM     21  C   UNL     1       2.635   4.567  20.723  0.00  0.00    +0.000 C 
ENDBRANCH  15  16
ENDBRANCH   2  15
TORSDOF 2
ENDMDL
MODEL 8
REMARK VINA RESULT:      -6.0      3.828      4.866
REMARK  Name = 
REMARK  2 active torsions:
REMARK  status: ('A' for Active; 'I' for Inactive)
REMARK    1  A    between atoms: C_2  and  C_3
REMARK    2  A    between atoms: C_3  and  N_4
REMARK                            x       y       z     vdW  Elec       q    Type
REMARK                         _______ _______ _______ _____ _____    ______ ____
ROOT
ATOM      1  O   UNL     1       5.755   5.009  14.812  0.00  0.00    +0.000 OA
ATOM      2  C   UNL     1       5.365   4.622  15.912  0.00  0.00    +0.000 C 
ATOM      3  N   UNL     1       4.079   4.128  16.022  0.00  0.00    +0.000 N 
ATOM      4  C   UNL     1       3.570   3.613  17.181  0.00  0.00    +0.000 A 
ATOM      5  N   UNL     1       4.247   3.342  18.260  0.00  0.00    +0.000 NA
ATOM      6  C   UNL     1       3.407   3.060  19.295  0.00  0.00    +0.000 A 
ATOM      7  C   UNL     1       3.818   2.865  20.629  0.00  0.00    +0.000 A 
ATOM      8  C   UNL     1       2.858   2.657  21.610  0.00  0.00    +0.000 A 
ATOM      9  C   UNL     1       1.518   2.608  21.261  0.00  0.00    +0.000 A 
ATOM     10  F   UNL     1       0.605   2.417  22.224  0.00  0.00    +0.000 F 
ATOM     11  C   UNL     1       1.079   2.766  19.940  0.00  0.00    +0.000 A 
ATOM     12  C   UNL     1       2.052   3.014  18.962  0.00  0.00    +0.000 A 
ATOM     13  S   UNL     1       1.895   3.329  17.262  0.00  0.00    +0.000 S 
ATOM     14  H   UNL     1       3.487   4.204  15.206  0.00  0.00    +0.000 HD
ENDROOT
BRANCH   2  15
ATOM     15  C   UNL     1       6.221   4.683  17.203  0.00  0.00    +0.000 C 
BRANCH  15  16
ATOM     16  N   UNL     1       5.864   5.719  18.192  0.00  0.00    +0.000 NA
ATOM     17  C   UNL     1       6.108   7.086  17.676  0.00  0.00    +0.000 C 
ATOM     18  C   UNL     1       7.594   7.430  17.468  0.00  0.00    +0.000 C 
ATOM     19  O   UNL     1       8.361   7.236  18.663  0.00  0.00    +0.000 OA
ATOM     20  C   UNL     1       8.195   5.920  19.204  0.00  0.00    +0.000 C 
ATOM     21  C   UNL     1       6.709   5.556  19.404  0.00  0.00    +0.000 C 
ENDBRANCH  15  16
ENDBRANCH   2  15
TORSDOF 2
ENDMDL
MODEL 9
REMARK VINA RESULT:      -6.0      2.568      4.360
REMARK  Name = 
REMARK  2 active torsions:
REMARK  status: ('A' for Active; 'I' for Inactive)
REMARK    1  A    between atoms: C_2  and  C_3
REMARK    2  A    between atoms: C_3  and  N_4
REMARK                            x       y       z     vdW  Elec       q    Type
REMARK                         _______ _______ _______ _____ _____    ______ ____
ROOT
ATOM      1  O   UNL     1       4.093   5.995  17.089  0.00  0.00    +0.000 OA
ATOM      2  C   UNL     1       3.380   6.507  17.950  0.00  0.00    +0.000 C 
ATOM      3  N   UNL     1       2.936   7.801  17.756  0.00  0.00    +0.000 N 
ATOM      4  C   UNL     1       2.089   8.441  18.618  0.00  0.00    +0.000 A 
ATOM      5  N   UNL     1       1.445   7.890  19.608  0.00  0.00    +0.000 NA
ATOM      6  C   UNL     1       0.874   8.842  20.397  0.00  0.00    +0.000 A 
ATOM      7  C   UNL     1       0.230   8.583  21.623  0.00  0.00    +0.000 A 
ATOM      8  C   UNL     1      -0.249   9.648  22.375  0.00  0.00    +0.000 A 
ATOM      9  C   UNL     1      -0.119  10.941  21.895  0.00  0.00    +0.000 A 
ATOM     10  F   UNL     1      -0.578  11.957  22.640  0.00  0.00    +0.000 F 
ATOM     11  C   UNL     1       0.488  11.230  20.666  0.00  0.00    +0.000 A 
ATOM     12  C   UNL     1       1.002  10.152  19.931  0.00  0.00    +0.000 A 
ATOM     13  S   UNL     1       1.870  10.117  18.428  0.00  0.00    +0.000 S 
ATOM     14  H   UNL     1       3.305   8.299  16.957  0.00  0.00    +0.000 HD
ENDROOT
BRANCH   2  15
ATOM     15  C   UNL     1       2.971   5.799  19.267  0.00  0.00    +0.000 C 
BRANCH  15  16
ATOM     16  N   UNL     1       2.032   4.667  19.153  0.00  0.00    +0.000 NA
ATOM     17  C   UNL     1       1.333   4.396  20.431  0.00  0.00    +0.000 C 
ATOM     18  C   UNL     1       2.244   3.864  21.552  0.00  0.00    +0.000 C 
ATOM     19  O   UNL     1       2.957   2.688  21.149  0.00  0.00    +0.000 OA
ATOM     20  C   UNL     1       3.682   2.886  19.930  0.00  0.00    +0.000 C 
ATOM     21  C   UNL     1       2.785   3.434  18.801  0.00  0.00    +0.000 C 
ENDBRANCH  15  16
ENDBRANCH   2  15
TORSDOF 2
ENDMDL
