MODEL 1
REMARK VINA RESULT:      -7.9      0.000      0.000
REMARK  Name = 
REMARK  8 active torsions:
REMARK  status: ('A' for Active; 'I' for Inactive)
REMARK    1  A    between atoms: C_1  and  C_2
REMARK    2  A    between atoms: C_2  and  O_3
REMARK    3  A    between atoms: O_3  and  C_4
REMARK    4  A    between atoms: C_4  and  C_6
REMARK    5  A    between atoms: C_11  and  C_12
REMARK    6  A    between atoms: C_13  and  C_14
REMARK    7  A    between atoms: C_14  and  C_15
REMARK    8  A    between atoms: C_25  and  C_26
REMARK                            x       y       z     vdW  Elec       q    Type
REMARK                         _______ _______ _______ _____ _____    ______ ____
ROOT
ATOM      1  C   UNL     1       3.535   4.437  19.302  0.00  0.00    +0.000 A 
ATOM      2  S   UNL     1       2.639   5.303  20.487  0.00  0.00    +0.000 S 
ATOM      3  C   UNL     1       2.505   6.632  19.418  0.00  0.00    +0.000 A 
ATOM      4  N   UNL     1       1.809   7.736  19.853  0.00  0.00    +0.000 N 
ATOM      5  N   UNL     1       1.018   7.817  21.010  0.00  0.00    +0.000 N 
ATOM      6  C   UNL     1       0.482   9.092  21.026  0.00  0.00    +0.000 A 
ATOM      7  C   UNL     1      -0.287   9.589  22.200  0.00  0.00    +0.000 C 
ATOM      8  C   UNL     1       0.752   9.778  19.902  0.00  0.00    +0.000 A 
ATOM      9  C   UNL     1       1.667   8.904  19.110  0.00  0.00    +0.000 A 
ATOM     10  O   UNL     1       2.180   9.261  18.062  0.00  0.00    +0.000 OA
ATOM     11  N   UNL     1       3.099   6.480  18.261  0.00  0.00    +0.000 NA
ATOM     12  C   UNL     1       3.662   5.219  18.162  0.00  0.00    +0.000 A 
ATOM     13  C   UNL     1       4.336   4.875  16.879  0.00  0.00    +0.000 C 
ATOM     14  H   UNL     1       1.487   7.539  21.869  0.00  0.00    +0.000 HD
ENDROOT
BRANCH   1  15
ATOM     15  C   UNL     1       4.049   3.124  19.618  0.00  0.00    +0.000 C 
ATOM     16  O   UNL     1       5.232   2.822  19.744  0.00  0.00    +0.000 OA
BRANCH  15  17
ATOM     17  O   UNL     1       3.025   2.229  19.670  0.00  0.00    +0.000 OA
BRANCH  17  19
ATOM     18  C   UNL     1       0.807   2.279  18.796  0.00  0.00    +0.000 C 
ATOM     19  C   UNL     1       2.272   2.057  18.464  0.00  0.00    +0.000 C 
ENDBRANCH  17  19
ENDBRANCH  15  17
ENDBRANCH   1  15
BRANCH   8  20
ATOM     20  C   UNL     1       0.373  11.145  19.461  0.00  0.00    +0.000 C 
BRANCH  20  21
ATOM     21  C   UNL     1      -1.042  11.195  18.927  0.00  0.00    +0.000 A 
ATOM     22  C   UNL     1      -1.988  12.065  19.492  0.00  0.00    +0.000 A 
ATOM     23  C   UNL     1      -3.315  12.051  19.056  0.00  0.00    +0.000 A 
ATOM     24  C   UNL     1      -3.702  11.172  18.048  0.00  0.00    +0.000 A 
ATOM     25 CL   UNL     1      -5.344  11.136  17.532  0.00  0.00    +0.000 Cl
ATOM     26  C   UNL     1      -2.773  10.312  17.466  0.00  0.00    +0.000 A 
ATOM     27  C   UNL     1      -1.447  10.321  17.907  0.00  0.00    +0.000 A 
ENDBRANCH  20  21
ENDBRANCH   8  20
TORSDOF 5
ENDMDL
MODEL 2
REMARK VINA RESULT:      -7.7      0.789      1.269
REMARK  Name = 
REMARK  8 active torsions:
REMARK  status: ('A' for Active; 'I' for Inactive)
REMARK    1  A    between atoms: C_1  and  C_2
REMARK    2  A    between atoms: C_2  and  O_3
REMARK    3  A    between atoms: O_3  and  C_4
REMARK    4  A    between atoms: C_4  and  C_6
REMARK    5  A    between atoms: C_11  and  C_12
REMARK    6  A    between atoms: C_13  and  C_14
REMARK    7  A    between atoms: C_14  and  C_15
REMARK    8  A    between atoms: C_25  and  C_26
REMARK                            x       y       z     vdW  Elec       q    Type
REMARK                         _______ _______ _______ _____ _____    ______ ____
ROOT
ATOM      1  C   UNL     1       3.981   5.071  18.604  0.00  0.00    +0.000 A 
ATOM      2  S   UNL     1       2.995   5.639  19.894  0.00  0.00    +0.000 S 
ATOM      3  C   UNL     1       2.706   7.092  19.038  0.00  0.00    +0.000 A 
ATOM      4  N   UNL     1       1.889   8.029  19.625  0.00  0.00    +0.000 N 
ATOM      5  N   UNL     1       1.098   7.843  20.769  0.00  0.00    +0.000 N 
ATOM      6  C   UNL     1       0.419   9.031  20.970  0.00  0.00    +0.000 A 
ATOM      7  C   UNL     1      -0.399   9.252  22.195  0.00  0.00    +0.000 C 
ATOM      8  C   UNL     1       0.605   9.907  19.967  0.00  0.00    +0.000 A 
ATOM      9  C   UNL     1       1.613   9.274  19.066  0.00  0.00    +0.000 A 
ATOM     10  O   UNL     1       2.078   9.842  18.092  0.00  0.00    +0.000 OA
ATOM     11  N   UNL     1       3.311   7.186  17.880  0.00  0.00    +0.000 NA
ATOM     12  C   UNL     1       4.015   6.028  17.598  0.00  0.00    +0.000 A 
ATOM     13  C   UNL     1       4.720   5.962  16.288  0.00  0.00    +0.000 C 
ATOM     14  H   UNL     1       1.598   7.492  21.583  0.00  0.00    +0.000 HD
ENDROOT
BRANCH   1  15
ATOM     15  C   UNL     1       4.643   3.793  18.725  0.00  0.00    +0.000 C 
ATOM     16  O   UNL     1       5.615   3.547  19.434  0.00  0.00    +0.000 OA
BRANCH  15  17
ATOM     17  O   UNL     1       4.087   2.903  17.860  0.00  0.00    +0.000 OA
BRANCH  17  19
ATOM     18  C   UNL     1       2.194   1.986  18.984  0.00  0.00    +0.000 C 
ATOM     19  C   UNL     1       3.578   1.693  18.435  0.00  0.00    +0.000 C 
ENDBRANCH  17  19
ENDBRANCH  15  17
ENDBRANCH   1  15
BRANCH   8  20
ATOM     20  C   UNL     1       0.070  11.272  19.734  0.00  0.00    +0.000 C 
BRANCH  20  21
ATOM     21  C   UNL     1      -1.346  11.242  19.202  0.00  0.00    +0.000 A 
ATOM     22  C   UNL     1      -1.687  10.406  18.127  0.00  0.00    +0.000 A 
ATOM     23  C   UNL     1      -2.973  10.440  17.583  0.00  0.00    +0.000 A 
ATOM     24  C   UNL     1      -3.927  11.305  18.114  0.00  0.00    +0.000 A 
ATOM     25 CL   UNL     1      -5.502  11.366  17.422  0.00  0.00    +0.000 Cl
ATOM     26  C   UNL     1      -3.609  12.130  19.190  0.00  0.00    +0.000 A 
ATOM     27  C   UNL     1      -2.321  12.102  19.731  0.00  0.00    +0.000 A 
ENDBRANCH  20  21
ENDBRANCH   8  20
TORSDOF 5
ENDMDL
MODEL 3
REMARK VINA RESULT:      -7.6      1.497      2.452
REMARK  Name = 
REMARK  8 active torsions:
REMARK  status: ('A' for Active; 'I' for Inactive)
REMARK    1  A    between atoms: C_1  and  C_2
REMARK    2  A    between atoms: C_2  and  O_3
REMARK    3  A    between atoms: O_3  and  C_4
REMARK    4  A    between atoms: C_4  and  C_6
REMARK    5  A    between atoms: C_11  and  C_12
REMARK    6  A    between atoms: C_13  and  C_14
REMARK    7  A    between atoms: C_14  and  C_15
REMARK    8  A    between atoms: C_25  and  C_26
REMARK                            x       y       z     vdW  Elec       q    Type
REMARK                         _______ _______ _______ _____ _____    ______ ____
ROOT
ATOM      1  C   UNL     1       4.224   5.382  18.224  0.00  0.00    +0.000 A 
ATOM      2  S   UNL     1       3.215   5.818  19.547  0.00  0.00    +0.000 S 
ATOM      3  C   UNL     1       2.852   7.306  18.784  0.00  0.00    +0.000 A 
ATOM      4  N   UNL     1       1.992   8.163  19.430  0.00  0.00    +0.000 N 
ATOM      5  N   UNL     1       1.214   7.866  20.559  0.00  0.00    +0.000 N 
ATOM      6  C   UNL     1       0.478   9.004  20.835  0.00  0.00    +0.000 A 
ATOM      7  C   UNL     1      -0.346   9.106  22.071  0.00  0.00    +0.000 C 
ATOM      8  C   UNL     1       0.618   9.949  19.889  0.00  0.00    +0.000 A 
ATOM      9  C   UNL     1       1.653   9.425  18.950  0.00  0.00    +0.000 A 
ATOM     10  O   UNL     1       2.087  10.076  18.014  0.00  0.00    +0.000 OA
ATOM     11  N   UNL     1       3.448   7.503  17.635  0.00  0.00    +0.000 NA
ATOM     12  C   UNL     1       4.208   6.400  17.281  0.00  0.00    +0.000 A 
ATOM     13  C   UNL     1       4.911   6.453  15.970  0.00  0.00    +0.000 C 
ATOM     14  H   UNL     1       1.733   7.489  21.349  0.00  0.00    +0.000 HD
ENDROOT
BRANCH   1  15
ATOM     15  C   UNL     1       4.948   4.133  18.264  0.00  0.00    +0.000 C 
ATOM     16  O   UNL     1       4.552   3.054  17.831  0.00  0.00    +0.000 OA
BRANCH  15  17
ATOM     17  O   UNL     1       6.116   4.299  18.942  0.00  0.00    +0.000 OA
BRANCH  17  19
ATOM     18  C   UNL     1       7.851   5.933  18.863  0.00  0.00    +0.000 C 
ATOM     19  C   UNL     1       7.242   4.729  18.168  0.00  0.00    +0.000 C 
ENDBRANCH  17  19
ENDBRANCH  15  17
ENDBRANCH   1  15
BRANCH   8  20
ATOM     20  C   UNL     1       0.016  11.299  19.743  0.00  0.00    +0.000 C 
BRANCH  20  21
ATOM     21  C   UNL     1      -1.406  11.231  19.228  0.00  0.00    +0.000 A 
ATOM     22  C   UNL     1      -1.764  10.300  18.241  0.00  0.00    +0.000 A 
ATOM     23  C   UNL     1      -3.054  10.294  17.706  0.00  0.00    +0.000 A 
ATOM     24  C   UNL     1      -3.995  11.215  18.158  0.00  0.00    +0.000 A 
ATOM     25 CL   UNL     1      -5.575  11.224  17.477  0.00  0.00    +0.000 Cl
ATOM     26  C   UNL     1      -3.660  12.136  19.148  0.00  0.00    +0.000 A 
ATOM     27  C   UNL     1      -2.368  12.147  19.679  0.00  0.00    +0.000 A 
ENDBRANCH  20  21
ENDBRANCH   8  20
TORSDOF 5
ENDMDL
MODEL 4
REMARK VINA RESULT:      -7.6      1.505      2.283
REMARK  Name = 
REMARK  8 active torsions:
REMARK  status: ('A' for Active; 'I' for Inactive)
REMARK    1  A    between atoms: C_1  and  C_2
REMARK    2  A    between atoms: C_2  and  O_3
REMARK    3  A    between atoms: O_3  and  C_4
REMARK    4  A    between atoms: C_4  and  C_6
REMARK    5  A    between atoms: C_11  and  C_12
REMARK    6  A    between atoms: C_13  and  C_14
REMARK    7  A    between atoms: C_14  and  C_15
REMARK    8  A    between atoms: C_25  and  C_26
REMARK                            x       y       z     vdW  Elec       q    Type
REMARK                         _______ _______ _______ _____ _____    ______ ____
ROOT
ATOM      1  C   UNL     1       4.290   5.357  18.262  0.00  0.00    +0.000 A 
ATOM      2  S   UNL     1       3.265   5.926  19.520  0.00  0.00    +0.000 S 
ATOM      3  C   UNL     1       2.936   7.341  18.617  0.00  0.00    +0.000 A 
ATOM      4  N   UNL     1       2.077   8.265  19.165  0.00  0.00    +0.000 N 
ATOM      5  N   UNL     1       1.276   8.083  20.302  0.00  0.00    +0.000 N 
ATOM      6  C   UNL     1       0.551   9.251  20.459  0.00  0.00    +0.000 A 
ATOM      7  C   UNL     1      -0.292   9.477  21.665  0.00  0.00    +0.000 C 
ATOM      8  C   UNL     1       0.720  10.103  19.433  0.00  0.00    +0.000 A 
ATOM      9  C   UNL     1       1.763   9.481  18.564  0.00  0.00    +0.000 A 
ATOM     10  O   UNL     1       2.222  10.038  17.580  0.00  0.00    +0.000 OA
ATOM     11  N   UNL     1       3.554   7.423  17.465  0.00  0.00    +0.000 NA
ATOM     12  C   UNL     1       4.304   6.284  17.228  0.00  0.00    +0.000 A 
ATOM     13  C   UNL     1       5.030   6.206  15.930  0.00  0.00    +0.000 C 
ATOM     14  H   UNL     1       1.777   7.775  21.133  0.00  0.00    +0.000 HD
ENDROOT
BRANCH   1  15
ATOM     15  C   UNL     1       4.996   4.108  18.430  0.00  0.00    +0.000 C 
ATOM     16  O   UNL     1       4.569   2.992  18.144  0.00  0.00    +0.000 OA
BRANCH  15  17
ATOM     17  O   UNL     1       6.189   4.332  19.044  0.00  0.00    +0.000 OA
BRANCH  17  19
ATOM     18  C   UNL     1       7.892   5.995  18.918  0.00  0.00    +0.000 C 
ATOM     19  C   UNL     1       7.250   4.815  18.212  0.00  0.00    +0.000 C 
ENDBRANCH  17  19
ENDBRANCH  15  17
ENDBRANCH   1  15
BRANCH   8  20
ATOM     20  C   UNL     1       0.140  11.440  19.151  0.00  0.00    +0.000 C 
BRANCH  20  21
ATOM     21  C   UNL     1      -1.318  11.352  18.753  0.00  0.00    +0.000 A 
ATOM     22  C   UNL     1      -2.278  12.165  19.375  0.00  0.00    +0.000 A 
ATOM     23  C   UNL     1      -3.633  12.024  19.068  0.00  0.00    +0.000 A 
ATOM     24  C   UNL     1      -4.036  11.074  18.133  0.00  0.00    +0.000 A 
ATOM     25 CL   UNL     1      -5.709  10.883  17.777  0.00  0.00    +0.000 Cl
ATOM     26  C   UNL     1      -3.094  10.270  17.496  0.00  0.00    +0.000 A 
ATOM     27  C   UNL     1      -1.739  10.405  17.807  0.00  0.00    +0.000 A 
ENDBRANCH  20  21
ENDBRANCH   8  20
TORSDOF 5
ENDMDL
MODEL 5
REMARK VINA RESULT:      -7.3      2.788      3.665
REMARK  Name = 
REMARK  8 active torsions:
REMARK  status: ('A' for Active; 'I' for Inactive)
REMARK    1  A    between atoms: C_1  and  C_2
REMARK    2  A    between atoms: C_2  and  O_3
REMARK    3  A    between atoms: O_3  and  C_4
REMARK    4  A    between atoms: C_4  and  C_6
REMARK    5  A    between atoms: C_11  and  C_12
REMARK    6  A    between atoms: C_13  and  C_14
REMARK    7  A    between atoms: C_14  and  C_15
REMARK    8  A    between atoms: C_25  and  C_26
REMARK                            x       y       z     vdW  Elec       q    Type
REMARK                         _______ _______ _______ _____ _____    ______ ____
ROOT
ATOM      1  C   UNL     1       3.634   4.793  19.079  0.00  0.00    +0.000 A 
ATOM      2  S   UNL     1       2.717   5.716  20.204  0.00  0.00    +0.000 S 
ATOM      3  C   UNL     1       2.580   6.981  19.061  0.00  0.00    +0.000 A 
ATOM      4  N   UNL     1       1.867   8.099  19.426  0.00  0.00    +0.000 N 
ATOM      5  N   UNL     1       1.064   8.237  20.568  0.00  0.00    +0.000 N 
ATOM      6  C   UNL     1       0.515   9.505  20.507  0.00  0.00    +0.000 A 
ATOM      7  C   UNL     1      -0.272  10.058  21.643  0.00  0.00    +0.000 C 
ATOM      8  C   UNL     1       0.789  10.129  19.348  0.00  0.00    +0.000 A 
ATOM      9  C   UNL     1       1.721   9.222  18.616  0.00  0.00    +0.000 A 
ATOM     10  O   UNL     1       2.242   9.525  17.554  0.00  0.00    +0.000 OA
ATOM     11  N   UNL     1       3.187   6.770  17.920  0.00  0.00    +0.000 NA
ATOM     12  C   UNL     1       3.765   5.511  17.897  0.00  0.00    +0.000 A 
ATOM     13  C   UNL     1       4.455   5.103  16.643  0.00  0.00    +0.000 C 
ATOM     14  H   UNL     1       1.527   8.013  21.446  0.00  0.00    +0.000 HD
ENDROOT
BRANCH   1  15
ATOM     15  C   UNL     1       4.158   3.507  19.474  0.00  0.00    +0.000 C 
ATOM     16  O   UNL     1       5.345   3.196  19.529  0.00  0.00    +0.000 OA
BRANCH  15  17
ATOM     17  O   UNL     1       3.133   2.640  19.695  0.00  0.00    +0.000 OA
BRANCH  17  19
ATOM     18  C   UNL     1       0.968   2.323  18.748  0.00  0.00    +0.000 C 
ATOM     19  C   UNL     1       2.460   2.145  18.531  0.00  0.00    +0.000 C 
ENDBRANCH  17  19
ENDBRANCH  15  17
ENDBRANCH   1  15
BRANCH   8  20
ATOM     20  C   UNL     1       0.400  11.464  18.827  0.00  0.00    +0.000 C 
BRANCH  20  21
ATOM     21  C   UNL     1       1.449  12.515  19.122  0.00  0.00    +0.000 A 
ATOM     22  C   UNL     1       2.251  13.031  18.093  0.00  0.00    +0.000 A 
ATOM     23  C   UNL     1       3.274  13.938  18.378  0.00  0.00    +0.000 A 
ATOM     24  C   UNL     1       3.498  14.337  19.694  0.00  0.00    +0.000 A 
ATOM     25 CL   UNL     1       4.779  15.431  20.046  0.00  0.00    +0.000 Cl
ATOM     26  C   UNL     1       2.702  13.845  20.725  0.00  0.00    +0.000 A 
ATOM     27  C   UNL     1       1.682  12.933  20.441  0.00  0.00    +0.000 A 
ENDBRANCH  20  21
ENDBRANCH   8  20
TORSDOF 5
ENDMDL
MODEL 6
REMARK VINA RESULT:      -7.1      1.078      1.081
REMARK  Name = 
REMARK  8 active torsions:
REMARK  status: ('A' for Active; 'I' for Inactive)
REMARK    1  A    between atoms: C_1  and  C_2
REMARK    2  A    between atoms: C_2  and  O_3
REMARK    3  A    between atoms: O_3  and  C_4
REMARK    4  A    between atoms: C_4  and  C_6
REMARK    5  A    between atoms: C_11  and  C_12
REMARK    6  A    between atoms: C_13  and  C_14
REMARK    7  A    between atoms: C_14  and  C_15
REMARK    8  A    between atoms: C_25  and  C_26
REMARK                            x       y       z     vdW  Elec       q    Type
REMARK                         _______ _______ _______ _____ _____    ______ ____
ROOT
ATOM      1  C   UNL     1       3.459   5.272  19.255  0.00  0.00    +0.000 A 
ATOM      2  S   UNL     1       2.532   6.061  20.470  0.00  0.00    +0.000 S 
ATOM      3  C   UNL     1       2.301   7.399  19.430  0.00  0.00    +0.000 A 
ATOM      4  N   UNL     1       1.546   8.450  19.897  0.00  0.00    +0.000 N 
ATOM      5  N   UNL     1       0.771   8.462  21.067  0.00  0.00    +0.000 N 
ATOM      6  C   UNL     1       0.160   9.702  21.116  0.00  0.00    +0.000 A 
ATOM      7  C   UNL     1      -0.619  10.128  22.311  0.00  0.00    +0.000 C 
ATOM      8  C   UNL     1       0.370  10.424  20.001  0.00  0.00    +0.000 A 
ATOM      9  C   UNL     1       1.323   9.622  19.179  0.00  0.00    +0.000 A 
ATOM     10  O   UNL     1       1.797  10.029  18.131  0.00  0.00    +0.000 OA
ATOM     11  N   UNL     1       2.884   7.305  18.261  0.00  0.00    +0.000 NA
ATOM     12  C   UNL     1       3.521   6.082  18.129  0.00  0.00    +0.000 A 
ATOM     13  C   UNL     1       4.194   5.804  16.830  0.00  0.00    +0.000 C 
ATOM     14  H   UNL     1       1.270   8.197  21.914  0.00  0.00    +0.000 HD
ENDROOT
BRANCH   1  15
ATOM     15  C   UNL     1       4.056   3.988  19.538  0.00  0.00    +0.000 C 
ATOM     16  O   UNL     1       5.255   3.725  19.502  0.00  0.00    +0.000 OA
BRANCH  15  17
ATOM     17  O   UNL     1       3.081   3.067  19.765  0.00  0.00    +0.000 OA
BRANCH  17  19
ATOM     18  C   UNL     1       1.572   2.596  21.551  0.00  0.00    +0.000 C 
ATOM     19  C   UNL     1       3.017   2.526  21.090  0.00  0.00    +0.000 C 
ENDBRANCH  17  19
ENDBRANCH  15  17
ENDBRANCH   1  15
BRANCH   8  20
ATOM     20  C   UNL     1      -0.098  11.773  19.594  0.00  0.00    +0.000 C 
BRANCH  20  21
ATOM     21  C   UNL     1      -1.507  11.741  19.043  0.00  0.00    +0.000 A 
ATOM     22  C   UNL     1      -2.570  12.299  19.769  0.00  0.00    +0.000 A 
ATOM     23  C   UNL     1      -3.882  12.195  19.301  0.00  0.00    +0.000 A 
ATOM     24  C   UNL     1      -4.138  11.537  18.100  0.00  0.00    +0.000 A 
ATOM     25 CL   UNL     1      -5.758  11.385  17.540  0.00  0.00    +0.000 Cl
ATOM     26  C   UNL     1      -3.093  10.990  17.360  0.00  0.00    +0.000 A 
ATOM     27  C   UNL     1      -1.781  11.088  17.831  0.00  0.00    +0.000 A 
ENDBRANCH  20  21
ENDBRANCH   8  20
TORSDOF 5
ENDMDL
MODEL 7
REMARK VINA RESULT:      -7.1      2.836      3.636
REMARK  Name = 
REMARK  8 active torsions:
REMARK  status: ('A' for Active; 'I' for Inactive)
REMARK    1  A    between atoms: C_1  and  C_2
REMARK    2  A    between atoms: C_2  and  O_3
REMARK    3  A    between atoms: O_3  and  C_4
REMARK    4  A    between atoms: C_4  and  C_6
REMARK    5  A    between atoms: C_11  and  C_12
REMARK    6  A    between atoms: C_13  and  C_14
REMARK    7  A    between atoms: C_14  and  C_15
REMARK    8  A    between atoms: C_25  and  C_26
REMARK                            x       y       z     vdW  Elec       q    Type
REMARK                         _______ _______ _______ _____ _____    ______ ____
ROOT
ATOM      1  C   UNL     1       3.712   4.760  18.790  0.00  0.00    +0.000 A 
ATOM      2  S   UNL     1       2.783   5.629  19.948  0.00  0.00    +0.000 S 
ATOM      3  C   UNL     1       2.674   6.954  18.871  0.00  0.00    +0.000 A 
ATOM      4  N   UNL     1       1.964   8.057  19.284  0.00  0.00    +0.000 N 
ATOM      5  N   UNL     1       1.144   8.141  20.419  0.00  0.00    +0.000 N 
ATOM      6  C   UNL     1       0.604   9.415  20.416  0.00  0.00    +0.000 A 
ATOM      7  C   UNL     1      -0.196   9.914  21.568  0.00  0.00    +0.000 C 
ATOM      8  C   UNL     1       0.902  10.097  19.297  0.00  0.00    +0.000 A 
ATOM      9  C   UNL     1       1.840   9.223  18.533  0.00  0.00    +0.000 A 
ATOM     10  O   UNL     1       2.379   9.577  17.497  0.00  0.00    +0.000 OA
ATOM     11  N   UNL     1       3.299   6.799  17.731  0.00  0.00    +0.000 NA
ATOM     12  C   UNL     1       3.868   5.539  17.651  0.00  0.00    +0.000 A 
ATOM     13  C   UNL     1       4.575   5.191  16.388  0.00  0.00    +0.000 C 
ATOM     14  H   UNL     1       1.591   7.867  21.292  0.00  0.00    +0.000 HD
ENDROOT
BRANCH   1  15
ATOM     15  C   UNL     1       4.220   3.450  19.125  0.00  0.00    +0.000 C 
ATOM     16  O   UNL     1       5.264   3.212  19.726  0.00  0.00    +0.000 OA
BRANCH  15  17
ATOM     17  O   UNL     1       3.413   2.493  18.593  0.00  0.00    +0.000 OA
BRANCH  17  19
ATOM     18  C   UNL     1       1.037   2.334  18.712  0.00  0.00    +0.000 C 
ATOM     19  C   UNL     1       2.342   2.033  19.425  0.00  0.00    +0.000 C 
ENDBRANCH  17  19
ENDBRANCH  15  17
ENDBRANCH   1  15
BRANCH   8  20
ATOM     20  C   UNL     1       0.531  11.461  18.842  0.00  0.00    +0.000 C 
BRANCH  20  21
ATOM     21  C   UNL     1       1.611  12.475  19.153  0.00  0.00    +0.000 A 
ATOM     22  C   UNL     1       1.838  12.893  20.473  0.00  0.00    +0.000 A 
ATOM     23  C   UNL     1       2.777  13.889  20.751  0.00  0.00    +0.000 A 
ATOM     24  C   UNL     1       3.498  14.469  19.711  0.00  0.00    +0.000 A 
ATOM     25 CL   UNL     1       4.633  15.717  20.052  0.00  0.00    +0.000 Cl
ATOM     26  C   UNL     1       3.295  14.056  18.396  0.00  0.00    +0.000 A 
ATOM     27  C   UNL     1       2.352  13.064  18.117  0.00  0.00    +0.000 A 
ENDBRANCH  20  21
ENDBRANCH   8  20
TORSDOF 5
ENDMDL
MODEL 8
REMARK VINA RESULT:      -7.1      1.644      2.502
REMARK  Name = 
REMARK  8 active torsions:
REMARK  status: ('A' for Active; 'I' for Inactive)
REMARK    1  A    between atoms: C_1  and  C_2
REMARK    2  A    between atoms: C_2  and  O_3
REMARK    3  A    between atoms: O_3  and  C_4
REMARK    4  A    between atoms: C_4  and  C_6
REMARK    5  A    between atoms: C_11  and  C_12
REMARK    6  A    between atoms: C_13  and  C_14
REMARK    7  A    between atoms: C_14  and  C_15
REMARK    8  A    between atoms: C_25  and  C_26
REMARK                            x       y       z     vdW  Elec       q    Type
REMARK                         _______ _______ _______ _____ _____    ______ ____
ROOT
ATOM      1  C   UNL     1       4.246   5.281  18.689  0.00  0.00    +0.000 A 
ATOM      2  S   UNL     1       3.252   5.765  20.007  0.00  0.00    +0.000 S 
ATOM      3  C   UNL     1       2.744   7.139  19.125  0.00  0.00    +0.000 A 
ATOM      4  N   UNL     1       1.841   7.987  19.723  0.00  0.00    +0.000 N 
ATOM      5  N   UNL     1       1.130   7.741  20.907  0.00  0.00    +0.000 N 
ATOM      6  C   UNL     1       0.315   8.841  21.107  0.00  0.00    +0.000 A 
ATOM      7  C   UNL     1      -0.471   8.999  22.361  0.00  0.00    +0.000 C 
ATOM      8  C   UNL     1       0.345   9.699  20.072  0.00  0.00    +0.000 A 
ATOM      9  C   UNL     1       1.385   9.167  19.142  0.00  0.00    +0.000 A 
ATOM     10  O   UNL     1       1.733   9.756  18.132  0.00  0.00    +0.000 OA
ATOM     11  N   UNL     1       3.282   7.270  17.937  0.00  0.00    +0.000 NA
ATOM     12  C   UNL     1       4.114   6.200  17.656  0.00  0.00    +0.000 A 
ATOM     13  C   UNL     1       4.765   6.179  16.317  0.00  0.00    +0.000 C 
ATOM     14  H   UNL     1       1.705   7.484  21.707  0.00  0.00    +0.000 HD
ENDROOT
BRANCH   1  15
ATOM     15  C   UNL     1       5.069   4.101  18.815  0.00  0.00    +0.000 C 
ATOM     16  O   UNL     1       4.682   2.982  19.142  0.00  0.00    +0.000 OA
BRANCH  15  17
ATOM     17  O   UNL     1       6.373   4.424  18.603  0.00  0.00    +0.000 OA
BRANCH  17  19
ATOM     18  C   UNL     1       7.815   6.323  18.619  0.00  0.00    +0.000 C 
ATOM     19  C   UNL     1       6.925   5.429  19.462  0.00  0.00    +0.000 C 
ENDBRANCH  17  19
ENDBRANCH  15  17
ENDBRANCH   1  15
BRANCH   8  20
ATOM     20  C   UNL     1      -0.368  10.978  19.825  0.00  0.00    +0.000 C 
BRANCH  20  21
ATOM     21  C   UNL     1      -1.328  10.875  18.660  0.00  0.00    +0.000 A 
ATOM     22  C   UNL     1      -2.131   9.735  18.496  0.00  0.00    +0.000 A 
ATOM     23  C   UNL     1      -2.955   9.604  17.376  0.00  0.00    +0.000 A 
ATOM     24  C   UNL     1      -2.986  10.613  16.417  0.00  0.00    +0.000 A 
ATOM     25 CL   UNL     1      -3.980  10.436  15.023  0.00  0.00    +0.000 Cl
ATOM     26  C   UNL     1      -2.206  11.757  16.573  0.00  0.00    +0.000 A 
ATOM     27  C   UNL     1      -1.377  11.887  17.690  0.00  0.00    +0.000 A 
ENDBRANCH  20  21
ENDBRANCH   8  20
TORSDOF 5
ENDMDL
MODEL 9
REMARK VINA RESULT:      -7.0      0.899      1.102
REMARK  Name = 
REMARK  8 active torsions:
REMARK  status: ('A' for Active; 'I' for Inactive)
REMARK    1  A    between atoms: C_1  and  C_2
REMARK    2  A    between atoms: C_2  and  O_3
REMARK    3  A    between atoms: O_3  and  C_4
REMARK    4  A    between atoms: C_4  and  C_6
REMARK    5  A    between atoms: C_11  and  C_12
REMARK    6  A    between atoms: C_13  and  C_14
REMARK    7  A    between atoms: C_14  and  C_15
REMARK    8  A    between atoms: C_25  and  C_26
REMARK                            x       y       z     vdW  Elec       q    Type
REMARK                         _______ _______ _______ _____ _____    ______ ____
ROOT
ATOM      1  C   UNL     1       3.563   4.246  19.165  0.00  0.00    +0.000 A 
ATOM      2  S   UNL     1       2.776   5.058  20.463  0.00  0.00    +0.000 S 
ATOM      3  C   UNL     1       2.587   6.447  19.483  0.00  0.00    +0.000 A 
ATOM      4  N   UNL     1       1.948   7.535  20.031  0.00  0.00    +0.000 N 
ATOM      5  N   UNL     1       1.250   7.562  21.248  0.00  0.00    +0.000 N 
ATOM      6  C   UNL     1       0.741   8.842  21.376  0.00  0.00    +0.000 A 
ATOM      7  C   UNL     1       0.073   9.282  22.632  0.00  0.00    +0.000 C 
ATOM      8  C   UNL     1       0.938   9.587  20.274  0.00  0.00    +0.000 A 
ATOM      9  C   UNL     1       1.773   8.746  19.367  0.00  0.00    +0.000 A 
ATOM     10  O   UNL     1       2.212   9.154  18.304  0.00  0.00    +0.000 OA
ATOM     11  N   UNL     1       3.088   6.352  18.277  0.00  0.00    +0.000 NA
ATOM     12  C   UNL     1       3.618   5.090  18.064  0.00  0.00    +0.000 A 
ATOM     13  C   UNL     1       4.185   4.810  16.716  0.00  0.00    +0.000 C 
ATOM     14  H   UNL     1       1.777   7.228  22.052  0.00  0.00    +0.000 HD
ENDROOT
BRANCH   1  15
ATOM     15  C   UNL     1       4.073   2.910  19.368  0.00  0.00    +0.000 C 
ATOM     16  O   UNL     1       5.132   2.617  19.916  0.00  0.00    +0.000 OA
BRANCH  15  17
ATOM     17  O   UNL     1       3.247   2.007  18.775  0.00  0.00    +0.000 OA
BRANCH  17  19
ATOM     18  C   UNL     1       0.880   2.273  18.646  0.00  0.00    +0.000 C 
ATOM     19  C   UNL     1       2.027   1.714  19.468  0.00  0.00    +0.000 C 
ENDBRANCH  17  19
ENDBRANCH  15  17
ENDBRANCH   1  15
BRANCH   8  20
ATOM     20  C   UNL     1       0.553  10.982  19.941  0.00  0.00    +0.000 C 
BRANCH  20  21
ATOM     21  C   UNL     1      -0.611  11.032  18.975  0.00  0.00    +0.000 A 
ATOM     22  C   UNL     1      -1.445   9.917  18.804  0.00  0.00    +0.000 A 
ATOM     23  C   UNL     1      -2.467   9.934  17.853  0.00  0.00    +0.000 A 
ATOM     24  C   UNL     1      -2.665  11.070  17.070  0.00  0.00    +0.000 A 
ATOM     25 CL   UNL     1      -3.906  11.078  15.878  0.00  0.00    +0.000 Cl
ATOM     26  C   UNL     1      -1.855  12.190  17.238  0.00  0.00    +0.000 A 
ATOM     27  C   UNL     1      -0.828  12.171  18.185  0.00  0.00    +0.000 A 
ENDBRANCH  20  21
ENDBRANCH   8  20
TORSDOF 5
ENDMDL
