MODEL 1
REMARK VINA RESULT:      -7.6      0.000      0.000
REMARK  Name = 
REMARK  6 active torsions:
REMARK  status: ('A' for Active; 'I' for Inactive)
REMARK    1  A    between atoms: C_1  and  C_2
REMARK    2  A    between atoms: C_2  and  C_3
REMARK    3  A    between atoms: C_6  and  C_7
REMARK    4  A    between atoms: C_8  and  C_9
REMARK    5  A    between atoms: C_15  and  N_16
REMARK    6  A    between atoms: N_19  and  C_20
REMARK                            x       y       z     vdW  Elec       q    Type
REMARK                         _______ _______ _______ _____ _____    ______ ____
ROOT
ATOM      1  C   UNL     1       4.716   4.079  18.036  0.00  0.00    +0.000 C 
ATOM      2  O   UNL     1       4.416   2.947  17.657  0.00  0.00    +0.000 OA
ATOM      3  N   UNL     1       4.018   4.675  19.084  0.00  0.00    +0.000 N 
ATOM      4  C   UNL     1       3.068   3.881  19.850  0.00  0.00    +0.000 C 
ATOM      5  C   UNL     1       1.649   4.264  19.462  0.00  0.00    +0.000 C 
ATOM      6  C   UNL     1       1.395   5.757  19.689  0.00  0.00    +0.000 C 
ATOM      7  C   UNL     1       2.503   6.684  19.143  0.00  0.00    +0.000 C 
ATOM      8  C   UNL     1       3.923   6.104  19.309  0.00  0.00    +0.000 C 
ENDROOT
BRANCH   1  14
ATOM      9  C   UNL     1       6.018   4.900  15.975  0.00  0.00    +0.000 A 
ATOM     10  N   UNL     1       7.114   5.623  15.687  0.00  0.00    +0.000 NA
ATOM     11  O   UNL     1       7.669   5.948  16.902  0.00  0.00    +0.000 OA
ATOM     12  C   UNL     1       6.926   5.426  17.913  0.00  0.00    +0.000 A 
ATOM     13  C   UNL     1       7.497   5.650  19.260  0.00  0.00    +0.000 C 
ATOM     14  C   UNL     1       5.808   4.794  17.385  0.00  0.00    +0.000 A 
BRANCH   9  16
ATOM     15  C   UNL     1       6.089   3.879  13.695  0.00  0.00    +0.000 C 
ATOM     16  C   UNL     1       5.215   4.324  14.859  0.00  0.00    +0.000 C 
ENDBRANCH   9  16
ENDBRANCH   1  14
BRANCH   7  17
ATOM     17  N   UNL     1       2.529   8.104  19.561  0.00  0.00    +0.000 NA
ATOM     18  C   UNL     1       2.576   9.080  18.467  0.00  0.00    +0.000 C 
ATOM     19  C   UNL     1       1.227   9.392  17.791  0.00  0.00    +0.000 C 
ATOM     20  N   UNL     1       0.127   9.619  18.753  0.00  0.00    +0.000 N 
ATOM     21  C   UNL     1       0.104   8.803  19.981  0.00  0.00    +0.000 C 
ATOM     22  C   UNL     1       1.519   8.560  20.532  0.00  0.00    +0.000 C 
BRANCH  20  23
ATOM     23  C   UNL     1      -1.047  10.222  18.307  0.00  0.00    +0.000 A 
ATOM     24  C   UNL     1      -1.682  11.252  19.027  0.00  0.00    +0.000 A 
ATOM     25  C   UNL     1      -2.932  11.754  18.657  0.00  0.00    +0.000 A 
ATOM     26  C   UNL     1      -3.570  11.242  17.539  0.00  0.00    +0.000 A 
ATOM     27  F   UNL     1      -4.784  11.687  17.203  0.00  0.00    +0.000 F 
ATOM     28  C   UNL     1      -2.961  10.260  16.775  0.00  0.00    +0.000 A 
ATOM     29  C   UNL     1      -1.713   9.766  17.154  0.00  0.00    +0.000 A 
ENDBRANCH  20  23
ENDBRANCH   7  17
TORSDOF 4
ENDMDL
MODEL 2
REMARK VINA RESULT:      -7.4      4.988      9.587
REMARK  Name = 
REMARK  6 active torsions:
REMARK  status: ('A' for Active; 'I' for Inactive)
REMARK    1  A    between atoms: C_1  and  C_2
REMARK    2  A    between atoms: C_2  and  C_3
REMARK    3  A    between atoms: C_6  and  C_7
REMARK    4  A    between atoms: C_8  and  C_9
REMARK    5  A    between atoms: C_15  and  N_16
REMARK    6  A    between atoms: N_19  and  C_20
REMARK                            x       y       z     vdW  Elec       q    Type
REMARK                         _______ _______ _______ _____ _____    ______ ____
ROOT
ATOM      1  C   UNL     1      -2.446  12.913  20.203  0.00  0.00    +0.000 C 
ATOM      2  O   UNL     1      -3.672  12.870  20.116  0.00  0.00    +0.000 OA
ATOM      3  N   UNL     1      -1.651  12.367  19.198  0.00  0.00    +0.000 N 
ATOM      4  C   UNL     1      -2.276  11.923  17.959  0.00  0.00    +0.000 C 
ATOM      5  C   UNL     1      -2.334  10.404  17.930  0.00  0.00    +0.000 C 
ATOM      6  C   UNL     1      -0.936   9.792  18.068  0.00  0.00    +0.000 C 
ATOM      7  C   UNL     1      -0.082  10.399  19.201  0.00  0.00    +0.000 C 
ATOM      8  C   UNL     1      -0.284  11.919  19.373  0.00  0.00    +0.000 C 
ENDROOT
BRANCH   1  14
ATOM      9  C   UNL     1      -1.598  12.918  22.632  0.00  0.00    +0.000 A 
ATOM     10  N   UNL     1      -1.009  13.757  23.502  0.00  0.00    +0.000 NA
ATOM     11  O   UNL     1      -0.899  14.956  22.838  0.00  0.00    +0.000 OA
ATOM     12  C   UNL     1      -1.418  14.848  21.585  0.00  0.00    +0.000 A 
ATOM     13  C   UNL     1      -1.423  16.117  20.823  0.00  0.00    +0.000 C 
ATOM     14  C   UNL     1      -1.825  13.539  21.365  0.00  0.00    +0.000 A 
BRANCH   9  16
ATOM     15  C   UNL     1      -0.756  10.579  22.897  0.00  0.00    +0.000 C 
ATOM     16  C   UNL     1      -1.930  11.533  23.072  0.00  0.00    +0.000 C 
ENDBRANCH   9  16
ENDBRANCH   1  14
BRANCH   7  17
ATOM     17  N   UNL     1       1.371  10.115  19.243  0.00  0.00    +0.000 NA
ATOM     18  C   UNL     1       1.847   9.455  20.463  0.00  0.00    +0.000 C 
ATOM     19  C   UNL     1       1.634   7.930  20.524  0.00  0.00    +0.000 C 
ATOM     20  N   UNL     1       2.013   7.234  19.275  0.00  0.00    +0.000 N 
ATOM     21  C   UNL     1       1.737   7.912  17.995  0.00  0.00    +0.000 C 
ATOM     22  C   UNL     1       1.977   9.428  18.089  0.00  0.00    +0.000 C 
BRANCH  20  23
ATOM     23  C   UNL     1       2.183   5.851  19.298  0.00  0.00    +0.000 A 
ATOM     24  C   UNL     1       2.416   5.105  18.126  0.00  0.00    +0.000 A 
ATOM     25  C   UNL     1       2.440   3.708  18.130  0.00  0.00    +0.000 A 
ATOM     26  C   UNL     1       2.245   3.024  19.319  0.00  0.00    +0.000 A 
ATOM     27  F   UNL     1       2.225   1.689  19.323  0.00  0.00    +0.000 F 
ATOM     28  C   UNL     1       2.058   3.720  20.503  0.00  0.00    +0.000 A 
ATOM     29  C   UNL     1       2.035   5.113  20.488  0.00  0.00    +0.000 A 
ENDBRANCH  20  23
ENDBRANCH   7  17
TORSDOF 4
ENDMDL
MODEL 3
REMARK VINA RESULT:      -7.2      4.980     10.012
REMARK  Name = 
REMARK  6 active torsions:
REMARK  status: ('A' for Active; 'I' for Inactive)
REMARK    1  A    between atoms: C_1  and  C_2
REMARK    2  A    between atoms: C_2  and  C_3
REMARK    3  A    between atoms: C_6  and  C_7
REMARK    4  A    between atoms: C_8  and  C_9
REMARK    5  A    between atoms: C_15  and  N_16
REMARK    6  A    between atoms: N_19  and  C_20
REMARK                            x       y       z     vdW  Elec       q    Type
REMARK                         _______ _______ _______ _____ _____    ______ ____
ROOT
ATOM      1  C   UNL     1      -3.211  12.586  20.269  0.00  0.00    +0.000 C 
ATOM      2  O   UNL     1      -4.411  12.376  20.097  0.00  0.00    +0.000 OA
ATOM      3  N   UNL     1      -2.290  12.245  19.281  0.00  0.00    +0.000 N 
ATOM      4  C   UNL     1      -2.773  11.821  17.974  0.00  0.00    +0.000 C 
ATOM      5  C   UNL     1      -2.605  10.318  17.828  0.00  0.00    +0.000 C 
ATOM      6  C   UNL     1      -1.143   9.901  18.013  0.00  0.00    +0.000 C 
ATOM      7  C   UNL     1      -0.451  10.527  19.243  0.00  0.00    +0.000 C 
ATOM      8  C   UNL     1      -0.884  11.983  19.513  0.00  0.00    +0.000 C 
ENDROOT
BRANCH   1  14
ATOM      9  C   UNL     1      -2.762  14.594  21.814  0.00  0.00    +0.000 A 
ATOM     10  N   UNL     1      -2.274  14.842  23.042  0.00  0.00    +0.000 NA
ATOM     11  O   UNL     1      -1.883  13.620  23.536  0.00  0.00    +0.000 OA
ATOM     12  C   UNL     1      -2.126  12.644  22.621  0.00  0.00    +0.000 A 
ATOM     13  C   UNL     1      -1.656  11.302  23.031  0.00  0.00    +0.000 C 
ATOM     14  C   UNL     1      -2.754  13.196  21.513  0.00  0.00    +0.000 A 
BRANCH   9  16
ATOM     15  C   UNL     1      -3.096  17.068  21.695  0.00  0.00    +0.000 C 
ATOM     16  C   UNL     1      -3.212  15.735  20.968  0.00  0.00    +0.000 C 
ENDBRANCH   9  16
ENDBRANCH   1  14
BRANCH   7  17
ATOM     17  N   UNL     1       1.023  10.450  19.360  0.00  0.00    +0.000 NA
ATOM     18  C   UNL     1       1.523   9.770  20.560  0.00  0.00    +0.000 C 
ATOM     19  C   UNL     1       1.532   8.230  20.498  0.00  0.00    +0.000 C 
ATOM     20  N   UNL     1       2.078   7.696  19.232  0.00  0.00    +0.000 N 
ATOM     21  C   UNL     1       1.777   8.427  17.988  0.00  0.00    +0.000 C 
ATOM     22  C   UNL     1       1.786   9.950  18.204  0.00  0.00    +0.000 C 
BRANCH  20  23
ATOM     23  C   UNL     1       2.447   6.355  19.168  0.00  0.00    +0.000 A 
ATOM     24  C   UNL     1       2.924   5.763  17.982  0.00  0.00    +0.000 A 
ATOM     25  C   UNL     1       3.154   4.389  17.880  0.00  0.00    +0.000 A 
ATOM     26  C   UNL     1       2.926   3.574  18.977  0.00  0.00    +0.000 A 
ATOM     27  F   UNL     1       3.104   2.254  18.874  0.00  0.00    +0.000 F 
ATOM     28  C   UNL     1       2.502   4.120  20.177  0.00  0.00    +0.000 A 
ATOM     29  C   UNL     1       2.274   5.493  20.268  0.00  0.00    +0.000 A 
ENDBRANCH  20  23
ENDBRANCH   7  17
TORSDOF 4
ENDMDL
MODEL 4
REMARK VINA RESULT:      -7.2      5.132     10.224
REMARK  Name = 
REMARK  6 active torsions:
REMARK  status: ('A' for Active; 'I' for Inactive)
REMARK    1  A    between atoms: C_1  and  C_2
REMARK    2  A    between atoms: C_2  and  C_3
REMARK    3  A    between atoms: C_6  and  C_7
REMARK    4  A    between atoms: C_8  and  C_9
REMARK    5  A    between atoms: C_15  and  N_16
REMARK    6  A    between atoms: N_19  and  C_20
REMARK                            x       y       z     vdW  Elec       q    Type
REMARK                         _______ _______ _______ _____ _____    ______ ____
ROOT
ATOM      1  C   UNL     1      -3.734  12.674  20.387  0.00  0.00    +0.000 C 
ATOM      2  O   UNL     1      -4.913  12.386  20.181  0.00  0.00    +0.000 OA
ATOM      3  N   UNL     1      -2.759  12.355  19.445  0.00  0.00    +0.000 N 
ATOM      4  C   UNL     1      -3.167  11.858  18.138  0.00  0.00    +0.000 C 
ATOM      5  C   UNL     1      -2.905  10.363  18.053  0.00  0.00    +0.000 C 
ATOM      6  C   UNL     1      -1.428  10.042  18.304  0.00  0.00    +0.000 C 
ATOM      7  C   UNL     1      -0.821  10.751  19.533  0.00  0.00    +0.000 C 
ATOM      8  C   UNL     1      -1.349  12.187  19.735  0.00  0.00    +0.000 C 
ENDROOT
BRANCH   1  14
ATOM      9  C   UNL     1      -3.489  14.753  21.882  0.00  0.00    +0.000 A 
ATOM     10  N   UNL     1      -3.054  15.075  23.112  0.00  0.00    +0.000 NA
ATOM     11  O   UNL     1      -2.580  13.903  23.652  0.00  0.00    +0.000 OA
ATOM     12  C   UNL     1      -2.719  12.885  22.761  0.00  0.00    +0.000 A 
ATOM     13  C   UNL     1      -2.153  11.598  23.222  0.00  0.00    +0.000 C 
ATOM     14  C   UNL     1      -3.361  13.353  21.623  0.00  0.00    +0.000 A 
BRANCH   9  16
ATOM     15  C   UNL     1      -2.900  16.760  20.513  0.00  0.00    +0.000 C 
ATOM     16  C   UNL     1      -4.007  15.830  20.991  0.00  0.00    +0.000 C 
ENDBRANCH   9  16
ENDBRANCH   1  14
BRANCH   7  17
ATOM     17  N   UNL     1       0.650  10.769  19.705  0.00  0.00    +0.000 NA
ATOM     18  C   UNL     1       1.148  10.117  20.921  0.00  0.00    +0.000 C 
ATOM     19  C   UNL     1       1.258   8.581  20.858  0.00  0.00    +0.000 C 
ATOM     20  N   UNL     1       1.883   8.088  19.612  0.00  0.00    +0.000 N 
ATOM     21  C   UNL     1       1.581   8.803  18.359  0.00  0.00    +0.000 C 
ATOM     22  C   UNL     1       1.485  10.322  18.577  0.00  0.00    +0.000 C 
BRANCH  20  23
ATOM     23  C   UNL     1       2.339   6.773  19.560  0.00  0.00    +0.000 A 
ATOM     24  C   UNL     1       1.963   5.809  20.516  0.00  0.00    +0.000 A 
ATOM     25  C   UNL     1       2.534   4.534  20.548  0.00  0.00    +0.000 A 
ATOM     26  C   UNL     1       3.489   4.190  19.606  0.00  0.00    +0.000 A 
ATOM     27  F   UNL     1       4.070   2.988  19.657  0.00  0.00    +0.000 F 
ATOM     28  C   UNL     1       3.856   5.091  18.620  0.00  0.00    +0.000 A 
ATOM     29  C   UNL     1       3.280   6.361  18.598  0.00  0.00    +0.000 A 
ENDBRANCH  20  23
ENDBRANCH   7  17
TORSDOF 4
ENDMDL
MODEL 5
REMARK VINA RESULT:      -7.1      5.189     10.474
REMARK  Name = 
REMARK  6 active torsions:
REMARK  status: ('A' for Active; 'I' for Inactive)
REMARK    1  A    between atoms: C_1  and  C_2
REMARK    2  A    between atoms: C_2  and  C_3
REMARK    3  A    between atoms: C_6  and  C_7
REMARK    4  A    between atoms: C_8  and  C_9
REMARK    5  A    between atoms: C_15  and  N_16
REMARK    6  A    between atoms: N_19  and  C_20
REMARK                            x       y       z     vdW  Elec       q    Type
REMARK                         _______ _______ _______ _____ _____    ______ ____
ROOT
ATOM      1  C   UNL     1      -4.421  12.425  19.855  0.00  0.00    +0.000 C 
ATOM      2  O   UNL     1      -5.544  11.974  19.632  0.00  0.00    +0.000 OA
ATOM      3  N   UNL     1      -3.365  12.134  18.993  0.00  0.00    +0.000 N 
ATOM      4  C   UNL     1      -3.641  11.459  17.732  0.00  0.00    +0.000 C 
ATOM      5  C   UNL     1      -3.199  10.007  17.821  0.00  0.00    +0.000 C 
ATOM      6  C   UNL     1      -1.711   9.899  18.166  0.00  0.00    +0.000 C 
ATOM      7  C   UNL     1      -1.258  10.800  19.335  0.00  0.00    +0.000 C 
ATOM      8  C   UNL     1      -1.963  12.173  19.358  0.00  0.00    +0.000 C 
ENDROOT
BRANCH   1  14
ATOM      9  C   UNL     1      -4.652  14.614  21.186  0.00  0.00    +0.000 A 
ATOM     10  N   UNL     1      -4.285  15.125  22.374  0.00  0.00    +0.000 NA
ATOM     11  O   UNL     1      -3.534  14.145  22.979  0.00  0.00    +0.000 OA
ATOM     12  C   UNL     1      -3.442  13.056  22.169  0.00  0.00    +0.000 A 
ATOM     13  C   UNL     1      -2.577  11.980  22.700  0.00  0.00    +0.000 C 
ATOM     14  C   UNL     1      -4.198  13.268  21.024  0.00  0.00    +0.000 A 
BRANCH   9  16
ATOM     15  C   UNL     1      -6.396  16.391  20.965  0.00  0.00    +0.000 C 
ATOM     16  C   UNL     1      -5.429  15.464  20.240  0.00  0.00    +0.000 C 
ENDBRANCH   9  16
ENDBRANCH   1  14
BRANCH   7  17
ATOM     17  N   UNL     1       0.188  11.016  19.564  0.00  0.00    +0.000 NA
ATOM     18  C   UNL     1       0.759  10.293  20.706  0.00  0.00    +0.000 C 
ATOM     19  C   UNL     1       1.106   8.813  20.452  0.00  0.00    +0.000 C 
ATOM     20  N   UNL     1       1.822   8.589  19.179  0.00  0.00    +0.000 N 
ATOM     21  C   UNL     1       1.438   9.409  18.015  0.00  0.00    +0.000 C 
ATOM     22  C   UNL     1       1.103  10.854  18.422  0.00  0.00    +0.000 C 
BRANCH  20  23
ATOM     23  C   UNL     1       2.478   7.376  18.977  0.00  0.00    +0.000 A 
ATOM     24  C   UNL     1       2.439   6.335  19.925  0.00  0.00    +0.000 A 
ATOM     25  C   UNL     1       3.214   5.180  19.790  0.00  0.00    +0.000 A 
ATOM     26  C   UNL     1       4.037   5.035  18.685  0.00  0.00    +0.000 A 
ATOM     27  F   UNL     1       4.812   3.952  18.570  0.00  0.00    +0.000 F 
ATOM     28  C   UNL     1       4.071   6.013  17.705  0.00  0.00    +0.000 A 
ATOM     29  C   UNL     1       3.295   7.162  17.850  0.00  0.00    +0.000 A 
ENDBRANCH  20  23
ENDBRANCH   7  17
TORSDOF 4
ENDMDL
MODEL 6
REMARK VINA RESULT:      -7.0      4.908      9.676
REMARK  Name = 
REMARK  6 active torsions:
REMARK  status: ('A' for Active; 'I' for Inactive)
REMARK    1  A    between atoms: C_1  and  C_2
REMARK    2  A    between atoms: C_2  and  C_3
REMARK    3  A    between atoms: C_6  and  C_7
REMARK    4  A    between atoms: C_8  and  C_9
REMARK    5  A    between atoms: C_15  and  N_16
REMARK    6  A    between atoms: N_19  and  C_20
REMARK                            x       y       z     vdW  Elec       q    Type
REMARK                         _______ _______ _______ _____ _____    ______ ____
ROOT
ATOM      1  C   UNL     1      -2.364  12.583  20.171  0.00  0.00    +0.000 C 
ATOM      2  O   UNL     1      -3.578  12.577  19.970  0.00  0.00    +0.000 OA
ATOM      3  N   UNL     1      -1.487  12.144  19.181  0.00  0.00    +0.000 N 
ATOM      4  C   UNL     1      -2.002  11.862  17.848  0.00  0.00    +0.000 C 
ATOM      5  C   UNL     1      -2.073  10.359  17.633  0.00  0.00    +0.000 C 
ATOM      6  C   UNL     1      -0.700   9.705  17.820  0.00  0.00    +0.000 C 
ATOM      7  C   UNL     1       0.055  10.156  19.089  0.00  0.00    +0.000 C 
ATOM      8  C   UNL     1      -0.146  11.649  19.422  0.00  0.00    +0.000 C 
ENDROOT
BRANCH   1  14
ATOM      9  C   UNL     1      -1.584  14.418  21.797  0.00  0.00    +0.000 A 
ATOM     10  N   UNL     1      -1.105  14.531  23.048  0.00  0.00    +0.000 NA
ATOM     11  O   UNL     1      -0.987  13.242  23.513  0.00  0.00    +0.000 OA
ATOM     12  C   UNL     1      -1.384  12.359  22.558  0.00  0.00    +0.000 A 
ATOM     13  C   UNL     1      -1.208  10.940  22.938  0.00  0.00    +0.000 C 
ATOM     14  C   UNL     1      -1.845  13.056  21.449  0.00  0.00    +0.000 A 
BRANCH   9  16
ATOM     15  C   UNL     1      -3.190  16.175  21.037  0.00  0.00    +0.000 C 
ATOM     16  C   UNL     1      -1.763  15.648  20.975  0.00  0.00    +0.000 C 
ENDBRANCH   9  16
ENDBRANCH   1  14
BRANCH   7  17
ATOM     17  N   UNL     1       1.494   9.839  19.225  0.00  0.00    +0.000 NA
ATOM     18  C   UNL     1       1.862   9.097  20.436  0.00  0.00    +0.000 C 
ATOM     19  C   UNL     1       1.618   7.575  20.386  0.00  0.00    +0.000 C 
ATOM     20  N   UNL     1       2.082   6.948  19.131  0.00  0.00    +0.000 N 
ATOM     21  C   UNL     1       1.920   7.707  17.877  0.00  0.00    +0.000 C 
ATOM     22  C   UNL     1       2.177   9.209  18.082  0.00  0.00    +0.000 C 
BRANCH  20  23
ATOM     23  C   UNL     1       2.226   5.563  19.081  0.00  0.00    +0.000 A 
ATOM     24  C   UNL     1       2.231   4.767  20.243  0.00  0.00    +0.000 A 
ATOM     25  C   UNL     1       2.522   3.401  20.204  0.00  0.00    +0.000 A 
ATOM     26  C   UNL     1       2.799   2.795  18.989  0.00  0.00    +0.000 A 
ATOM     27  F   UNL     1       3.119   1.499  18.949  0.00  0.00    +0.000 F 
ATOM     28  C   UNL     1       2.759   3.531  17.816  0.00  0.00    +0.000 A 
ATOM     29  C   UNL     1       2.470   4.894  17.866  0.00  0.00    +0.000 A 
ENDBRANCH  20  23
ENDBRANCH   7  17
TORSDOF 4
ENDMDL
MODEL 7
REMARK VINA RESULT:      -7.0      5.030      9.984
REMARK  Name = 
REMARK  6 active torsions:
REMARK  status: ('A' for Active; 'I' for Inactive)
REMARK    1  A    between atoms: C_1  and  C_2
REMARK    2  A    between atoms: C_2  and  C_3
REMARK    3  A    between atoms: C_6  and  C_7
REMARK    4  A    between atoms: C_8  and  C_9
REMARK    5  A    between atoms: C_15  and  N_16
REMARK    6  A    between atoms: N_19  and  C_20
REMARK                            x       y       z     vdW  Elec       q    Type
REMARK                         _______ _______ _______ _____ _____    ______ ____
ROOT
ATOM      1  C   UNL     1      -2.987  12.821  19.902  0.00  0.00    +0.000 C 
ATOM      2  O   UNL     1      -4.198  12.632  19.789  0.00  0.00    +0.000 OA
ATOM      3  N   UNL     1      -2.104  12.290  18.964  0.00  0.00    +0.000 N 
ATOM      4  C   UNL     1      -2.634  11.681  17.752  0.00  0.00    +0.000 C 
ATOM      5  C   UNL     1      -2.523  10.168  17.847  0.00  0.00    +0.000 C 
ATOM      6  C   UNL     1      -1.072   9.730  18.069  0.00  0.00    +0.000 C 
ATOM      7  C   UNL     1      -0.327  10.518  19.168  0.00  0.00    +0.000 C 
ATOM      8  C   UNL     1      -0.702  12.014  19.208  0.00  0.00    +0.000 C 
ENDROOT
BRANCH   1  14
ATOM      9  C   UNL     1      -2.700  13.329  22.408  0.00  0.00    +0.000 A 
ATOM     10  N   UNL     1      -2.102  14.236  23.199  0.00  0.00    +0.000 NA
ATOM     11  O   UNL     1      -1.534  15.151  22.344  0.00  0.00    +0.000 OA
ATOM     12  C   UNL     1      -1.787  14.808  21.052  0.00  0.00    +0.000 A 
ATOM     13  C   UNL     1      -1.288  15.785  20.059  0.00  0.00    +0.000 C 
ATOM     14  C   UNL     1      -2.478  13.604  21.022  0.00  0.00    +0.000 A 
BRANCH   9  16
ATOM     15  C   UNL     1      -3.989  12.595  24.419  0.00  0.00    +0.000 C 
ATOM     16  C   UNL     1      -3.480  12.223  23.033  0.00  0.00    +0.000 C 
ENDBRANCH   9  16
ENDBRANCH   1  14
BRANCH   7  17
ATOM     17  N   UNL     1       1.145  10.405  19.268  0.00  0.00    +0.000 NA
ATOM     18  C   UNL     1       1.644   9.749  20.482  0.00  0.00    +0.000 C 
ATOM     19  C   UNL     1       1.611   8.208  20.471  0.00  0.00    +0.000 C 
ATOM     20  N   UNL     1       2.123   7.620  19.215  0.00  0.00    +0.000 N 
ATOM     21  C   UNL     1       1.824   8.318  17.952  0.00  0.00    +0.000 C 
ATOM     22  C   UNL     1       1.877   9.847  18.118  0.00  0.00    +0.000 C 
BRANCH  20  23
ATOM     23  C   UNL     1       2.455   6.267  19.190  0.00  0.00    +0.000 A 
ATOM     24  C   UNL     1       2.185   5.407  20.272  0.00  0.00    +0.000 A 
ATOM     25  C   UNL     1       2.648   4.089  20.306  0.00  0.00    +0.000 A 
ATOM     26  C   UNL     1       3.382   3.596  19.240  0.00  0.00    +0.000 A 
ATOM     27  F   UNL     1       3.864   2.350  19.284  0.00  0.00    +0.000 F 
ATOM     28  C   UNL     1       3.631   4.392  18.135  0.00  0.00    +0.000 A 
ATOM     29  C   UNL     1       3.166   5.706  18.112  0.00  0.00    +0.000 A 
ENDBRANCH  20  23
ENDBRANCH   7  17
TORSDOF 4
ENDMDL
MODEL 8
REMARK VINA RESULT:      -6.9      5.988      9.979
REMARK  Name = 
REMARK  6 active torsions:
REMARK  status: ('A' for Active; 'I' for Inactive)
REMARK    1  A    between atoms: C_1  and  C_2
REMARK    2  A    between atoms: C_2  and  C_3
REMARK    3  A    between atoms: C_6  and  C_7
REMARK    4  A    between atoms: C_8  and  C_9
REMARK    5  A    between atoms: C_15  and  N_16
REMARK    6  A    between atoms: N_19  and  C_20
REMARK                            x       y       z     vdW  Elec       q    Type
REMARK                         _______ _______ _______ _____ _____    ______ ____
ROOT
ATOM      1  C   UNL     1       1.566  17.092  20.400  0.00  0.00    +0.000 C 
ATOM      2  O   UNL     1       2.139  17.718  21.291  0.00  0.00    +0.000 OA
ATOM      3  N   UNL     1       0.295  16.566  20.619  0.00  0.00    +0.000 N 
ATOM      4  C   UNL     1      -0.426  16.926  21.833  0.00  0.00    +0.000 C 
ATOM      5  C   UNL     1      -0.413  15.757  22.803  0.00  0.00    +0.000 C 
ATOM      6  C   UNL     1      -1.030  14.504  22.173  0.00  0.00    +0.000 C 
ATOM      7  C   UNL     1      -0.522  14.188  20.750  0.00  0.00    +0.000 C 
ATOM      8  C   UNL     1      -0.276  15.448  19.893  0.00  0.00    +0.000 C 
ENDROOT
BRANCH   1  14
ATOM      9  C   UNL     1       1.904  17.591  17.899  0.00  0.00    +0.000 A 
ATOM     10  N   UNL     1       2.684  17.194  16.879  0.00  0.00    +0.000 NA
ATOM     11  O   UNL     1       3.481  16.198  17.393  0.00  0.00    +0.000 OA
ATOM     12  C   UNL     1       3.185  15.989  18.704  0.00  0.00    +0.000 A 
ATOM     13  C   UNL     1       3.933  14.871  19.321  0.00  0.00    +0.000 C 
ATOM     14  C   UNL     1       2.222  16.903  19.111  0.00  0.00    +0.000 A 
BRANCH   9  16
ATOM     15  C   UNL     1      -0.453  18.018  17.186  0.00  0.00    +0.000 C 
ATOM     16  C   UNL     1       0.861  18.628  17.653  0.00  0.00    +0.000 C 
ENDBRANCH   9  16
ENDBRANCH   1  14
BRANCH   7  17
ATOM     17  N   UNL     1      -1.252  13.200  19.924  0.00  0.00    +0.000 NA
ATOM     18  C   UNL     1      -0.654  12.911  18.616  0.00  0.00    +0.000 C 
ATOM     19  C   UNL     1       0.519  11.911  18.624  0.00  0.00    +0.000 C 
ATOM     20  N   UNL     1       0.260  10.710  19.447  0.00  0.00    +0.000 N 
ATOM     21  C   UNL     1      -0.501  10.880  20.698  0.00  0.00    +0.000 C 
ATOM     22  C   UNL     1      -1.626  11.918  20.545  0.00  0.00    +0.000 C 
BRANCH  20  23
ATOM     23  C   UNL     1       1.078   9.593  19.287  0.00  0.00    +0.000 A 
ATOM     24  C   UNL     1       1.678   9.273  18.054  0.00  0.00    +0.000 A 
ATOM     25  C   UNL     1       2.375   8.078  17.857  0.00  0.00    +0.000 A 
ATOM     26  C   UNL     1       2.500   7.180  18.903  0.00  0.00    +0.000 A 
ATOM     27  F   UNL     1       3.129   6.016  18.710  0.00  0.00    +0.000 F 
ATOM     28  C   UNL     1       1.965   7.475  20.146  0.00  0.00    +0.000 A 
ATOM     29  C   UNL     1       1.270   8.669  20.332  0.00  0.00    +0.000 A 
ENDBRANCH  20  23
ENDBRANCH   7  17
TORSDOF 4
ENDMDL
MODEL 9
REMARK VINA RESULT:      -6.9      5.826     11.182
REMARK  Name = 
REMARK  6 active torsions:
REMARK  status: ('A' for Active; 'I' for Inactive)
REMARK    1  A    between atoms: C_1  and  C_2
REMARK    2  A    between atoms: C_2  and  C_3
REMARK    3  A    between atoms: C_6  and  C_7
REMARK    4  A    between atoms: C_8  and  C_9
REMARK    5  A    between atoms: C_15  and  N_16
REMARK    6  A    between atoms: N_19  and  C_20
REMARK                            x       y       z     vdW  Elec       q    Type
REMARK                         _______ _______ _______ _____ _____    ______ ____
ROOT
ATOM      1  C   UNL     1      -4.806  13.356  22.288  0.00  0.00    +0.000 C 
ATOM      2  O   UNL     1      -4.992  13.709  23.451  0.00  0.00    +0.000 OA
ATOM      3  N   UNL     1      -3.644  12.672  21.939  0.00  0.00    +0.000 N 
ATOM      4  C   UNL     1      -2.747  12.210  22.991  0.00  0.00    +0.000 C 
ATOM      5  C   UNL     1      -1.513  13.096  23.039  0.00  0.00    +0.000 C 
ATOM      6  C   UNL     1      -0.786  13.109  21.690  0.00  0.00    +0.000 C 
ATOM      7  C   UNL     1      -1.707  13.322  20.470  0.00  0.00    +0.000 C 
ATOM      8  C   UNL     1      -3.076  12.625  20.607  0.00  0.00    +0.000 C 
ENDROOT
BRANCH   1  14
ATOM      9  C   UNL     1      -5.935  14.885  20.553  0.00  0.00    +0.000 A 
ATOM     10  N   UNL     1      -6.961  14.853  19.686  0.00  0.00    +0.000 NA
ATOM     11  O   UNL     1      -7.558  13.628  19.868  0.00  0.00    +0.000 OA
ATOM     12  C   UNL     1      -6.908  12.927  20.835  0.00  0.00    +0.000 A 
ATOM     13  C   UNL     1      -7.535  11.628  21.163  0.00  0.00    +0.000 C 
ATOM     14  C   UNL     1      -5.809  13.655  21.272  0.00  0.00    +0.000 A 
BRANCH   9  16
ATOM     15  C   UNL     1      -5.358  17.075  19.497  0.00  0.00    +0.000 C 
ATOM     16  C   UNL     1      -5.113  16.123  20.660  0.00  0.00    +0.000 C 
ENDBRANCH   9  16
ENDBRANCH   1  14
BRANCH   7  17
ATOM     17  N   UNL     1      -1.182  13.053  19.112  0.00  0.00    +0.000 NA
ATOM     18  C   UNL     1       0.276  13.140  18.973  0.00  0.00    +0.000 C 
ATOM     19  C   UNL     1       1.066  11.898  19.433  0.00  0.00    +0.000 C 
ATOM     20  N   UNL     1       0.489  10.625  18.950  0.00  0.00    +0.000 N 
ATOM     21  C   UNL     1      -0.979  10.514  18.880  0.00  0.00    +0.000 C 
ATOM     22  C   UNL     1      -1.631  11.831  18.425  0.00  0.00    +0.000 C 
BRANCH  20  23
ATOM     23  C   UNL     1       1.264   9.469  19.008  0.00  0.00    +0.000 A 
ATOM     24  C   UNL     1       1.981   8.989  17.894  0.00  0.00    +0.000 A 
ATOM     25  C   UNL     1       2.636   7.755  17.910  0.00  0.00    +0.000 A 
ATOM     26  C   UNL     1       2.601   6.977  19.056  0.00  0.00    +0.000 A 
ATOM     27  F   UNL     1       3.190   5.778  19.064  0.00  0.00    +0.000 F 
ATOM     28  C   UNL     1       1.947   7.431  20.189  0.00  0.00    +0.000 A 
ATOM     29  C   UNL     1       1.295   8.663  20.162  0.00  0.00    +0.000 A 
ENDBRANCH  20  23
ENDBRANCH   7  17
TORSDOF 4
ENDMDL
