MODEL 1
REMARK VINA RESULT:      -8.1      0.000      0.000
REMARK  Name = 
REMARK  6 active torsions:
REMARK  status: ('A' for Active; 'I' for Inactive)
REMARK    1  A    between atoms: C_1  and  C_2
REMARK    2  A    between atoms: C_2  and  O_3
REMARK    3  A    between atoms: O_3  and  C_4
REMARK    4  A    between atoms: C_4  and  C_6
REMARK    5  A    between atoms: C_11  and  C_13
REMARK    6  A    between atoms: C_16  and  C_17
REMARK                            x       y       z     vdW  Elec       q    Type
REMARK                         _______ _______ _______ _____ _____    ______ ____
ROOT
ATOM      1  C   UNL     1       3.587   3.319  18.303  0.00  0.00    +0.000 C 
ATOM      2  C   UNL     1       4.429   3.182  17.027  0.00  0.00    +0.000 C 
ATOM      3  C   UNL     1       4.663   4.484  16.260  0.00  0.00    +0.000 C 
ATOM      4  C   UNL     1       5.272   5.613  17.090  0.00  0.00    +0.000 C 
ATOM      5  N   UNL     1       4.287   6.211  17.991  0.00  0.00    +0.000 N 
ATOM      6  C   UNL     1       3.572   7.325  17.514  0.00  0.00    +0.000 C 
ATOM      7  O   UNL     1       3.692   7.735  16.358  0.00  0.00    +0.000 OA
ATOM      8  C   UNL     1       4.076   5.584  19.292  0.00  0.00    +0.000 C 
ATOM      9  C   UNL     1       4.328   4.089  19.394  0.00  0.00    +0.000 C 
ENDROOT
BRANCH   6  10
ATOM     10  C   UNL     1       2.597   8.045  18.385  0.00  0.00    +0.000 A 
ATOM     11  C   UNL     1       1.977   9.229  17.997  0.00  0.00    +0.000 A 
ATOM     12  C   UNL     1       1.181   9.941  18.892  0.00  0.00    +0.000 A 
ATOM     13  C   UNL     1       0.851   9.428  20.157  0.00  0.00    +0.000 A 
ATOM     14  C   UNL     1       1.394   8.175  20.495  0.00  0.00    +0.000 A 
ATOM     15  C   UNL     1       2.271   7.502  19.635  0.00  0.00    +0.000 A 
BRANCH  13  16
ATOM     16  C   UNL     1      -0.052  10.184  21.056  0.00  0.00    +0.000 A 
ATOM     17  C   UNL     1      -0.754  11.318  20.594  0.00  0.00    +0.000 A 
ATOM     18  C   UNL     1      -1.581  12.067  21.432  0.00  0.00    +0.000 A 
ATOM     19  C   UNL     1      -1.751  11.686  22.756  0.00  0.00    +0.000 A 
ATOM     20  C   UNL     1      -1.086  10.563  23.239  0.00  0.00    +0.000 A 
ATOM     21  C   UNL     1      -0.241   9.827  22.403  0.00  0.00    +0.000 A 
ENDBRANCH  13  16
ENDBRANCH   6  10
BRANCH   1  22
ATOM     22  C   UNL     1       3.276   1.925  18.803  0.00  0.00    +0.000 C 
ATOM     23  O   UNL     1       3.820   0.906  18.403  0.00  0.00    +0.000 OA
BRANCH  22  24
ATOM     24  O   UNL     1       2.222   1.977  19.663  0.00  0.00    +0.000 OA
BRANCH  24  26
ATOM     25  C   UNL     1       0.742   3.754  20.233  0.00  0.00    +0.000 C 
ATOM     26  C   UNL     1       1.093   2.713  19.183  0.00  0.00    +0.000 C 
ENDBRANCH  24  26
ENDBRANCH  22  24
ENDBRANCH   1  22
TORSDOF 5
ENDMDL
MODEL 2
REMARK VINA RESULT:      -8.1      4.058      8.830
REMARK  Name = 
REMARK  6 active torsions:
REMARK  status: ('A' for Active; 'I' for Inactive)
REMARK    1  A    between atoms: C_1  and  C_2
REMARK    2  A    between atoms: C_2  and  O_3
REMARK    3  A    between atoms: O_3  and  C_4
REMARK    4  A    between atoms: C_4  and  C_6
REMARK    5  A    between atoms: C_11  and  C_13
REMARK    6  A    between atoms: C_16  and  C_17
REMARK                            x       y       z     vdW  Elec       q    Type
REMARK                         _______ _______ _______ _____ _____    ______ ____
ROOT
ATOM      1  C   UNL     1      -3.132  11.497  18.713  0.00  0.00    +0.000 C 
ATOM      2  C   UNL     1      -3.378  12.468  19.875  0.00  0.00    +0.000 C 
ATOM      3  C   UNL     1      -2.274  12.511  20.932  0.00  0.00    +0.000 C 
ATOM      4  C   UNL     1      -0.878  12.800  20.385  0.00  0.00    +0.000 C 
ATOM      5  N   UNL     1      -0.314  11.633  19.708  0.00  0.00    +0.000 N 
ATOM      6  C   UNL     1       0.475  10.760  20.480  0.00  0.00    +0.000 C 
ATOM      7  O   UNL     1       0.618  10.907  21.695  0.00  0.00    +0.000 OA
ATOM      8  C   UNL     1      -0.647  11.426  18.301  0.00  0.00    +0.000 C 
ATOM      9  C   UNL     1      -1.985  11.960  17.818  0.00  0.00    +0.000 C 
ENDROOT
BRANCH   6  10
ATOM     10  C   UNL     1       1.150   9.581  19.861  0.00  0.00    +0.000 A 
ATOM     11  C   UNL     1       1.594   9.579  18.542  0.00  0.00    +0.000 A 
ATOM     12  C   UNL     1       2.093   8.414  17.961  0.00  0.00    +0.000 A 
ATOM     13  C   UNL     1       2.308   7.248  18.712  0.00  0.00    +0.000 A 
ATOM     14  C   UNL     1       1.959   7.297  20.074  0.00  0.00    +0.000 A 
ATOM     15  C   UNL     1       1.369   8.436  20.638  0.00  0.00    +0.000 A 
BRANCH  13  16
ATOM     16  C   UNL     1       2.901   6.049  18.076  0.00  0.00    +0.000 A 
ATOM     17  C   UNL     1       2.166   4.850  17.959  0.00  0.00    +0.000 A 
ATOM     18  C   UNL     1       2.716   3.697  17.397  0.00  0.00    +0.000 A 
ATOM     19  C   UNL     1       4.015   3.720  16.908  0.00  0.00    +0.000 A 
ATOM     20  C   UNL     1       4.762   4.890  16.992  0.00  0.00    +0.000 A 
ATOM     21  C   UNL     1       4.215   6.037  17.576  0.00  0.00    +0.000 A 
ENDBRANCH  13  16
ENDBRANCH   6  10
BRANCH   1  22
ATOM     22  C   UNL     1      -4.402  11.423  17.895  0.00  0.00    +0.000 C 
ATOM     23  O   UNL     1      -4.449  11.127  16.709  0.00  0.00    +0.000 OA
BRANCH  22  24
ATOM     24  O   UNL     1      -5.451  11.856  18.646  0.00  0.00    +0.000 OA
BRANCH  24  26
ATOM     25  C   UNL     1      -6.872   9.996  19.089  0.00  0.00    +0.000 C 
ATOM     26  C   UNL     1      -6.715  11.282  18.297  0.00  0.00    +0.000 C 
ENDBRANCH  24  26
ENDBRANCH  22  24
ENDBRANCH   1  22
TORSDOF 5
ENDMDL
MODEL 3
REMARK VINA RESULT:      -8.1      3.900      8.691
REMARK  Name = 
REMARK  6 active torsions:
REMARK  status: ('A' for Active; 'I' for Inactive)
REMARK    1  A    between atoms: C_1  and  C_2
REMARK    2  A    between atoms: C_2  and  O_3
REMARK    3  A    between atoms: O_3  and  C_4
REMARK    4  A    between atoms: C_4  and  C_6
REMARK    5  A    between atoms: C_11  and  C_13
REMARK    6  A    between atoms: C_16  and  C_17
REMARK                            x       y       z     vdW  Elec       q    Type
REMARK                         _______ _______ _______ _____ _____    ______ ____
ROOT
ATOM      1  C   UNL     1      -2.863  11.589  18.864  0.00  0.00    +0.000 C 
ATOM      2  C   UNL     1      -3.087  12.526  20.058  0.00  0.00    +0.000 C 
ATOM      3  C   UNL     1      -2.004  12.476  21.137  0.00  0.00    +0.000 C 
ATOM      4  C   UNL     1      -0.584  12.717  20.628  0.00  0.00    +0.000 C 
ATOM      5  N   UNL     1      -0.063  11.550  19.917  0.00  0.00    +0.000 N 
ATOM      6  C   UNL     1       0.667  10.611  20.670  0.00  0.00    +0.000 C 
ATOM      7  O   UNL     1       0.791  10.705  21.892  0.00  0.00    +0.000 OA
ATOM      8  C   UNL     1      -0.376  11.412  18.497  0.00  0.00    +0.000 C 
ATOM      9  C   UNL     1      -1.677  12.029  18.010  0.00  0.00    +0.000 C 
ENDROOT
BRANCH   6  10
ATOM     10  C   UNL     1       1.297   9.426  20.019  0.00  0.00    +0.000 A 
ATOM     11  C   UNL     1       1.766   9.450  18.708  0.00  0.00    +0.000 A 
ATOM     12  C   UNL     1       2.220   8.285  18.093  0.00  0.00    +0.000 A 
ATOM     13  C   UNL     1       2.366   7.083  18.803  0.00  0.00    +0.000 A 
ATOM     14  C   UNL     1       1.994   7.099  20.160  0.00  0.00    +0.000 A 
ATOM     15  C   UNL     1       1.447   8.243  20.755  0.00  0.00    +0.000 A 
BRANCH  13  16
ATOM     16  C   UNL     1       2.914   5.881  18.133  0.00  0.00    +0.000 A 
ATOM     17  C   UNL     1       4.217   5.883  17.591  0.00  0.00    +0.000 A 
ATOM     18  C   UNL     1       4.741   4.776  16.922  0.00  0.00    +0.000 A 
ATOM     19  C   UNL     1       3.982   3.620  16.800  0.00  0.00    +0.000 A 
ATOM     20  C   UNL     1       2.699   3.579  17.336  0.00  0.00    +0.000 A 
ATOM     21  C   UNL     1       2.169   4.698  17.987  0.00  0.00    +0.000 A 
ENDBRANCH  13  16
ENDBRANCH   6  10
BRANCH   1  22
ATOM     22  C   UNL     1      -4.118  11.608  18.020  0.00  0.00    +0.000 C 
ATOM     23  O   UNL     1      -5.056  12.375  18.186  0.00  0.00    +0.000 OA
BRANCH  22  24
ATOM     24  O   UNL     1      -4.090  10.568  17.142  0.00  0.00    +0.000 OA
BRANCH  24  26
ATOM     25  C   UNL     1      -2.997  10.126  15.072  0.00  0.00    +0.000 C 
ATOM     26  C   UNL     1      -4.071  10.948  15.763  0.00  0.00    +0.000 C 
ENDBRANCH  24  26
ENDBRANCH  22  24
ENDBRANCH   1  22
TORSDOF 5
ENDMDL
MODEL 4
REMARK VINA RESULT:      -8.0      3.653      8.548
REMARK  Name = 
REMARK  6 active torsions:
REMARK  status: ('A' for Active; 'I' for Inactive)
REMARK    1  A    between atoms: C_1  and  C_2
REMARK    2  A    between atoms: C_2  and  O_3
REMARK    3  A    between atoms: O_3  and  C_4
REMARK    4  A    between atoms: C_4  and  C_6
REMARK    5  A    between atoms: C_11  and  C_13
REMARK    6  A    between atoms: C_16  and  C_17
REMARK                            x       y       z     vdW  Elec       q    Type
REMARK                         _______ _______ _______ _____ _____    ______ ____
ROOT
ATOM      1  C   UNL     1      -2.240  11.117  18.943  0.00  0.00    +0.000 C 
ATOM      2  C   UNL     1      -2.193  12.260  19.966  0.00  0.00    +0.000 C 
ATOM      3  C   UNL     1      -1.076  12.158  21.005  0.00  0.00    +0.000 C 
ATOM      4  C   UNL     1       0.328  12.010  20.421  0.00  0.00    +0.000 C 
ATOM      5  N   UNL     1       0.556  10.661  19.904  0.00  0.00    +0.000 N 
ATOM      6  C   UNL     1       1.128   9.724  20.784  0.00  0.00    +0.000 C 
ATOM      7  O   UNL     1       1.347   9.984  21.968  0.00  0.00    +0.000 OA
ATOM      8  C   UNL     1       0.132  10.367  18.539  0.00  0.00    +0.000 C 
ATOM      9  C   UNL     1      -1.046  11.156  17.992  0.00  0.00    +0.000 C 
ENDROOT
BRANCH   6  10
ATOM     10  C   UNL     1       1.463   8.343  20.326  0.00  0.00    +0.000 A 
ATOM     11  C   UNL     1       1.134   7.209  21.062  0.00  0.00    +0.000 A 
ATOM     12  C   UNL     1       1.585   5.950  20.669  0.00  0.00    +0.000 A 
ATOM     13  C   UNL     1       2.255   5.752  19.451  0.00  0.00    +0.000 A 
ATOM     14  C   UNL     1       2.483   6.893  18.660  0.00  0.00    +0.000 A 
ATOM     15  C   UNL     1       2.115   8.172  19.097  0.00  0.00    +0.000 A 
BRANCH  13  16
ATOM     16  C   UNL     1       2.662   4.390  19.035  0.00  0.00    +0.000 A 
ATOM     17  C   UNL     1       3.650   3.678  19.749  0.00  0.00    +0.000 A 
ATOM     18  C   UNL     1       4.076   2.409  19.355  0.00  0.00    +0.000 A 
ATOM     19  C   UNL     1       3.504   1.801  18.246  0.00  0.00    +0.000 A 
ATOM     20  C   UNL     1       2.515   2.469  17.530  0.00  0.00    +0.000 A 
ATOM     21  C   UNL     1       2.105   3.749  17.914  0.00  0.00    +0.000 A 
ENDBRANCH  13  16
ENDBRANCH   6  10
BRANCH   1  22
ATOM     22  C   UNL     1      -3.517  11.263  18.145  0.00  0.00    +0.000 C 
ATOM     23  O   UNL     1      -4.446  11.998  18.449  0.00  0.00    +0.000 OA
BRANCH  22  24
ATOM     24  O   UNL     1      -3.516  10.367  17.121  0.00  0.00    +0.000 OA
BRANCH  24  26
ATOM     25  C   UNL     1      -2.998  10.222  14.800  0.00  0.00    +0.000 C 
ATOM     26  C   UNL     1      -3.856  10.916  15.843  0.00  0.00    +0.000 C 
ENDBRANCH  24  26
ENDBRANCH  22  24
ENDBRANCH   1  22
TORSDOF 5
ENDMDL
MODEL 5
REMARK VINA RESULT:      -8.0      4.847      6.661
REMARK  Name = 
REMARK  6 active torsions:
REMARK  status: ('A' for Active; 'I' for Inactive)
REMARK    1  A    between atoms: C_1  and  C_2
REMARK    2  A    between atoms: C_2  and  O_3
REMARK    3  A    between atoms: O_3  and  C_4
REMARK    4  A    between atoms: C_4  and  C_6
REMARK    5  A    between atoms: C_11  and  C_13
REMARK    6  A    between atoms: C_16  and  C_17
REMARK                            x       y       z     vdW  Elec       q    Type
REMARK                         _______ _______ _______ _____ _____    ______ ____
ROOT
ATOM      1  C   UNL     1       3.430   5.129  18.669  0.00  0.00    +0.000 C 
ATOM      2  C   UNL     1       3.269   4.143  17.504  0.00  0.00    +0.000 C 
ATOM      3  C   UNL     1       4.387   4.179  16.461  0.00  0.00    +0.000 C 
ATOM      4  C   UNL     1       5.794   3.992  17.027  0.00  0.00    +0.000 C 
ATOM      5  N   UNL     1       6.263   5.197  17.711  0.00  0.00    +0.000 N 
ATOM      6  C   UNL     1       6.997   6.124  16.948  0.00  0.00    +0.000 C 
ATOM      7  O   UNL     1       7.166   5.988  15.736  0.00  0.00    +0.000 OA
ATOM      8  C   UNL     1       5.898   5.379  19.113  0.00  0.00    +0.000 C 
ATOM      9  C   UNL     1       4.595   4.750  19.579  0.00  0.00    +0.000 C 
ENDROOT
BRANCH   6  10
ATOM     10  C   UNL     1       7.577   7.348  17.575  0.00  0.00    +0.000 A 
ATOM     11  C   UNL     1       7.329   8.628  17.089  0.00  0.00    +0.000 A 
ATOM     12  C   UNL     1       7.999   9.731  17.616  0.00  0.00    +0.000 A 
ATOM     13  C   UNL     1       8.827   9.623  18.744  0.00  0.00    +0.000 A 
ATOM     14  C   UNL     1       8.982   8.339  19.297  0.00  0.00    +0.000 A 
ATOM     15  C   UNL     1       8.386   7.214  18.711  0.00  0.00    +0.000 A 
BRANCH  13  16
ATOM     16  C   UNL     1       9.471  10.829  19.316  0.00  0.00    +0.000 A 
ATOM     17  C   UNL     1       9.430  11.085  20.703  0.00  0.00    +0.000 A 
ATOM     18  C   UNL     1       9.996  12.232  21.260  0.00  0.00    +0.000 A 
ATOM     19  C   UNL     1      10.647  13.147  20.444  0.00  0.00    +0.000 A 
ATOM     20  C   UNL     1      10.720  12.917  19.074  0.00  0.00    +0.000 A 
ATOM     21  C   UNL     1      10.133  11.777  18.516  0.00  0.00    +0.000 A 
ENDBRANCH  13  16
ENDBRANCH   6  10
BRANCH   1  22
ATOM     22  C   UNL     1       2.147   5.111  19.470  0.00  0.00    +0.000 C 
ATOM     23  O   UNL     1       1.689   6.072  20.071  0.00  0.00    +0.000 OA
BRANCH  22  24
ATOM     24  O   UNL     1       1.659   3.841  19.516  0.00  0.00    +0.000 OA
BRANCH  24  26
ATOM     25  C   UNL     1       2.239   2.761  21.559  0.00  0.00    +0.000 C 
ATOM     26  C   UNL     1       1.128   3.450  20.786  0.00  0.00    +0.000 C 
ENDBRANCH  24  26
ENDBRANCH  22  24
ENDBRANCH   1  22
TORSDOF 5
ENDMDL
MODEL 6
REMARK VINA RESULT:      -8.0      3.690      8.481
REMARK  Name = 
REMARK  6 active torsions:
REMARK  status: ('A' for Active; 'I' for Inactive)
REMARK    1  A    between atoms: C_1  and  C_2
REMARK    2  A    between atoms: C_2  and  O_3
REMARK    3  A    between atoms: O_3  and  C_4
REMARK    4  A    between atoms: C_4  and  C_6
REMARK    5  A    between atoms: C_11  and  C_13
REMARK    6  A    between atoms: C_16  and  C_17
REMARK                            x       y       z     vdW  Elec       q    Type
REMARK                         _______ _______ _______ _____ _____    ______ ____
ROOT
ATOM      1  C   UNL     1      -2.350  11.151  18.865  0.00  0.00    +0.000 C 
ATOM      2  C   UNL     1      -2.406  12.255  19.930  0.00  0.00    +0.000 C 
ATOM      3  C   UNL     1      -1.322  12.177  21.006  0.00  0.00    +0.000 C 
ATOM      4  C   UNL     1       0.108  12.133  20.469  0.00  0.00    +0.000 C 
ATOM      5  N   UNL     1       0.433  10.820  19.912  0.00  0.00    +0.000 N 
ATOM      6  C   UNL     1       1.028   9.884  20.778  0.00  0.00    +0.000 C 
ATOM      7  O   UNL     1       1.190  10.111  21.978  0.00  0.00    +0.000 OA
ATOM      8  C   UNL     1       0.074  10.554  18.522  0.00  0.00    +0.000 C 
ATOM      9  C   UNL     1      -1.128  11.295  17.961  0.00  0.00    +0.000 C 
ENDROOT
BRANCH   6  10
ATOM     10  C   UNL     1       1.460   8.544  20.283  0.00  0.00    +0.000 A 
ATOM     11  C   UNL     1       2.089   8.365  19.055  0.00  0.00    +0.000 A 
ATOM     12  C   UNL     1       2.351   7.085  18.569  0.00  0.00    +0.000 A 
ATOM     13  C   UNL     1       2.132   5.939  19.349  0.00  0.00    +0.000 A 
ATOM     14  C   UNL     1       1.599   6.141  20.636  0.00  0.00    +0.000 A 
ATOM     15  C   UNL     1       1.246   7.418  21.090  0.00  0.00    +0.000 A 
BRANCH  13  16
ATOM     16  C   UNL     1       2.483   4.600  18.824  0.00  0.00    +0.000 A 
ATOM     17  C   UNL     1       3.613   4.417  17.998  0.00  0.00    +0.000 A 
ATOM     18  C   UNL     1       3.943   3.172  17.461  0.00  0.00    +0.000 A 
ATOM     19  C   UNL     1       3.163   2.063  17.758  0.00  0.00    +0.000 A 
ATOM     20  C   UNL     1       2.050   2.205  18.582  0.00  0.00    +0.000 A 
ATOM     21  C   UNL     1       1.710   3.458  19.101  0.00  0.00    +0.000 A 
ENDBRANCH  13  16
ENDBRANCH   6  10
BRANCH   1  22
ATOM     22  C   UNL     1      -3.604  11.254  18.026  0.00  0.00    +0.000 C 
ATOM     23  O   UNL     1      -4.568  11.956  18.299  0.00  0.00    +0.000 OA
BRANCH  22  24
ATOM     24  O   UNL     1      -3.541  10.358  17.004  0.00  0.00    +0.000 OA
BRANCH  24  26
ATOM     25  C   UNL     1      -3.079  10.120  14.678  0.00  0.00    +0.000 C 
ATOM     26  C   UNL     1      -3.875  10.891  15.718  0.00  0.00    +0.000 C 
ENDBRANCH  24  26
ENDBRANCH  22  24
ENDBRANCH   1  22
TORSDOF 5
ENDMDL
MODEL 7
REMARK VINA RESULT:      -7.9      2.447      4.312
REMARK  Name = 
REMARK  6 active torsions:
REMARK  status: ('A' for Active; 'I' for Inactive)
REMARK    1  A    between atoms: C_1  and  C_2
REMARK    2  A    between atoms: C_2  and  O_3
REMARK    3  A    between atoms: O_3  and  C_4
REMARK    4  A    between atoms: C_4  and  C_6
REMARK    5  A    between atoms: C_11  and  C_13
REMARK    6  A    between atoms: C_16  and  C_17
REMARK                            x       y       z     vdW  Elec       q    Type
REMARK                         _______ _______ _______ _____ _____    ______ ____
ROOT
ATOM      1  C   UNL     1       5.916   5.382  17.567  0.00  0.00    +0.000 C 
ATOM      2  C   UNL     1       5.956   4.055  18.337  0.00  0.00    +0.000 C 
ATOM      3  C   UNL     1       4.830   3.858  19.353  0.00  0.00    +0.000 C 
ATOM      4  C   UNL     1       3.422   4.013  18.783  0.00  0.00    +0.000 C 
ATOM      5  N   UNL     1       3.089   5.417  18.544  0.00  0.00    +0.000 N 
ATOM      6  C   UNL     1       2.441   6.109  19.584  0.00  0.00    +0.000 C 
ATOM      7  O   UNL     1       2.239   5.597  20.686  0.00  0.00    +0.000 OA
ATOM      8  C   UNL     1       3.494   6.014  17.275  0.00  0.00    +0.000 C 
ATOM      9  C   UNL     1       4.734   5.445  16.604  0.00  0.00    +0.000 C 
ENDROOT
BRANCH   6  10
ATOM     10  C   UNL     1       1.999   7.524  19.408  0.00  0.00    +0.000 A 
ATOM     11  C   UNL     1       2.127   8.204  18.201  0.00  0.00    +0.000 A 
ATOM     12  C   UNL     1       1.831   9.564  18.115  0.00  0.00    +0.000 A 
ATOM     13  C   UNL     1       1.256  10.263  19.188  0.00  0.00    +0.000 A 
ATOM     14  C   UNL     1       1.027   9.536  20.370  0.00  0.00    +0.000 A 
ATOM     15  C   UNL     1       1.411   8.194  20.489  0.00  0.00    +0.000 A 
BRANCH  13  16
ATOM     16  C   UNL     1       0.895  11.692  19.039  0.00  0.00    +0.000 A 
ATOM     17  C   UNL     1       1.864  12.653  18.678  0.00  0.00    +0.000 A 
ATOM     18  C   UNL     1       1.555  14.009  18.568  0.00  0.00    +0.000 A 
ATOM     19  C   UNL     1       0.255  14.442  18.790  0.00  0.00    +0.000 A 
ATOM     20  C   UNL     1      -0.729  13.519  19.131  0.00  0.00    +0.000 A 
ATOM     21  C   UNL     1      -0.411  12.163  19.262  0.00  0.00    +0.000 A 
ENDBRANCH  13  16
ENDBRANCH   6  10
BRANCH   1  22
ATOM     22  C   UNL     1       7.204   5.500  16.782  0.00  0.00    +0.000 C 
ATOM     23  O   UNL     1       7.834   4.552  16.335  0.00  0.00    +0.000 OA
BRANCH  22  24
ATOM     24  O   UNL     1       7.607   6.800  16.765  0.00  0.00    +0.000 OA
BRANCH  24  26
ATOM     25  C   UNL     1       8.138   8.853  17.850  0.00  0.00    +0.000 C 
ATOM     26  C   UNL     1       7.777   7.392  18.057  0.00  0.00    +0.000 C 
ENDBRANCH  24  26
ENDBRANCH  22  24
ENDBRANCH   1  22
TORSDOF 5
ENDMDL
MODEL 8
REMARK VINA RESULT:      -7.9      4.020      9.022
REMARK  Name = 
REMARK  6 active torsions:
REMARK  status: ('A' for Active; 'I' for Inactive)
REMARK    1  A    between atoms: C_1  and  C_2
REMARK    2  A    between atoms: C_2  and  O_3
REMARK    3  A    between atoms: O_3  and  C_4
REMARK    4  A    between atoms: C_4  and  C_6
REMARK    5  A    between atoms: C_11  and  C_13
REMARK    6  A    between atoms: C_16  and  C_17
REMARK                            x       y       z     vdW  Elec       q    Type
REMARK                         _______ _______ _______ _____ _____    ______ ____
ROOT
ATOM      1  C   UNL     1      -2.961  11.633  18.860  0.00  0.00    +0.000 C 
ATOM      2  C   UNL     1      -3.150  12.560  20.068  0.00  0.00    +0.000 C 
ATOM      3  C   UNL     1      -2.053  12.477  21.130  0.00  0.00    +0.000 C 
ATOM      4  C   UNL     1      -0.636  12.696  20.603  0.00  0.00    +0.000 C 
ATOM      5  N   UNL     1      -0.147  11.529  19.870  0.00  0.00    +0.000 N 
ATOM      6  C   UNL     1       0.575  10.568  20.602  0.00  0.00    +0.000 C 
ATOM      7  O   UNL     1       0.719  10.645  21.823  0.00  0.00    +0.000 OA
ATOM      8  C   UNL     1      -0.484  11.414  18.454  0.00  0.00    +0.000 C 
ATOM      9  C   UNL     1      -1.780  12.061  17.993  0.00  0.00    +0.000 C 
ENDROOT
BRANCH   6  10
ATOM     10  C   UNL     1       1.173   9.378  19.928  0.00  0.00    +0.000 A 
ATOM     11  C   UNL     1       1.398   8.175  20.590  0.00  0.00    +0.000 A 
ATOM     12  C   UNL     1       2.083   7.135  19.964  0.00  0.00    +0.000 A 
ATOM     13  C   UNL     1       2.442   7.197  18.608  0.00  0.00    +0.000 A 
ATOM     14  C   UNL     1       2.109   8.376  17.918  0.00  0.00    +0.000 A 
ATOM     15  C   UNL     1       1.505   9.460  18.568  0.00  0.00    +0.000 A 
BRANCH  13  16
ATOM     16  C   UNL     1       3.112   6.045  17.961  0.00  0.00    +0.000 A 
ATOM     17  C   UNL     1       4.384   6.186  17.366  0.00  0.00    +0.000 A 
ATOM     18  C   UNL     1       5.019   5.126  16.718  0.00  0.00    +0.000 A 
ATOM     19  C   UNL     1       4.407   3.881  16.669  0.00  0.00    +0.000 A 
ATOM     20  C   UNL     1       3.160   3.703  17.260  0.00  0.00    +0.000 A 
ATOM     21  C   UNL     1       2.517   4.773  17.890  0.00  0.00    +0.000 A 
ENDBRANCH  13  16
ENDBRANCH   6  10
BRANCH   1  22
ATOM     22  C   UNL     1      -4.228  11.686  18.035  0.00  0.00    +0.000 C 
ATOM     23  O   UNL     1      -4.283  11.476  16.831  0.00  0.00    +0.000 OA
BRANCH  22  24
ATOM     24  O   UNL     1      -5.257  12.121  18.811  0.00  0.00    +0.000 OA
BRANCH  24  26
ATOM     25  C   UNL     1      -7.442  12.776  18.123  0.00  0.00    +0.000 C 
ATOM     26  C   UNL     1      -6.541  11.599  18.454  0.00  0.00    +0.000 C 
ENDBRANCH  24  26
ENDBRANCH  22  24
ENDBRANCH   1  22
TORSDOF 5
ENDMDL
MODEL 9
REMARK VINA RESULT:      -7.8      4.629      6.641
REMARK  Name = 
REMARK  6 active torsions:
REMARK  status: ('A' for Active; 'I' for Inactive)
REMARK    1  A    between atoms: C_1  and  C_2
REMARK    2  A    between atoms: C_2  and  O_3
REMARK    3  A    between atoms: O_3  and  C_4
REMARK    4  A    between atoms: C_4  and  C_6
REMARK    5  A    between atoms: C_11  and  C_13
REMARK    6  A    between atoms: C_16  and  C_17
REMARK                            x       y       z     vdW  Elec       q    Type
REMARK                         _______ _______ _______ _____ _____    ______ ____
ROOT
ATOM      1  C   UNL     1       3.183   5.113  18.993  0.00  0.00    +0.000 C 
ATOM      2  C   UNL     1       2.807   4.196  17.821  0.00  0.00    +0.000 C 
ATOM      3  C   UNL     1       3.798   4.189  16.656  0.00  0.00    +0.000 C 
ATOM      4  C   UNL     1       5.239   3.865  17.046  0.00  0.00    +0.000 C 
ATOM      5  N   UNL     1       5.884   4.995  17.712  0.00  0.00    +0.000 N 
ATOM      6  C   UNL     1       6.602   5.894  16.902  0.00  0.00    +0.000 C 
ATOM      7  O   UNL     1       6.619   5.800  15.674  0.00  0.00    +0.000 OA
ATOM      8  C   UNL     1       5.698   5.143  19.153  0.00  0.00    +0.000 C 
ATOM      9  C   UNL     1       4.408   4.600  19.746  0.00  0.00    +0.000 C 
ENDROOT
BRANCH   6  10
ATOM     10  C   UNL     1       7.352   7.038  17.499  0.00  0.00    +0.000 A 
ATOM     11  C   UNL     1       8.234   6.882  18.564  0.00  0.00    +0.000 A 
ATOM     12  C   UNL     1       8.808   7.992  19.181  0.00  0.00    +0.000 A 
ATOM     13  C   UNL     1       8.643   9.289  18.670  0.00  0.00    +0.000 A 
ATOM     14  C   UNL     1       7.838   9.422  17.524  0.00  0.00    +0.000 A 
ATOM     15  C   UNL     1       7.184   8.320  16.958  0.00  0.00    +0.000 A 
BRANCH  13  16
ATOM     16  C   UNL     1       9.322  10.437  19.315  0.00  0.00    +0.000 A 
ATOM     17  C   UNL     1       9.128  10.719  20.684  0.00  0.00    +0.000 A 
ATOM     18  C   UNL     1       9.727  11.817  21.305  0.00  0.00    +0.000 A 
ATOM     19  C   UNL     1      10.563  12.651  20.576  0.00  0.00    +0.000 A 
ATOM     20  C   UNL     1      10.788  12.392  19.227  0.00  0.00    +0.000 A 
ATOM     21  C   UNL     1      10.169  11.305  18.603  0.00  0.00    +0.000 A 
ENDBRANCH  13  16
ENDBRANCH   6  10
BRANCH   1  22
ATOM     22  C   UNL     1       2.003   5.162  19.939  0.00  0.00    +0.000 C 
ATOM     23  O   UNL     1       1.752   6.094  20.689  0.00  0.00    +0.000 OA
BRANCH  22  24
ATOM     24  O   UNL     1       1.350   3.969  19.910  0.00  0.00    +0.000 OA
BRANCH  24  26
ATOM     25  C   UNL     1       2.350   2.565  21.555  0.00  0.00    +0.000 C 
ATOM     26  C   UNL     1       1.120   3.381  21.195  0.00  0.00    +0.000 C 
ENDBRANCH  24  26
ENDBRANCH  22  24
ENDBRANCH   1  22
TORSDOF 5
ENDMDL
