MODEL 1
REMARK VINA RESULT:      -6.9      0.000      0.000
REMARK  Name = 
REMARK  7 active torsions:
REMARK  status: ('A' for Active; 'I' for Inactive)
REMARK    1  A    between atoms: C_1  and  C_2
REMARK    2  A    between atoms: C_2  and  C_3
REMARK    3  A    between atoms: C_3  and  C_4
REMARK    4  A    between atoms: C_4  and  C_5
REMARK    5  A    between atoms: C_5  and  O_6
REMARK    6  A    between atoms: O_6  and  C_7
REMARK    7  A    between atoms: C_8  and  C_9
REMARK                            x       y       z     vdW  Elec       q    Type
REMARK                         _______ _______ _______ _____ _____    ______ ____
ROOT
ATOM      1  C   UNL     1       3.741   4.954  19.601  0.00  0.00    +0.000 C 
ATOM      2  C   UNL     1       3.891   5.863  18.604  0.00  0.00    +0.000 C 
ATOM      3  C   UNL     1       3.048   7.090  18.535  0.00  0.00    +0.000 A 
ATOM      4  C   UNL     1       3.208   8.029  17.499  0.00  0.00    +0.000 A 
ATOM      5  C   UNL     1       2.454   9.208  17.462  0.00  0.00    +0.000 A 
ATOM      6  C   UNL     1       1.520   9.477  18.459  0.00  0.00    +0.000 A 
ATOM      7  C   UNL     1       1.331   8.558  19.481  0.00  0.00    +0.000 A 
ATOM      8  C   UNL     1       2.088   7.377  19.510  0.00  0.00    +0.000 A 
ATOM      9  C   UNL     1       1.858   6.426  20.599  0.00  0.00    +0.000 C 
ATOM     10  O   UNL     1       1.023   6.651  21.465  0.00  0.00    +0.000 OA
ATOM     11  C   UNL     1       2.662   5.152  20.631  0.00  0.00    +0.000 C 
ATOM     12  O   UNL     1       2.384   4.333  21.498  0.00  0.00    +0.000 OA
ENDROOT
BRANCH   2  13
ATOM     13  C   UNL     1       4.954   5.549  17.606  0.00  0.00    +0.000 A 
ATOM     14  C   UNL     1       6.245   6.078  17.760  0.00  0.00    +0.000 A 
ATOM     15  C   UNL     1       7.214   5.867  16.776  0.00  0.00    +0.000 A 
ATOM     16  C   UNL     1       6.904   5.123  15.638  0.00  0.00    +0.000 A 
ATOM     17  C   UNL     1       5.632   4.571  15.491  0.00  0.00    +0.000 A 
ATOM     18  C   UNL     1       4.660   4.780  16.472  0.00  0.00    +0.000 A 
ENDBRANCH   2  13
BRANCH   1  19
ATOM     19  O   UNL     1       4.597   3.844  19.634  0.00  0.00    +0.000 OA
BRANCH  19  20
ATOM     20  C   UNL     1       4.018   2.549  19.760  0.00  0.00    +0.000 C 
BRANCH  20  21
ATOM     21  C   UNL     1       3.205   2.225  18.511  0.00  0.00    +0.000 C 
BRANCH  21  22
ATOM     22  C   UNL     1       1.794   1.790  18.906  0.00  0.00    +0.000 C 
BRANCH  22  24
ATOM     23  C   UNL     1       1.232   3.834  17.561  0.00  0.00    +0.000 C 
ATOM     24  C   UNL     1       0.764   2.886  18.655  0.00  0.00    +0.000 C 
ENDBRANCH  22  24
ENDBRANCH  21  22
ENDBRANCH  20  21
ENDBRANCH  19  20
ENDBRANCH   1  19
TORSDOF 6
ENDMDL
MODEL 2
REMARK VINA RESULT:      -6.8      0.190      1.004
REMARK  Name = 
REMARK  7 active torsions:
REMARK  status: ('A' for Active; 'I' for Inactive)
REMARK    1  A    between atoms: C_1  and  C_2
REMARK    2  A    between atoms: C_2  and  C_3
REMARK    3  A    between atoms: C_3  and  C_4
REMARK    4  A    between atoms: C_4  and  C_5
REMARK    5  A    between atoms: C_5  and  O_6
REMARK    6  A    between atoms: O_6  and  C_7
REMARK    7  A    between atoms: C_8  and  C_9
REMARK                            x       y       z     vdW  Elec       q    Type
REMARK                         _______ _______ _______ _____ _____    ______ ____
ROOT
ATOM      1  C   UNL     1       3.748   4.869  19.616  0.00  0.00    +0.000 C 
ATOM      2  C   UNL     1       3.915   5.770  18.613  0.00  0.00    +0.000 C 
ATOM      3  C   UNL     1       3.086   7.005  18.530  0.00  0.00    +0.000 A 
ATOM      4  C   UNL     1       3.264   7.935  17.488  0.00  0.00    +0.000 A 
ATOM      5  C   UNL     1       2.523   9.122  17.437  0.00  0.00    +0.000 A 
ATOM      6  C   UNL     1       1.586   9.410  18.427  0.00  0.00    +0.000 A 
ATOM      7  C   UNL     1       1.380   8.500  19.454  0.00  0.00    +0.000 A 
ATOM      8  C   UNL     1       2.123   7.311  19.497  0.00  0.00    +0.000 A 
ATOM      9  C   UNL     1       1.875   6.371  20.590  0.00  0.00    +0.000 C 
ATOM     10  O   UNL     1       1.037   6.611  21.450  0.00  0.00    +0.000 OA
ATOM     11  C   UNL     1       2.664   5.087  20.637  0.00  0.00    +0.000 C 
ATOM     12  O   UNL     1       2.371   4.278  21.508  0.00  0.00    +0.000 OA
ENDROOT
BRANCH   2  13
ATOM     13  C   UNL     1       4.980   5.436  17.625  0.00  0.00    +0.000 A 
ATOM     14  C   UNL     1       4.673   4.677  16.485  0.00  0.00    +0.000 A 
ATOM     15  C   UNL     1       5.687   4.279  15.610  0.00  0.00    +0.000 A 
ATOM     16  C   UNL     1       7.010   4.641  15.862  0.00  0.00    +0.000 A 
ATOM     17  C   UNL     1       7.319   5.418  16.977  0.00  0.00    +0.000 A 
ATOM     18  C   UNL     1       6.309   5.818  17.855  0.00  0.00    +0.000 A 
ENDBRANCH   2  13
BRANCH   1  19
ATOM     19  O   UNL     1       4.590   3.750  19.662  0.00  0.00    +0.000 OA
BRANCH  19  20
ATOM     20  C   UNL     1       3.994   2.459  19.748  0.00  0.00    +0.000 C 
BRANCH  20  21
ATOM     21  C   UNL     1       3.151   2.199  18.505  0.00  0.00    +0.000 C 
BRANCH  21  22
ATOM     22  C   UNL     1       1.733   1.798  18.912  0.00  0.00    +0.000 C 
BRANCH  22  24
ATOM     23  C   UNL     1       1.211   3.839  17.546  0.00  0.00    +0.000 C 
ATOM     24  C   UNL     1       0.724   2.909  18.648  0.00  0.00    +0.000 C 
ENDBRANCH  22  24
ENDBRANCH  21  22
ENDBRANCH  20  21
ENDBRANCH  19  20
ENDBRANCH   1  19
TORSDOF 6
ENDMDL
MODEL 3
REMARK VINA RESULT:      -6.7      1.736      4.933
REMARK  Name = 
REMARK  7 active torsions:
REMARK  status: ('A' for Active; 'I' for Inactive)
REMARK    1  A    between atoms: C_1  and  C_2
REMARK    2  A    between atoms: C_2  and  C_3
REMARK    3  A    between atoms: C_3  and  C_4
REMARK    4  A    between atoms: C_4  and  C_5
REMARK    5  A    between atoms: C_5  and  O_6
REMARK    6  A    between atoms: O_6  and  C_7
REMARK    7  A    between atoms: C_8  and  C_9
REMARK                            x       y       z     vdW  Elec       q    Type
REMARK                         _______ _______ _______ _____ _____    ______ ____
ROOT
ATOM      1  C   UNL     1       2.729   4.780  17.677  0.00  0.00    +0.000 C 
ATOM      2  C   UNL     1       3.384   5.944  17.919  0.00  0.00    +0.000 C 
ATOM      3  C   UNL     1       4.823   6.114  17.575  0.00  0.00    +0.000 A 
ATOM      4  C   UNL     1       5.498   7.323  17.829  0.00  0.00    +0.000 A 
ATOM      5  C   UNL     1       6.836   7.503  17.457  0.00  0.00    +0.000 A 
ATOM      6  C   UNL     1       7.533   6.478  16.823  0.00  0.00    +0.000 A 
ATOM      7  C   UNL     1       6.896   5.270  16.578  0.00  0.00    +0.000 A 
ATOM      8  C   UNL     1       5.556   5.096  16.956  0.00  0.00    +0.000 A 
ATOM      9  C   UNL     1       4.916   3.807  16.689  0.00  0.00    +0.000 C 
ATOM     10  O   UNL     1       5.534   2.897  16.151  0.00  0.00    +0.000 OA
ATOM     11  C   UNL     1       3.480   3.610  17.101  0.00  0.00    +0.000 C 
ATOM     12  O   UNL     1       2.999   2.494  16.951  0.00  0.00    +0.000 OA
ENDROOT
BRANCH   2  13
ATOM     13  C   UNL     1       2.562   7.024  18.538  0.00  0.00    +0.000 A 
ATOM     14  C   UNL     1       2.107   8.098  17.758  0.00  0.00    +0.000 A 
ATOM     15  C   UNL     1       1.422   9.161  18.354  0.00  0.00    +0.000 A 
ATOM     16  C   UNL     1       1.182   9.154  19.728  0.00  0.00    +0.000 A 
ATOM     17  C   UNL     1       1.608   8.078  20.505  0.00  0.00    +0.000 A 
ATOM     18  C   UNL     1       2.292   7.014  19.913  0.00  0.00    +0.000 A 
ENDBRANCH   2  13
BRANCH   1  19
ATOM     19  O   UNL     1       1.363   4.701  17.983  0.00  0.00    +0.000 OA
BRANCH  19  20
ATOM     20  C   UNL     1       0.887   3.534  18.648  0.00  0.00    +0.000 C 
BRANCH  20  21
ATOM     21  C   UNL     1       0.809   3.795  20.148  0.00  0.00    +0.000 C 
BRANCH  21  22
ATOM     22  C   UNL     1       1.455   2.639  20.912  0.00  0.00    +0.000 C 
BRANCH  22  24
ATOM     23  C   UNL     1       3.910   2.409  20.439  0.00  0.00    +0.000 C 
ATOM     24  C   UNL     1       2.864   2.980  21.384  0.00  0.00    +0.000 C 
ENDBRANCH  22  24
ENDBRANCH  21  22
ENDBRANCH  20  21
ENDBRANCH  19  20
ENDBRANCH   1  19
TORSDOF 6
ENDMDL
MODEL 4
REMARK VINA RESULT:      -6.7      2.178      4.555
REMARK  Name = 
REMARK  7 active torsions:
REMARK  status: ('A' for Active; 'I' for Inactive)
REMARK    1  A    between atoms: C_1  and  C_2
REMARK    2  A    between atoms: C_2  and  C_3
REMARK    3  A    between atoms: C_3  and  C_4
REMARK    4  A    between atoms: C_4  and  C_5
REMARK    5  A    between atoms: C_5  and  O_6
REMARK    6  A    between atoms: O_6  and  C_7
REMARK    7  A    between atoms: C_8  and  C_9
REMARK                            x       y       z     vdW  Elec       q    Type
REMARK                         _______ _______ _______ _____ _____    ______ ____
ROOT
ATOM      1  C   UNL     1       2.595   6.596  18.379  0.00  0.00    +0.000 C 
ATOM      2  C   UNL     1       1.916   6.545  19.554  0.00  0.00    +0.000 C 
ATOM      3  C   UNL     1       1.323   7.767  20.165  0.00  0.00    +0.000 A 
ATOM      4  C   UNL     1       0.621   7.708  21.383  0.00  0.00    +0.000 A 
ATOM      5  C   UNL     1       0.017   8.845  21.933  0.00  0.00    +0.000 A 
ATOM      6  C   UNL     1       0.102  10.072  21.278  0.00  0.00    +0.000 A 
ATOM      7  C   UNL     1       0.805  10.160  20.086  0.00  0.00    +0.000 A 
ATOM      8  C   UNL     1       1.410   9.016  19.542  0.00  0.00    +0.000 A 
ATOM      9  C   UNL     1       2.149   9.146  18.286  0.00  0.00    +0.000 C 
ATOM     10  O   UNL     1       2.244  10.228  17.720  0.00  0.00    +0.000 OA
ATOM     11  C   UNL     1       2.809   7.924  17.703  0.00  0.00    +0.000 C 
ATOM     12  O   UNL     1       3.498   8.079  16.702  0.00  0.00    +0.000 OA
ENDROOT
BRANCH   2  13
ATOM     13  C   UNL     1       1.803   5.191  20.168  0.00  0.00    +0.000 A 
ATOM     14  C   UNL     1       0.817   4.295  19.727  0.00  0.00    +0.000 A 
ATOM     15  C   UNL     1       0.645   3.065  20.367  0.00  0.00    +0.000 A 
ATOM     16  C   UNL     1       1.458   2.719  21.445  0.00  0.00    +0.000 A 
ATOM     17  C   UNL     1       2.458   3.592  21.873  0.00  0.00    +0.000 A 
ATOM     18  C   UNL     1       2.634   4.822  21.236  0.00  0.00    +0.000 A 
ENDBRANCH   2  13
BRANCH   1  19
ATOM     19  O   UNL     1       3.089   5.403  17.834  0.00  0.00    +0.000 OA
BRANCH  19  20
ATOM     20  C   UNL     1       4.494   5.174  17.872  0.00  0.00    +0.000 C 
BRANCH  20  21
ATOM     21  C   UNL     1       4.781   3.698  17.615  0.00  0.00    +0.000 C 
BRANCH  21  22
ATOM     22  C   UNL     1       3.469   2.940  17.413  0.00  0.00    +0.000 C 
BRANCH  22  24
ATOM     23  C   UNL     1       4.393   1.816  19.458  0.00  0.00    +0.000 C 
ATOM     24  C   UNL     1       3.337   1.757  18.365  0.00  0.00    +0.000 C 
ENDBRANCH  22  24
ENDBRANCH  21  22
ENDBRANCH  20  21
ENDBRANCH  19  20
ENDBRANCH   1  19
TORSDOF 6
ENDMDL
MODEL 5
REMARK VINA RESULT:      -6.6      2.125      4.971
REMARK  Name = 
REMARK  7 active torsions:
REMARK  status: ('A' for Active; 'I' for Inactive)
REMARK    1  A    between atoms: C_1  and  C_2
REMARK    2  A    between atoms: C_2  and  C_3
REMARK    3  A    between atoms: C_3  and  C_4
REMARK    4  A    between atoms: C_4  and  C_5
REMARK    5  A    between atoms: C_5  and  O_6
REMARK    6  A    between atoms: O_6  and  C_7
REMARK    7  A    between atoms: C_8  and  C_9
REMARK                            x       y       z     vdW  Elec       q    Type
REMARK                         _______ _______ _______ _____ _____    ______ ____
ROOT
ATOM      1  C   UNL     1       2.775   6.334  18.232  0.00  0.00    +0.000 C 
ATOM      2  C   UNL     1       2.063   6.314  19.388  0.00  0.00    +0.000 C 
ATOM      3  C   UNL     1       1.472   7.556  19.960  0.00  0.00    +0.000 A 
ATOM      4  C   UNL     1       0.735   7.530  21.159  0.00  0.00    +0.000 A 
ATOM      5  C   UNL     1       0.133   8.686  21.670  0.00  0.00    +0.000 A 
ATOM      6  C   UNL     1       0.254   9.899  20.996  0.00  0.00    +0.000 A 
ATOM      7  C   UNL     1       0.992   9.955  19.822  0.00  0.00    +0.000 A 
ATOM      8  C   UNL     1       1.594   8.792  19.317  0.00  0.00    +0.000 A 
ATOM      9  C   UNL     1       2.370   8.888  18.080  0.00  0.00    +0.000 C 
ATOM     10  O   UNL     1       2.496   9.958  17.497  0.00  0.00    +0.000 OA
ATOM     11  C   UNL     1       3.028   7.645  17.538  0.00  0.00    +0.000 C 
ATOM     12  O   UNL     1       3.747   7.772  16.555  0.00  0.00    +0.000 OA
ENDROOT
BRANCH   2  13
ATOM     13  C   UNL     1       1.913   4.974  20.024  0.00  0.00    +0.000 A 
ATOM     14  C   UNL     1       1.024   4.033  19.485  0.00  0.00    +0.000 A 
ATOM     15  C   UNL     1       0.808   2.815  20.135  0.00  0.00    +0.000 A 
ATOM     16  C   UNL     1       1.482   2.526  21.320  0.00  0.00    +0.000 A 
ATOM     17  C   UNL     1       2.388   3.445  21.848  0.00  0.00    +0.000 A 
ATOM     18  C   UNL     1       2.607   4.664  21.202  0.00  0.00    +0.000 A 
ENDBRANCH   2  13
BRANCH   1  19
ATOM     19  O   UNL     1       3.267   5.124  17.724  0.00  0.00    +0.000 OA
BRANCH  19  20
ATOM     20  C   UNL     1       4.667   5.008  17.491  0.00  0.00    +0.000 C 
BRANCH  20  21
ATOM     21  C   UNL     1       5.355   4.486  18.748  0.00  0.00    +0.000 C 
BRANCH  21  22
ATOM     22  C   UNL     1       6.428   5.475  19.203  0.00  0.00    +0.000 C 
BRANCH  22  24
ATOM     23  C   UNL     1       7.649   7.182  17.825  0.00  0.00    +0.000 C 
ATOM     24  C   UNL     1       7.491   5.700  18.134  0.00  0.00    +0.000 C 
ENDBRANCH  22  24
ENDBRANCH  21  22
ENDBRANCH  20  21
ENDBRANCH  19  20
ENDBRANCH   1  19
TORSDOF 6
ENDMDL
MODEL 6
REMARK VINA RESULT:      -6.5      1.743      4.922
REMARK  Name = 
REMARK  7 active torsions:
REMARK  status: ('A' for Active; 'I' for Inactive)
REMARK    1  A    between atoms: C_1  and  C_2
REMARK    2  A    between atoms: C_2  and  C_3
REMARK    3  A    between atoms: C_3  and  C_4
REMARK    4  A    between atoms: C_4  and  C_5
REMARK    5  A    between atoms: C_5  and  O_6
REMARK    6  A    between atoms: O_6  and  C_7
REMARK    7  A    between atoms: C_8  and  C_9
REMARK                            x       y       z     vdW  Elec       q    Type
REMARK                         _______ _______ _______ _____ _____    ______ ____
ROOT
ATOM      1  C   UNL     1       2.729   4.896  17.685  0.00  0.00    +0.000 C 
ATOM      2  C   UNL     1       3.435   6.034  17.911  0.00  0.00    +0.000 C 
ATOM      3  C   UNL     1       4.880   6.135  17.566  0.00  0.00    +0.000 A 
ATOM      4  C   UNL     1       5.607   7.316  17.803  0.00  0.00    +0.000 A 
ATOM      5  C   UNL     1       6.952   7.432  17.431  0.00  0.00    +0.000 A 
ATOM      6  C   UNL     1       7.605   6.368  16.813  0.00  0.00    +0.000 A 
ATOM      7  C   UNL     1       6.915   5.186  16.585  0.00  0.00    +0.000 A 
ATOM      8  C   UNL     1       5.568   5.076  16.964  0.00  0.00    +0.000 A 
ATOM      9  C   UNL     1       4.872   3.813  16.715  0.00  0.00    +0.000 C 
ATOM     10  O   UNL     1       5.450   2.869  16.192  0.00  0.00    +0.000 OA
ATOM     11  C   UNL     1       3.429   3.686  17.128  0.00  0.00    +0.000 C 
ATOM     12  O   UNL     1       2.899   2.590  16.994  0.00  0.00    +0.000 OA
ENDROOT
BRANCH   2  13
ATOM     13  C   UNL     1       2.661   7.158  18.512  0.00  0.00    +0.000 A 
ATOM     14  C   UNL     1       2.352   7.150  19.881  0.00  0.00    +0.000 A 
ATOM     15  C   UNL     1       1.543   8.150  20.426  0.00  0.00    +0.000 A 
ATOM     16  C   UNL     1       1.045   9.167  19.613  0.00  0.00    +0.000 A 
ATOM     17  C   UNL     1       1.369   9.197  18.257  0.00  0.00    +0.000 A 
ATOM     18  C   UNL     1       2.177   8.199  17.708  0.00  0.00    +0.000 A 
ENDBRANCH   2  13
BRANCH   1  19
ATOM     19  O   UNL     1       1.360   4.882  17.990  0.00  0.00    +0.000 OA
BRANCH  19  20
ATOM     20  C   UNL     1       0.848   3.784  18.739  0.00  0.00    +0.000 C 
BRANCH  20  21
ATOM     21  C   UNL     1       1.001   4.064  20.230  0.00  0.00    +0.000 C 
BRANCH  21  22
ATOM     22  C   UNL     1       1.272   2.760  20.980  0.00  0.00    +0.000 C 
BRANCH  22  24
ATOM     23  C   UNL     1       3.727   2.545  20.502  0.00  0.00    +0.000 C 
ATOM     24  C   UNL     1       2.672   2.724  21.583  0.00  0.00    +0.000 C 
ENDBRANCH  22  24
ENDBRANCH  21  22
ENDBRANCH  20  21
ENDBRANCH  19  20
ENDBRANCH   1  19
TORSDOF 6
ENDMDL
MODEL 7
REMARK VINA RESULT:      -6.4      2.133      4.939
REMARK  Name = 
REMARK  7 active torsions:
REMARK  status: ('A' for Active; 'I' for Inactive)
REMARK    1  A    between atoms: C_1  and  C_2
REMARK    2  A    between atoms: C_2  and  C_3
REMARK    3  A    between atoms: C_3  and  C_4
REMARK    4  A    between atoms: C_4  and  C_5
REMARK    5  A    between atoms: C_5  and  O_6
REMARK    6  A    between atoms: O_6  and  C_7
REMARK    7  A    between atoms: C_8  and  C_9
REMARK                            x       y       z     vdW  Elec       q    Type
REMARK                         _______ _______ _______ _____ _____    ______ ____
ROOT
ATOM      1  C   UNL     1       2.689   6.467  18.385  0.00  0.00    +0.000 C 
ATOM      2  C   UNL     1       1.941   6.436  19.518  0.00  0.00    +0.000 C 
ATOM      3  C   UNL     1       1.317   7.670  20.073  0.00  0.00    +0.000 A 
ATOM      4  C   UNL     1       0.543   7.632  21.248  0.00  0.00    +0.000 A 
ATOM      5  C   UNL     1      -0.089   8.780  21.742  0.00  0.00    +0.000 A 
ATOM      6  C   UNL     1       0.038   9.995  21.073  0.00  0.00    +0.000 A 
ATOM      7  C   UNL     1       0.811  10.062  19.923  0.00  0.00    +0.000 A 
ATOM      8  C   UNL     1       1.444   8.908  19.435  0.00  0.00    +0.000 A 
ATOM      9  C   UNL     1       2.256   9.016  18.223  0.00  0.00    +0.000 C 
ATOM     10  O   UNL     1       2.386  10.088  17.646  0.00  0.00    +0.000 OA
ATOM     11  C   UNL     1       2.946   7.782  17.701  0.00  0.00    +0.000 C 
ATOM     12  O   UNL     1       3.694   7.919  16.740  0.00  0.00    +0.000 OA
ENDROOT
BRANCH   2  13
ATOM     13  C   UNL     1       1.788   5.093  20.148  0.00  0.00    +0.000 A 
ATOM     14  C   UNL     1       2.551   4.751  21.275  0.00  0.00    +0.000 A 
ATOM     15  C   UNL     1       2.483   3.460  21.806  0.00  0.00    +0.000 A 
ATOM     16  C   UNL     1       1.650   2.507  21.221  0.00  0.00    +0.000 A 
ATOM     17  C   UNL     1       0.870   2.847  20.117  0.00  0.00    +0.000 A 
ATOM     18  C   UNL     1       0.935   4.136  19.583  0.00  0.00    +0.000 A 
ENDBRANCH   2  13
BRANCH   1  19
ATOM     19  O   UNL     1       3.211   5.263  17.891  0.00  0.00    +0.000 OA
BRANCH  19  20
ATOM     20  C   UNL     1       4.615   5.177  17.669  0.00  0.00    +0.000 C 
BRANCH  20  21
ATOM     21  C   UNL     1       5.356   5.380  18.986  0.00  0.00    +0.000 C 
BRANCH  21  22
ATOM     22  C   UNL     1       6.865   5.348  18.745  0.00  0.00    +0.000 C 
BRANCH  22  24
ATOM     23  C   UNL     1       7.686   7.508  17.763  0.00  0.00    +0.000 C 
ATOM     24  C   UNL     1       7.258   6.079  17.467  0.00  0.00    +0.000 C 
ENDBRANCH  22  24
ENDBRANCH  21  22
ENDBRANCH  20  21
ENDBRANCH  19  20
ENDBRANCH   1  19
TORSDOF 6
ENDMDL
MODEL 8
REMARK VINA RESULT:      -6.4      1.857      5.355
REMARK  Name = 
REMARK  7 active torsions:
REMARK  status: ('A' for Active; 'I' for Inactive)
REMARK    1  A    between atoms: C_1  and  C_2
REMARK    2  A    between atoms: C_2  and  C_3
REMARK    3  A    between atoms: C_3  and  C_4
REMARK    4  A    between atoms: C_4  and  C_5
REMARK    5  A    between atoms: C_5  and  O_6
REMARK    6  A    between atoms: O_6  and  C_7
REMARK    7  A    between atoms: C_8  and  C_9
REMARK                            x       y       z     vdW  Elec       q    Type
REMARK                         _______ _______ _______ _____ _____    ______ ____
ROOT
ATOM      1  C   UNL     1       4.580   5.794  18.814  0.00  0.00    +0.000 C 
ATOM      2  C   UNL     1       3.268   5.823  19.161  0.00  0.00    +0.000 C 
ATOM      3  C   UNL     1       2.576   4.618  19.697  0.00  0.00    +0.000 A 
ATOM      4  C   UNL     1       1.216   4.654  20.054  0.00  0.00    +0.000 A 
ATOM      5  C   UNL     1       0.577   3.538  20.608  0.00  0.00    +0.000 A 
ATOM      6  C   UNL     1       1.284   2.355  20.816  0.00  0.00    +0.000 A 
ATOM      7  C   UNL     1       2.621   2.288  20.454  0.00  0.00    +0.000 A 
ATOM      8  C   UNL     1       3.254   3.411  19.897  0.00  0.00    +0.000 A 
ATOM      9  C   UNL     1       4.664   3.303  19.521  0.00  0.00    +0.000 C 
ATOM     10  O   UNL     1       5.281   2.258  19.684  0.00  0.00    +0.000 OA
ATOM     11  C   UNL     1       5.346   4.502  18.914  0.00  0.00    +0.000 C 
ATOM     12  O   UNL     1       6.497   4.356  18.523  0.00  0.00    +0.000 OA
ENDROOT
BRANCH   2  13
ATOM     13  C   UNL     1       2.587   7.138  18.977  0.00  0.00    +0.000 A 
ATOM     14  C   UNL     1       2.018   7.797  20.077  0.00  0.00    +0.000 A 
ATOM     15  C   UNL     1       1.294   8.978  19.892  0.00  0.00    +0.000 A 
ATOM     16  C   UNL     1       1.141   9.511  18.612  0.00  0.00    +0.000 A 
ATOM     17  C   UNL     1       1.726   8.875  17.518  0.00  0.00    +0.000 A 
ATOM     18  C   UNL     1       2.450   7.695  17.698  0.00  0.00    +0.000 A 
ENDBRANCH   2  13
BRANCH   1  19
ATOM     19  O   UNL     1       5.183   6.975  18.359  0.00  0.00    +0.000 OA
BRANCH  19  20
ATOM     20  C   UNL     1       6.004   6.910  17.197  0.00  0.00    +0.000 C 
BRANCH  20  21
ATOM     21  C   UNL     1       5.211   6.308  16.042  0.00  0.00    +0.000 C 
BRANCH  21  22
ATOM     22  C   UNL     1       6.136   5.475  15.153  0.00  0.00    +0.000 C 
BRANCH  22  24
ATOM     23  C   UNL     1       5.991   3.737  13.348  0.00  0.00    +0.000 C 
ATOM     24  C   UNL     1       5.488   4.166  14.718  0.00  0.00    +0.000 C 
ENDBRANCH  22  24
ENDBRANCH  21  22
ENDBRANCH  20  21
ENDBRANCH  19  20
ENDBRANCH   1  19
TORSDOF 6
ENDMDL
MODEL 9
REMARK VINA RESULT:      -6.4      2.060      4.157
REMARK  Name = 
REMARK  7 active torsions:
REMARK  status: ('A' for Active; 'I' for Inactive)
REMARK    1  A    between atoms: C_1  and  C_2
REMARK    2  A    between atoms: C_2  and  C_3
REMARK    3  A    between atoms: C_3  and  C_4
REMARK    4  A    between atoms: C_4  and  C_5
REMARK    5  A    between atoms: C_5  and  O_6
REMARK    6  A    between atoms: O_6  and  C_7
REMARK    7  A    between atoms: C_8  and  C_9
REMARK                            x       y       z     vdW  Elec       q    Type
REMARK                         _______ _______ _______ _____ _____    ______ ____
ROOT
ATOM      1  C   UNL     1       4.136   3.732  17.931  0.00  0.00    +0.000 C 
ATOM      2  C   UNL     1       4.137   4.960  18.512  0.00  0.00    +0.000 C 
ATOM      3  C   UNL     1       2.972   5.449  19.300  0.00  0.00    +0.000 A 
ATOM      4  C   UNL     1       2.978   6.722  19.899  0.00  0.00    +0.000 A 
ATOM      5  C   UNL     1       1.907   7.163  20.685  0.00  0.00    +0.000 A 
ATOM      6  C   UNL     1       0.801   6.342  20.891  0.00  0.00    +0.000 A 
ATOM      7  C   UNL     1       0.763   5.089  20.296  0.00  0.00    +0.000 A 
ATOM      8  C   UNL     1       1.839   4.655  19.507  0.00  0.00    +0.000 A 
ATOM      9  C   UNL     1       1.763   3.331  18.888  0.00  0.00    +0.000 C 
ATOM     10  O   UNL     1       0.783   2.616  19.050  0.00  0.00    +0.000 OA
ATOM     11  C   UNL     1       2.912   2.863  18.032  0.00  0.00    +0.000 C 
ATOM     12  O   UNL     1       2.782   1.793  17.452  0.00  0.00    +0.000 OA
ENDROOT
BRANCH   2  13
ATOM     13  C   UNL     1       5.378   5.762  18.310  0.00  0.00    +0.000 A 
ATOM     14  C   UNL     1       5.419   6.764  17.328  0.00  0.00    +0.000 A 
ATOM     15  C   UNL     1       6.610   7.448  17.070  0.00  0.00    +0.000 A 
ATOM     16  C   UNL     1       7.762   7.143  17.792  0.00  0.00    +0.000 A 
ATOM     17  C   UNL     1       7.723   6.167  18.788  0.00  0.00    +0.000 A 
ATOM     18  C   UNL     1       6.535   5.481  19.049  0.00  0.00    +0.000 A 
ENDBRANCH   2  13
BRANCH   1  19
ATOM     19  O   UNL     1       5.283   3.314  17.241  0.00  0.00    +0.000 OA
BRANCH  19  20
ATOM     20  C   UNL     1       5.336   3.520  15.832  0.00  0.00    +0.000 C 
BRANCH  20  21
ATOM     21  C   UNL     1       6.725   4.010  15.438  0.00  0.00    +0.000 C 
BRANCH  21  22
ATOM     22  C   UNL     1       6.682   4.630  14.041  0.00  0.00    +0.000 C 
BRANCH  22  24
ATOM     23  C   UNL     1       7.009   3.692  11.735  0.00  0.00    +0.000 C 
ATOM     24  C   UNL     1       6.158   3.653  12.995  0.00  0.00    +0.000 C 
ENDBRANCH  22  24
ENDBRANCH  21  22
ENDBRANCH  20  21
ENDBRANCH  19  20
ENDBRANCH   1  19
TORSDOF 6
ENDMDL
