MODEL 1
REMARK VINA RESULT:      -7.8      0.000      0.000
REMARK  Name = 
REMARK  4 active torsions:
REMARK  status: ('A' for Active; 'I' for Inactive)
REMARK    1  A    between atoms: C_2  and  C_3
REMARK    2  A    between atoms: C_5  and  C_6
REMARK    3  A    between atoms: N_11  and  C_12
REMARK    4  A    between atoms: C_12  and  C_13
REMARK                            x       y       z     vdW  Elec       q    Type
REMARK                         _______ _______ _______ _____ _____    ______ ____
ROOT
ATOM      1  O   UNL     1       5.933   6.849  17.804  0.00  0.00    +0.000 OA
ATOM      2  C   UNL     1       5.205   5.915  17.454  0.00  0.00    +0.000 C 
ATOM      3  N   UNL     1       3.985   5.643  18.096  0.00  0.00    +0.000 N 
ATOM      4  C   UNL     1       3.511   4.312  18.134  0.00  0.00    +0.000 A 
ATOM      5  C   UNL     1       2.206   4.066  17.715  0.00  0.00    +0.000 A 
ATOM      6  C   UNL     1       1.714   2.768  17.796  0.00  0.00    +0.000 A 
ATOM      7  C   UNL     1       2.528   1.764  18.305  0.00  0.00    +0.000 A 
ATOM      8  C   UNL     1       3.810   2.102  18.705  0.00  0.00    +0.000 A 
ATOM      9  N   UNL     1       4.319   3.352  18.636  0.00  0.00    +0.000 NA
ENDROOT
BRANCH   2  10
ATOM     10  C   UNL     1       5.613   5.074  16.310  0.00  0.00    +0.000 A 
ATOM     11  C   UNL     1       5.090   5.159  14.992  0.00  0.00    +0.000 A 
ATOM     12  C   UNL     1       5.785   4.221  14.275  0.00  0.00    +0.000 A 
ATOM     13  O   UNL     1       6.625   3.557  15.113  0.00  0.00    +0.000 OA
ATOM     14  N   UNL     1       6.507   4.071  16.393  0.00  0.00    +0.000 NA
BRANCH  12  15
ATOM     15  C   UNL     1       5.645   3.977  12.786  0.00  0.00    +0.000 C 
ATOM     16  C   UNL     1       6.909   3.941  11.951  0.00  0.00    +0.000 C 
ATOM     17  C   UNL     1       6.162   2.678  12.209  0.00  0.00    +0.000 C 
ENDBRANCH  12  15
ENDBRANCH   2  10
BRANCH   3  18
ATOM     18  C   UNL     1       3.695   6.398  19.316  0.00  0.00    +0.000 C 
BRANCH  18  19
ATOM     19  C   UNL     1       2.662   7.486  19.129  0.00  0.00    +0.000 A 
ATOM     20  C   UNL     1       1.863   7.903  20.205  0.00  0.00    +0.000 A 
ATOM     21  C   UNL     1       0.973   8.966  20.059  0.00  0.00    +0.000 A 
ATOM     22  C   UNL     1       0.867   9.625  18.835  0.00  0.00    +0.000 A 
ATOM     23  C   UNL     1       1.637   9.205  17.752  0.00  0.00    +0.000 A 
ATOM     24  C   UNL     1       2.524   8.135  17.894  0.00  0.00    +0.000 A 
ENDBRANCH  18  19
ENDBRANCH   3  18
TORSDOF 4
ENDMDL
MODEL 2
REMARK VINA RESULT:      -7.6      1.962      6.933
REMARK  Name = 
REMARK  4 active torsions:
REMARK  status: ('A' for Active; 'I' for Inactive)
REMARK    1  A    between atoms: C_2  and  C_3
REMARK    2  A    between atoms: C_5  and  C_6
REMARK    3  A    between atoms: N_11  and  C_12
REMARK    4  A    between atoms: C_12  and  C_13
REMARK                            x       y       z     vdW  Elec       q    Type
REMARK                         _______ _______ _______ _____ _____    ______ ____
ROOT
ATOM      1  O   UNL     1       3.251   3.629  16.741  0.00  0.00    +0.000 OA
ATOM      2  C   UNL     1       3.933   4.600  17.080  0.00  0.00    +0.000 C 
ATOM      3  N   UNL     1       5.264   4.759  16.655  0.00  0.00    +0.000 N 
ATOM      4  C   UNL     1       6.171   5.452  17.487  0.00  0.00    +0.000 A 
ATOM      5  C   UNL     1       6.914   6.489  16.929  0.00  0.00    +0.000 A 
ATOM      6  C   UNL     1       7.848   7.144  17.727  0.00  0.00    +0.000 A 
ATOM      7  C   UNL     1       8.021   6.736  19.043  0.00  0.00    +0.000 A 
ATOM      8  C   UNL     1       7.243   5.690  19.511  0.00  0.00    +0.000 A 
ATOM      9  N   UNL     1       6.326   5.036  18.764  0.00  0.00    +0.000 NA
ENDROOT
BRANCH   2  10
ATOM     10  C   UNL     1       3.328   5.642  17.935  0.00  0.00    +0.000 A 
ATOM     11  C   UNL     1       3.219   7.020  17.608  0.00  0.00    +0.000 A 
ATOM     12  C   UNL     1       2.564   7.584  18.671  0.00  0.00    +0.000 A 
ATOM     13  O   UNL     1       2.351   6.630  19.616  0.00  0.00    +0.000 OA
ATOM     14  N   UNL     1       2.846   5.416  19.171  0.00  0.00    +0.000 NA
BRANCH  12  15
ATOM     15  C   UNL     1       2.136   9.035  18.766  0.00  0.00    +0.000 C 
ATOM     16  C   UNL     1       0.837   9.437  18.098  0.00  0.00    +0.000 C 
ATOM     17  C   UNL     1       0.913   9.381  19.585  0.00  0.00    +0.000 C 
ENDBRANCH  12  15
ENDBRANCH   2  10
BRANCH   3  18
ATOM     18  C   UNL     1       5.870   3.634  15.943  0.00  0.00    +0.000 C 
BRANCH  18  19
ATOM     19  C   UNL     1       6.236   3.945  14.509  0.00  0.00    +0.000 A 
ATOM     20  C   UNL     1       7.307   4.804  14.216  0.00  0.00    +0.000 A 
ATOM     21  C   UNL     1       7.701   5.022  12.896  0.00  0.00    +0.000 A 
ATOM     22  C   UNL     1       7.030   4.388  11.852  0.00  0.00    +0.000 A 
ATOM     23  C   UNL     1       5.950   3.551  12.128  0.00  0.00    +0.000 A 
ATOM     24  C   UNL     1       5.547   3.338  13.449  0.00  0.00    +0.000 A 
ENDBRANCH  18  19
ENDBRANCH   3  18
TORSDOF 4
ENDMDL
MODEL 3
REMARK VINA RESULT:      -7.5      2.427      4.293
REMARK  Name = 
REMARK  4 active torsions:
REMARK  status: ('A' for Active; 'I' for Inactive)
REMARK    1  A    between atoms: C_2  and  C_3
REMARK    2  A    between atoms: C_5  and  C_6
REMARK    3  A    between atoms: N_11  and  C_12
REMARK    4  A    between atoms: C_12  and  C_13
REMARK                            x       y       z     vdW  Elec       q    Type
REMARK                         _______ _______ _______ _____ _____    ______ ____
ROOT
ATOM      1  O   UNL     1       2.995   4.427  16.937  0.00  0.00    +0.000 OA
ATOM      2  C   UNL     1       4.204   4.634  17.078  0.00  0.00    +0.000 C 
ATOM      3  N   UNL     1       4.732   5.172  18.264  0.00  0.00    +0.000 N 
ATOM      4  C   UNL     1       5.908   5.952  18.200  0.00  0.00    +0.000 A 
ATOM      5  C   UNL     1       6.961   5.627  19.051  0.00  0.00    +0.000 A 
ATOM      6  C   UNL     1       8.103   6.421  19.030  0.00  0.00    +0.000 A 
ATOM      7  C   UNL     1       8.153   7.517  18.180  0.00  0.00    +0.000 A 
ATOM      8  C   UNL     1       7.055   7.770  17.374  0.00  0.00    +0.000 A 
ATOM      9  N   UNL     1       5.933   7.017  17.367  0.00  0.00    +0.000 NA
ENDROOT
BRANCH   2  10
ATOM     10  C   UNL     1       5.128   4.283  15.981  0.00  0.00    +0.000 A 
ATOM     11  C   UNL     1       4.786   4.204  14.604  0.00  0.00    +0.000 A 
ATOM     12  C   UNL     1       5.956   3.887  13.967  0.00  0.00    +0.000 A 
ATOM     13  O   UNL     1       6.933   3.713  14.897  0.00  0.00    +0.000 OA
ATOM     14  N   UNL     1       6.416   3.938  16.161  0.00  0.00    +0.000 NA
BRANCH  12  15
ATOM     15  C   UNL     1       6.131   3.765  12.466  0.00  0.00    +0.000 C 
ATOM     16  C   UNL     1       6.062   2.381  11.854  0.00  0.00    +0.000 C 
ATOM     17  C   UNL     1       4.946   3.341  11.628  0.00  0.00    +0.000 C 
ENDBRANCH  12  15
ENDBRANCH   2  10
BRANCH   3  18
ATOM     18  C   UNL     1       3.772   5.648  19.261  0.00  0.00    +0.000 C 
BRANCH  18  19
ATOM     19  C   UNL     1       3.008   4.540  19.950  0.00  0.00    +0.000 A 
ATOM     20  C   UNL     1       3.681   3.418  20.459  0.00  0.00    +0.000 A 
ATOM     21  C   UNL     1       2.991   2.439  21.173  0.00  0.00    +0.000 A 
ATOM     22  C   UNL     1       1.620   2.566  21.386  0.00  0.00    +0.000 A 
ATOM     23  C   UNL     1       0.935   3.663  20.865  0.00  0.00    +0.000 A 
ATOM     24  C   UNL     1       1.623   4.641  20.142  0.00  0.00    +0.000 A 
ENDBRANCH  18  19
ENDBRANCH   3  18
TORSDOF 4
ENDMDL
MODEL 4
REMARK VINA RESULT:      -7.0      2.718      5.624
REMARK  Name = 
REMARK  4 active torsions:
REMARK  status: ('A' for Active; 'I' for Inactive)
REMARK    1  A    between atoms: C_2  and  C_3
REMARK    2  A    between atoms: C_5  and  C_6
REMARK    3  A    between atoms: N_11  and  C_12
REMARK    4  A    between atoms: C_12  and  C_13
REMARK                            x       y       z     vdW  Elec       q    Type
REMARK                         _______ _______ _______ _____ _____    ______ ____
ROOT
ATOM      1  O   UNL     1       7.362   4.390  16.380  0.00  0.00    +0.000 OA
ATOM      2  C   UNL     1       6.739   5.094  17.179  0.00  0.00    +0.000 C 
ATOM      3  N   UNL     1       5.434   4.774  17.592  0.00  0.00    +0.000 N 
ATOM      4  C   UNL     1       4.553   5.818  17.954  0.00  0.00    +0.000 A 
ATOM      5  C   UNL     1       3.897   5.729  19.179  0.00  0.00    +0.000 A 
ATOM      6  C   UNL     1       2.989   6.726  19.522  0.00  0.00    +0.000 A 
ATOM      7  C   UNL     1       2.754   7.766  18.632  0.00  0.00    +0.000 A 
ATOM      8  C   UNL     1       3.447   7.769  17.432  0.00  0.00    +0.000 A 
ATOM      9  N   UNL     1       4.336   6.818  17.071  0.00  0.00    +0.000 NA
ENDROOT
BRANCH   2  10
ATOM     10  C   UNL     1       7.390   6.295  17.741  0.00  0.00    +0.000 A 
ATOM     11  C   UNL     1       7.455   7.569  17.117  0.00  0.00    +0.000 A 
ATOM     12  C   UNL     1       8.113   8.369  18.014  0.00  0.00    +0.000 A 
ATOM     13  O   UNL     1       8.489   7.618  19.083  0.00  0.00    +0.000 OA
ATOM     14  N   UNL     1       8.059   6.314  18.909  0.00  0.00    +0.000 NA
BRANCH  12  15
ATOM     15  C   UNL     1       8.366   9.853  17.842  0.00  0.00    +0.000 C 
ATOM     16  C   UNL     1       8.694  10.665  19.079  0.00  0.00    +0.000 C 
ATOM     17  C   UNL     1       9.761  10.386  18.078  0.00  0.00    +0.000 C 
ENDBRANCH  12  15
ENDBRANCH   2  10
BRANCH   3  18
ATOM     18  C   UNL     1       4.771   3.670  16.897  0.00  0.00    +0.000 C 
BRANCH  18  19
ATOM     19  C   UNL     1       3.575   3.114  17.635  0.00  0.00    +0.000 A 
ATOM     20  C   UNL     1       3.746   2.189  18.678  0.00  0.00    +0.000 A 
ATOM     21  C   UNL     1       2.652   1.743  19.418  0.00  0.00    +0.000 A 
ATOM     22  C   UNL     1       1.372   2.212  19.125  0.00  0.00    +0.000 A 
ATOM     23  C   UNL     1       1.185   3.111  18.076  0.00  0.00    +0.000 A 
ATOM     24  C   UNL     1       2.279   3.553  17.328  0.00  0.00    +0.000 A 
ENDBRANCH  18  19
ENDBRANCH   3  18
TORSDOF 4
ENDMDL
MODEL 5
REMARK VINA RESULT:      -7.0      2.127      7.131
REMARK  Name = 
REMARK  4 active torsions:
REMARK  status: ('A' for Active; 'I' for Inactive)
REMARK    1  A    between atoms: C_2  and  C_3
REMARK    2  A    between atoms: C_5  and  C_6
REMARK    3  A    between atoms: N_11  and  C_12
REMARK    4  A    between atoms: C_12  and  C_13
REMARK                            x       y       z     vdW  Elec       q    Type
REMARK                         _______ _______ _______ _____ _____    ______ ____
ROOT
ATOM      1  O   UNL     1       3.149   3.692  16.777  0.00  0.00    +0.000 OA
ATOM      2  C   UNL     1       3.855   4.646  17.115  0.00  0.00    +0.000 C 
ATOM      3  N   UNL     1       5.188   4.773  16.687  0.00  0.00    +0.000 N 
ATOM      4  C   UNL     1       6.114   5.443  17.518  0.00  0.00    +0.000 A 
ATOM      5  C   UNL     1       6.881   6.462  16.960  0.00  0.00    +0.000 A 
ATOM      6  C   UNL     1       7.832   7.093  17.757  0.00  0.00    +0.000 A 
ATOM      7  C   UNL     1       7.997   6.679  19.072  0.00  0.00    +0.000 A 
ATOM      8  C   UNL     1       7.195   5.652  19.540  0.00  0.00    +0.000 A 
ATOM      9  N   UNL     1       6.262   5.021  18.794  0.00  0.00    +0.000 NA
ENDROOT
BRANCH   2  10
ATOM     10  C   UNL     1       3.277   5.701  17.972  0.00  0.00    +0.000 A 
ATOM     11  C   UNL     1       2.577   5.487  19.189  0.00  0.00    +0.000 A 
ATOM     12  C   UNL     1       2.266   6.742  19.643  0.00  0.00    +0.000 A 
ATOM     13  O   UNL     1       2.684   7.659  18.730  0.00  0.00    +0.000 OA
ATOM     14  N   UNL     1       3.299   7.013  17.671  0.00  0.00    +0.000 NA
BRANCH  12  15
ATOM     15  C   UNL     1       1.579   7.051  20.958  0.00  0.00    +0.000 C 
ATOM     16  C   UNL     1       1.754   8.440  21.540  0.00  0.00    +0.000 C 
ATOM     17  C   UNL     1       0.437   8.043  20.967  0.00  0.00    +0.000 C 
ENDBRANCH  12  15
ENDBRANCH   2  10
BRANCH   3  18
ATOM     18  C   UNL     1       5.766   3.635  15.973  0.00  0.00    +0.000 C 
BRANCH  18  19
ATOM     19  C   UNL     1       6.162   3.946  14.547  0.00  0.00    +0.000 A 
ATOM     20  C   UNL     1       7.247   4.795  14.278  0.00  0.00    +0.000 A 
ATOM     21  C   UNL     1       7.670   5.013  12.967  0.00  0.00    +0.000 A 
ATOM     22  C   UNL     1       7.013   4.388  11.908  0.00  0.00    +0.000 A 
ATOM     23  C   UNL     1       5.919   3.562  12.160  0.00  0.00    +0.000 A 
ATOM     24  C   UNL     1       5.489   3.349  13.472  0.00  0.00    +0.000 A 
ENDBRANCH  18  19
ENDBRANCH   3  18
TORSDOF 4
ENDMDL
MODEL 6
REMARK VINA RESULT:      -6.7      2.517      7.074
REMARK  Name = 
REMARK  4 active torsions:
REMARK  status: ('A' for Active; 'I' for Inactive)
REMARK    1  A    between atoms: C_2  and  C_3
REMARK    2  A    between atoms: C_5  and  C_6
REMARK    3  A    between atoms: N_11  and  C_12
REMARK    4  A    between atoms: C_12  and  C_13
REMARK                            x       y       z     vdW  Elec       q    Type
REMARK                         _______ _______ _______ _____ _____    ______ ____
ROOT
ATOM      1  O   UNL     1       4.666   2.906  16.319  0.00  0.00    +0.000 OA
ATOM      2  C   UNL     1       4.991   4.007  16.772  0.00  0.00    +0.000 C 
ATOM      3  N   UNL     1       6.169   4.659  16.369  0.00  0.00    +0.000 N 
ATOM      4  C   UNL     1       6.822   5.521  17.278  0.00  0.00    +0.000 A 
ATOM      5  C   UNL     1       7.145   6.806  16.849  0.00  0.00    +0.000 A 
ATOM      6  C   UNL     1       7.833   7.645  17.720  0.00  0.00    +0.000 A 
ATOM      7  C   UNL     1       8.189   7.175  18.977  0.00  0.00    +0.000 A 
ATOM      8  C   UNL     1       7.833   5.880  19.315  0.00  0.00    +0.000 A 
ATOM      9  N   UNL     1       7.162   5.041  18.495  0.00  0.00    +0.000 NA
ENDROOT
BRANCH   2  10
ATOM     10  C   UNL     1       4.104   4.675  17.747  0.00  0.00    +0.000 A 
ATOM     11  C   UNL     1       3.441   4.041  18.831  0.00  0.00    +0.000 A 
ATOM     12  C   UNL     1       2.771   5.050  19.474  0.00  0.00    +0.000 A 
ATOM     13  O   UNL     1       2.955   6.209  18.787  0.00  0.00    +0.000 OA
ATOM     14  N   UNL     1       3.770   5.978  17.693  0.00  0.00    +0.000 NA
BRANCH  12  15
ATOM     15  C   UNL     1       1.970   4.894  20.751  0.00  0.00    +0.000 C 
ATOM     16  C   UNL     1       0.956   3.769  20.819  0.00  0.00    +0.000 C 
ATOM     17  C   UNL     1       2.211   3.677  21.616  0.00  0.00    +0.000 C 
ENDBRANCH  12  15
ENDBRANCH   2  10
BRANCH   3  18
ATOM     18  C   UNL     1       7.091   3.897  15.526  0.00  0.00    +0.000 C 
BRANCH  18  19
ATOM     19  C   UNL     1       7.015   4.256  14.059  0.00  0.00    +0.000 A 
ATOM     20  C   UNL     1       7.840   5.259  13.526  0.00  0.00    +0.000 A 
ATOM     21  C   UNL     1       7.835   5.530  12.157  0.00  0.00    +0.000 A 
ATOM     22  C   UNL     1       7.003   4.805  11.305  0.00  0.00    +0.000 A 
ATOM     23  C   UNL     1       6.161   3.824  11.825  0.00  0.00    +0.000 A 
ATOM     24  C   UNL     1       6.159   3.556  13.196  0.00  0.00    +0.000 A 
ENDBRANCH  18  19
ENDBRANCH   3  18
TORSDOF 4
ENDMDL
MODEL 7
REMARK VINA RESULT:      -6.7      2.680      5.616
REMARK  Name = 
REMARK  4 active torsions:
REMARK  status: ('A' for Active; 'I' for Inactive)
REMARK    1  A    between atoms: C_2  and  C_3
REMARK    2  A    between atoms: C_5  and  C_6
REMARK    3  A    between atoms: N_11  and  C_12
REMARK    4  A    between atoms: C_12  and  C_13
REMARK                            x       y       z     vdW  Elec       q    Type
REMARK                         _______ _______ _______ _____ _____    ______ ____
ROOT
ATOM      1  O   UNL     1       7.209   4.445  16.296  0.00  0.00    +0.000 OA
ATOM      2  C   UNL     1       6.623   5.142  17.130  0.00  0.00    +0.000 C 
ATOM      3  N   UNL     1       5.328   4.834  17.579  0.00  0.00    +0.000 N 
ATOM      4  C   UNL     1       4.476   5.883  17.990  0.00  0.00    +0.000 A 
ATOM      5  C   UNL     1       3.858   5.780  19.234  0.00  0.00    +0.000 A 
ATOM      6  C   UNL     1       2.978   6.784  19.626  0.00  0.00    +0.000 A 
ATOM      7  C   UNL     1       2.730   7.844  18.764  0.00  0.00    +0.000 A 
ATOM      8  C   UNL     1       3.384   7.860  17.542  0.00  0.00    +0.000 A 
ATOM      9  N   UNL     1       4.246   6.903  17.133  0.00  0.00    +0.000 NA
ENDROOT
BRANCH   2  10
ATOM     10  C   UNL     1       7.311   6.322  17.692  0.00  0.00    +0.000 A 
ATOM     11  C   UNL     1       7.290   7.632  17.143  0.00  0.00    +0.000 A 
ATOM     12  C   UNL     1       8.027   8.391  18.014  0.00  0.00    +0.000 A 
ATOM     13  O   UNL     1       8.524   7.587  18.991  0.00  0.00    +0.000 OA
ATOM     14  N   UNL     1       8.098   6.286  18.784  0.00  0.00    +0.000 NA
BRANCH  12  15
ATOM     15  C   UNL     1       8.237   9.889  17.908  0.00  0.00    +0.000 C 
ATOM     16  C   UNL     1       8.806  10.613  19.112  0.00  0.00    +0.000 C 
ATOM     17  C   UNL     1       9.650  10.426  17.899  0.00  0.00    +0.000 C 
ENDBRANCH  12  15
ENDBRANCH   2  10
BRANCH   3  18
ATOM     18  C   UNL     1       4.626   3.753  16.884  0.00  0.00    +0.000 C 
BRANCH  18  19
ATOM     19  C   UNL     1       3.387   3.269  17.604  0.00  0.00    +0.000 A 
ATOM     20  C   UNL     1       2.144   3.879  17.375  0.00  0.00    +0.000 A 
ATOM     21  C   UNL     1       0.986   3.377  17.969  0.00  0.00    +0.000 A 
ATOM     22  C   UNL     1       1.056   2.262  18.801  0.00  0.00    +0.000 A 
ATOM     23  C   UNL     1       2.287   1.661  19.056  0.00  0.00    +0.000 A 
ATOM     24  C   UNL     1       3.449   2.167  18.468  0.00  0.00    +0.000 A 
ENDBRANCH  18  19
ENDBRANCH   3  18
TORSDOF 4
ENDMDL
MODEL 8
REMARK VINA RESULT:      -6.7      3.003      5.689
REMARK  Name = 
REMARK  4 active torsions:
REMARK  status: ('A' for Active; 'I' for Inactive)
REMARK    1  A    between atoms: C_2  and  C_3
REMARK    2  A    between atoms: C_5  and  C_6
REMARK    3  A    between atoms: N_11  and  C_12
REMARK    4  A    between atoms: C_12  and  C_13
REMARK                            x       y       z     vdW  Elec       q    Type
REMARK                         _______ _______ _______ _____ _____    ______ ____
ROOT
ATOM      1  O   UNL     1       7.004   5.331  20.064  0.00  0.00    +0.000 OA
ATOM      2  C   UNL     1       6.688   5.615  18.905  0.00  0.00    +0.000 C 
ATOM      3  N   UNL     1       5.861   4.778  18.134  0.00  0.00    +0.000 N 
ATOM      4  C   UNL     1       6.018   4.764  16.730  0.00  0.00    +0.000 A 
ATOM      5  C   UNL     1       4.887   4.948  15.940  0.00  0.00    +0.000 A 
ATOM      6  C   UNL     1       5.023   4.884  14.557  0.00  0.00    +0.000 A 
ATOM      7  C   UNL     1       6.272   4.624  14.009  0.00  0.00    +0.000 A 
ATOM      8  C   UNL     1       7.341   4.447  14.872  0.00  0.00    +0.000 A 
ATOM      9  N   UNL     1       7.243   4.506  16.219  0.00  0.00    +0.000 NA
ENDROOT
BRANCH   2  10
ATOM     10  C   UNL     1       7.169   6.881  18.316  0.00  0.00    +0.000 A 
ATOM     11  C   UNL     1       8.213   7.691  18.837  0.00  0.00    +0.000 A 
ATOM     12  C   UNL     1       8.331   8.728  17.949  0.00  0.00    +0.000 A 
ATOM     13  O   UNL     1       7.376   8.600  16.989  0.00  0.00    +0.000 OA
ATOM     14  N   UNL     1       6.631   7.457  17.225  0.00  0.00    +0.000 NA
BRANCH  12  15
ATOM     15  C   UNL     1       9.370   9.829  18.022  0.00  0.00    +0.000 C 
ATOM     16  C   UNL     1       8.881  11.260  18.123  0.00  0.00    +0.000 C 
ATOM     17  C   UNL     1       9.509  10.613  19.308  0.00  0.00    +0.000 C 
ENDBRANCH  12  15
ENDBRANCH   2  10
BRANCH   3  18
ATOM     18  C   UNL     1       5.537   3.467  18.697  0.00  0.00    +0.000 C 
BRANCH  18  19
ATOM     19  C   UNL     1       4.058   3.246  18.917  0.00  0.00    +0.000 A 
ATOM     20  C   UNL     1       3.335   4.073  19.791  0.00  0.00    +0.000 A 
ATOM     21  C   UNL     1       1.954   3.928  19.927  0.00  0.00    +0.000 A 
ATOM     22  C   UNL     1       1.279   2.953  19.195  0.00  0.00    +0.000 A 
ATOM     23  C   UNL     1       1.989   2.109  18.342  0.00  0.00    +0.000 A 
ATOM     24  C   UNL     1       3.372   2.248  18.210  0.00  0.00    +0.000 A 
ENDBRANCH  18  19
ENDBRANCH   3  18
TORSDOF 4
ENDMDL
MODEL 9
REMARK VINA RESULT:      -6.6      2.959      5.720
REMARK  Name = 
REMARK  4 active torsions:
REMARK  status: ('A' for Active; 'I' for Inactive)
REMARK    1  A    between atoms: C_2  and  C_3
REMARK    2  A    between atoms: C_5  and  C_6
REMARK    3  A    between atoms: N_11  and  C_12
REMARK    4  A    between atoms: C_12  and  C_13
REMARK                            x       y       z     vdW  Elec       q    Type
REMARK                         _______ _______ _______ _____ _____    ______ ____
ROOT
ATOM      1  O   UNL     1       7.697   4.625  16.764  0.00  0.00    +0.000 OA
ATOM      2  C   UNL     1       6.957   5.383  17.397  0.00  0.00    +0.000 C 
ATOM      3  N   UNL     1       5.750   4.941  17.967  0.00  0.00    +0.000 N 
ATOM      4  C   UNL     1       4.682   5.855  18.109  0.00  0.00    +0.000 A 
ATOM      5  C   UNL     1       4.077   5.971  19.358  0.00  0.00    +0.000 A 
ATOM      6  C   UNL     1       2.992   6.831  19.495  0.00  0.00    +0.000 A 
ATOM      7  C   UNL     1       2.537   7.531  18.385  0.00  0.00    +0.000 A 
ATOM      8  C   UNL     1       3.195   7.348  17.181  0.00  0.00    +0.000 A 
ATOM      9  N   UNL     1       4.253   6.524  17.015  0.00  0.00    +0.000 NA
ENDROOT
BRANCH   2  10
ATOM     10  C   UNL     1       7.360   6.792  17.584  0.00  0.00    +0.000 A 
ATOM     11  C   UNL     1       8.196   7.282  18.623  0.00  0.00    +0.000 A 
ATOM     12  C   UNL     1       8.320   8.624  18.373  0.00  0.00    +0.000 A 
ATOM     13  O   UNL     1       7.554   8.946  17.296  0.00  0.00    +0.000 OA
ATOM     14  N   UNL     1       6.933   7.808  16.811  0.00  0.00    +0.000 NA
BRANCH  12  15
ATOM     15  C   UNL     1       9.185   9.585  19.164  0.00  0.00    +0.000 C 
ATOM     16  C   UNL     1      10.003  10.601  18.393  0.00  0.00    +0.000 C 
ATOM     17  C   UNL     1       8.818  11.052  19.176  0.00  0.00    +0.000 C 
ENDBRANCH  12  15
ENDBRANCH   2  10
BRANCH   3  18
ATOM     18  C   UNL     1       5.315   3.586  17.627  0.00  0.00    +0.000 C 
BRANCH  18  19
ATOM     19  C   UNL     1       4.026   3.172  18.300  0.00  0.00    +0.000 A 
ATOM     20  C   UNL     1       4.022   2.765  19.644  0.00  0.00    +0.000 A 
ATOM     21  C   UNL     1       2.823   2.468  20.292  0.00  0.00    +0.000 A 
ATOM     22  C   UNL     1       1.614   2.571  19.607  0.00  0.00    +0.000 A 
ATOM     23  C   UNL     1       1.606   2.950  18.265  0.00  0.00    +0.000 A 
ATOM     24  C   UNL     1       2.807   3.240  17.612  0.00  0.00    +0.000 A 
ENDBRANCH  18  19
ENDBRANCH   3  18
TORSDOF 4
ENDMDL
