MODEL 1
REMARK VINA RESULT:      -6.7      0.000      0.000
REMARK  Name = 
REMARK  7 active torsions:
REMARK  status: ('A' for Active; 'I' for Inactive)
REMARK    1  A    between atoms: C_1  and  C_2
REMARK    2  A    between atoms: C_2  and  N_3
REMARK    3  A    between atoms: N_3  and  C_4
REMARK    4  A    between atoms: C_4  and  C_5
REMARK    5  A    between atoms: C_5  and  C_6
REMARK    6  A    between atoms: C_10  and  C_12
REMARK    7  A    between atoms: C_19  and  C_20
REMARK                            x       y       z     vdW  Elec       q    Type
REMARK                         _______ _______ _______ _____ _____    ______ ____
ROOT
ATOM      1  C   UNL     1      -2.239  10.088  17.896  0.00  0.00    +0.000 C 
ATOM      2  C   UNL     1      -2.118  10.308  16.368  0.00  0.00    +0.000 C 
ATOM      3  C   UNL     1      -3.061  11.388  15.829  0.00  0.00    +0.000 C 
ATOM      4  C   UNL     1      -4.500  11.126  16.259  0.00  0.00    +0.000 C 
ATOM      5  N   UNL     1      -4.515  11.025  17.709  0.00  0.00    +0.000 N 
ATOM      6  C   UNL     1      -5.486  11.737  18.381  0.00  0.00    +0.000 A 
ATOM      7  C   UNL     1      -5.162  12.428  19.530  0.00  0.00    +0.000 A 
ATOM      8  C   UNL     1      -6.092  13.342  19.987  0.00  0.00    +0.000 A 
ATOM      9  N   UNL     1      -7.330  13.478  19.467  0.00  0.00    +0.000 NA
ATOM     10  C   UNL     1      -7.567  12.707  18.402  0.00  0.00    +0.000 A 
ATOM     11  N   UNL     1      -6.701  11.866  17.818  0.00  0.00    +0.000 NA
ATOM     12  C   UNL     1      -3.707   9.989  18.336  0.00  0.00    +0.000 C 
ENDROOT
BRANCH   8  13
ATOM     13  C   UNL     1      -5.724  14.264  21.044  0.00  0.00    +0.000 A 
ATOM     14  C   UNL     1      -5.101  15.532  20.964  0.00  0.00    +0.000 A 
ATOM     15  N   UNL     1      -4.216  15.850  19.987  0.00  0.00    +0.000 N 
ATOM     16  N   UNL     1      -5.001  16.065  22.179  0.00  0.00    +0.000 NA
ATOM     17  N   UNL     1      -4.665  14.965  22.874  0.00  0.00    +0.000 N 
ATOM     18  C   UNL     1      -3.704  14.906  23.867  0.00  0.00    +0.000 A 
ATOM     19  C   UNL     1      -3.130  13.732  24.157  0.00  0.00    +0.000 A 
ATOM     20  C   UNL     1      -3.728  12.544  23.477  0.00  0.00    +0.000 A 
ATOM     21  N   UNL     1      -4.710  12.558  22.622  0.00  0.00    +0.000 NA
ATOM     22  C   UNL     1      -5.122  13.807  22.222  0.00  0.00    +0.000 A 
ATOM     23  H   UNL     1      -4.055  15.080  19.328  0.00  0.00    +0.000 HD
ATOM     24  H   UNL     1      -3.319  16.095  20.398  0.00  0.00    +0.000 HD
ENDBRANCH   8  13
BRANCH   1  26
ATOM     25  N   UNL     1      -0.668  10.806  19.759  0.00  0.00    +0.000 N 
ATOM     26  C   UNL     1      -1.484  11.157  18.671  0.00  0.00    +0.000 C 
ATOM     27  O   UNL     1      -1.567  12.358  18.323  0.00  0.00    +0.000 OA
BRANCH  25  29
ATOM     28  C   UNL     1      -0.406  12.346  21.707  0.00  0.00    +0.000 C 
ATOM     29  C   UNL     1       0.110  11.919  20.336  0.00  0.00    +0.000 C 
ENDBRANCH  25  29
BRANCH  25  30
ATOM     30  C   UNL     1      -0.118   9.440  19.887  0.00  0.00    +0.000 C 
BRANCH  30  31
ATOM     31  C   UNL     1       1.392   9.298  19.697  0.00  0.00    +0.000 C 
BRANCH  31  32
ATOM     32  C   UNL     1       1.770   9.299  18.232  0.00  0.00    +0.000 C 
ATOM     33  F   UNL     1       2.810   8.480  17.961  0.00  0.00    +0.000 F 
ATOM     34  F   UNL     1       0.728   8.892  17.472  0.00  0.00    +0.000 F 
ATOM     35  F   UNL     1       2.110  10.540  17.825  0.00  0.00    +0.000 F 
ENDBRANCH  31  32
ENDBRANCH  30  31
ENDBRANCH  25  30
ENDBRANCH   1  26
TORSDOF 6
ENDMDL
MODEL 2
REMARK VINA RESULT:      -6.6      1.195      1.385
REMARK  Name = 
REMARK  7 active torsions:
REMARK  status: ('A' for Active; 'I' for Inactive)
REMARK    1  A    between atoms: C_1  and  C_2
REMARK    2  A    between atoms: C_2  and  N_3
REMARK    3  A    between atoms: N_3  and  C_4
REMARK    4  A    between atoms: C_4  and  C_5
REMARK    5  A    between atoms: C_5  and  C_6
REMARK    6  A    between atoms: C_10  and  C_12
REMARK    7  A    between atoms: C_19  and  C_20
REMARK                            x       y       z     vdW  Elec       q    Type
REMARK                         _______ _______ _______ _____ _____    ______ ____
ROOT
ATOM      1  C   UNL     1      -1.979   9.855  17.573  0.00  0.00    +0.000 C 
ATOM      2  C   UNL     1      -2.069  10.020  16.036  0.00  0.00    +0.000 C 
ATOM      3  C   UNL     1      -3.082  11.082  15.593  0.00  0.00    +0.000 C 
ATOM      4  C   UNL     1      -4.447  10.838  16.226  0.00  0.00    +0.000 C 
ATOM      5  N   UNL     1      -4.262  10.790  17.666  0.00  0.00    +0.000 N 
ATOM      6  C   UNL     1      -5.133  11.527  18.440  0.00  0.00    +0.000 A 
ATOM      7  C   UNL     1      -4.656  12.259  19.508  0.00  0.00    +0.000 A 
ATOM      8  C   UNL     1      -5.518  13.190  20.055  0.00  0.00    +0.000 A 
ATOM      9  N   UNL     1      -6.816  13.310  19.706  0.00  0.00    +0.000 NA
ATOM     10  C   UNL     1      -7.195  12.501  18.712  0.00  0.00    +0.000 A 
ATOM     11  N   UNL     1      -6.415  11.638  18.045  0.00  0.00    +0.000 NA
ATOM     12  C   UNL     1      -3.372   9.775  18.214  0.00  0.00    +0.000 C 
ENDROOT
BRANCH   8  13
ATOM     13  C   UNL     1      -5.011  14.149  21.018  0.00  0.00    +0.000 A 
ATOM     14  C   UNL     1      -3.884  15.001  20.941  0.00  0.00    +0.000 A 
ATOM     15  N   UNL     1      -2.764  14.669  20.251  0.00  0.00    +0.000 N 
ATOM     16  N   UNL     1      -3.818  15.764  22.028  0.00  0.00    +0.000 NA
ATOM     17  N   UNL     1      -4.169  14.857  22.955  0.00  0.00    +0.000 N 
ATOM     18  C   UNL     1      -3.575  14.705  24.194  0.00  0.00    +0.000 A 
ATOM     19  C   UNL     1      -3.666  13.529  24.828  0.00  0.00    +0.000 A 
ATOM     20  C   UNL     1      -4.573  12.530  24.187  0.00  0.00    +0.000 A 
ATOM     21  N   UNL     1      -5.236  12.687  23.078  0.00  0.00    +0.000 NA
ATOM     22  C   UNL     1      -4.946  13.837  22.380  0.00  0.00    +0.000 A 
ATOM     23  H   UNL     1      -2.830  13.748  19.803  0.00  0.00    +0.000 HD
ATOM     24  H   UNL     1      -1.964  14.649  20.877  0.00  0.00    +0.000 HD
ENDBRANCH   8  13
BRANCH   1  26
ATOM     25  N   UNL     1       0.190  10.684  18.605  0.00  0.00    +0.000 N 
ATOM     26  C   UNL     1      -1.128  10.950  18.198  0.00  0.00    +0.000 C 
ATOM     27  O   UNL     1      -1.593  12.107  18.328  0.00  0.00    +0.000 OA
BRANCH  25  29
ATOM     28  C   UNL     1       2.210  12.110  18.250  0.00  0.00    +0.000 C 
ATOM     29  C   UNL     1       0.946  11.862  19.070  0.00  0.00    +0.000 C 
ENDBRANCH  25  29
BRANCH  25  30
ATOM     30  C   UNL     1       0.953   9.559  18.023  0.00  0.00    +0.000 C 
BRANCH  30  31
ATOM     31  C   UNL     1       1.584   8.585  19.016  0.00  0.00    +0.000 C 
BRANCH  31  32
ATOM     32  C   UNL     1       2.446   7.556  18.316  0.00  0.00    +0.000 C 
ATOM     33  F   UNL     1       3.327   6.961  19.149  0.00  0.00    +0.000 F 
ATOM     34  F   UNL     1       1.678   6.581  17.778  0.00  0.00    +0.000 F 
ATOM     35  F   UNL     1       3.148   8.122  17.313  0.00  0.00    +0.000 F 
ENDBRANCH  31  32
ENDBRANCH  30  31
ENDBRANCH  25  30
ENDBRANCH   1  26
TORSDOF 6
ENDMDL
MODEL 3
REMARK VINA RESULT:      -6.5      1.387      1.558
REMARK  Name = 
REMARK  7 active torsions:
REMARK  status: ('A' for Active; 'I' for Inactive)
REMARK    1  A    between atoms: C_1  and  C_2
REMARK    2  A    between atoms: C_2  and  N_3
REMARK    3  A    between atoms: N_3  and  C_4
REMARK    4  A    between atoms: C_4  and  C_5
REMARK    5  A    between atoms: C_5  and  C_6
REMARK    6  A    between atoms: C_10  and  C_12
REMARK    7  A    between atoms: C_19  and  C_20
REMARK                            x       y       z     vdW  Elec       q    Type
REMARK                         _______ _______ _______ _____ _____    ______ ____
ROOT
ATOM      1  C   UNL     1      -2.107   9.930  17.558  0.00  0.00    +0.000 C 
ATOM      2  C   UNL     1      -2.209  10.106  16.022  0.00  0.00    +0.000 C 
ATOM      3  C   UNL     1      -3.225  11.170  15.595  0.00  0.00    +0.000 C 
ATOM      4  C   UNL     1      -4.586  10.921  16.237  0.00  0.00    +0.000 C 
ATOM      5  N   UNL     1      -4.390  10.861  17.675  0.00  0.00    +0.000 N 
ATOM      6  C   UNL     1      -5.256  11.593  18.461  0.00  0.00    +0.000 A 
ATOM      7  C   UNL     1      -4.771  12.317  19.531  0.00  0.00    +0.000 A 
ATOM      8  C   UNL     1      -5.630  13.243  20.091  0.00  0.00    +0.000 A 
ATOM      9  N   UNL     1      -6.929  13.365  19.753  0.00  0.00    +0.000 NA
ATOM     10  C   UNL     1      -7.316  12.564  18.755  0.00  0.00    +0.000 A 
ATOM     11  N   UNL     1      -6.541  11.706  18.077  0.00  0.00    +0.000 NA
ATOM     12  C   UNL     1      -3.495   9.844  18.208  0.00  0.00    +0.000 C 
ENDROOT
BRANCH   8  13
ATOM     13  C   UNL     1      -5.116  14.195  21.057  0.00  0.00    +0.000 A 
ATOM     14  C   UNL     1      -4.019  15.083  20.959  0.00  0.00    +0.000 A 
ATOM     15  N   UNL     1      -2.916  14.802  20.221  0.00  0.00    +0.000 N 
ATOM     16  N   UNL     1      -3.934  15.823  22.061  0.00  0.00    +0.000 NA
ATOM     17  N   UNL     1      -4.223  14.885  22.979  0.00  0.00    +0.000 N 
ATOM     18  C   UNL     1      -3.578  14.723  24.191  0.00  0.00    +0.000 A 
ATOM     19  C   UNL     1      -3.610  13.531  24.799  0.00  0.00    +0.000 A 
ATOM     20  C   UNL     1      -4.510  12.519  24.169  0.00  0.00    +0.000 A 
ATOM     21  N   UNL     1      -5.218  12.681  23.088  0.00  0.00    +0.000 NA
ATOM     22  C   UNL     1      -4.990  13.854  22.409  0.00  0.00    +0.000 A 
ATOM     23  H   UNL     1      -2.970  13.890  19.754  0.00  0.00    +0.000 HD
ATOM     24  H   UNL     1      -2.092  14.793  20.817  0.00  0.00    +0.000 HD
ENDBRANCH   8  13
BRANCH   1  26
ATOM     25  N   UNL     1      -0.066  10.694  18.863  0.00  0.00    +0.000 N 
ATOM     26  C   UNL     1      -1.252  11.020  18.184  0.00  0.00    +0.000 C 
ATOM     27  O   UNL     1      -1.590  12.222  18.074  0.00  0.00    +0.000 OA
BRANCH  25  29
ATOM     28  C   UNL     1       0.465  12.231  20.759  0.00  0.00    +0.000 C 
ATOM     29  C   UNL     1       0.734  11.852  19.305  0.00  0.00    +0.000 C 
ENDBRANCH  25  29
BRANCH  25  30
ATOM     30  C   UNL     1       0.646   9.428  18.586  0.00  0.00    +0.000 C 
BRANCH  30  31
ATOM     31  C   UNL     1       1.661   8.980  19.635  0.00  0.00    +0.000 C 
BRANCH  31  32
ATOM     32  C   UNL     1       0.980   8.508  20.902  0.00  0.00    +0.000 C 
ATOM     33  F   UNL     1      -0.340   8.793  20.920  0.00  0.00    +0.000 F 
ATOM     34  F   UNL     1       1.105   7.168  21.037  0.00  0.00    +0.000 F 
ATOM     35  F   UNL     1       1.537   9.081  21.989  0.00  0.00    +0.000 F 
ENDBRANCH  31  32
ENDBRANCH  30  31
ENDBRANCH  25  30
ENDBRANCH   1  26
TORSDOF 6
ENDMDL
MODEL 4
REMARK VINA RESULT:      -6.5      1.259      1.471
REMARK  Name = 
REMARK  7 active torsions:
REMARK  status: ('A' for Active; 'I' for Inactive)
REMARK    1  A    between atoms: C_1  and  C_2
REMARK    2  A    between atoms: C_2  and  N_3
REMARK    3  A    between atoms: N_3  and  C_4
REMARK    4  A    between atoms: C_4  and  C_5
REMARK    5  A    between atoms: C_5  and  C_6
REMARK    6  A    between atoms: C_10  and  C_12
REMARK    7  A    between atoms: C_19  and  C_20
REMARK                            x       y       z     vdW  Elec       q    Type
REMARK                         _______ _______ _______ _____ _____    ______ ____
ROOT
ATOM      1  C   UNL     1      -2.109  10.254  17.804  0.00  0.00    +0.000 C 
ATOM      2  C   UNL     1      -2.112  10.458  16.269  0.00  0.00    +0.000 C 
ATOM      3  C   UNL     1      -3.176  11.447  15.784  0.00  0.00    +0.000 C 
ATOM      4  C   UNL     1      -4.556  11.075  16.316  0.00  0.00    +0.000 C 
ATOM      5  N   UNL     1      -4.463  10.998  17.765  0.00  0.00    +0.000 N 
ATOM      6  C   UNL     1      -5.441  11.639  18.495  0.00  0.00    +0.000 A 
ATOM      7  C   UNL     1      -5.098  12.373  19.611  0.00  0.00    +0.000 A 
ATOM      8  C   UNL     1      -6.068  13.215  20.122  0.00  0.00    +0.000 A 
ATOM      9  N   UNL     1      -7.345  13.241  19.687  0.00  0.00    +0.000 NA
ATOM     10  C   UNL     1      -7.590  12.435  18.650  0.00  0.00    +0.000 A 
ATOM     11  N   UNL     1      -6.699  11.658  18.017  0.00  0.00    +0.000 NA
ATOM     12  C   UNL     1      -3.531  10.042  18.346  0.00  0.00    +0.000 C 
ENDROOT
BRANCH   8  13
ATOM     13  C   UNL     1      -5.706  14.181  21.140  0.00  0.00    +0.000 A 
ATOM     14  C   UNL     1      -5.094  15.450  21.009  0.00  0.00    +0.000 A 
ATOM     15  N   UNL     1      -4.214  15.737  20.018  0.00  0.00    +0.000 N 
ATOM     16  N   UNL     1      -4.997  16.032  22.201  0.00  0.00    +0.000 NA
ATOM     17  N   UNL     1      -4.650  14.964  22.939  0.00  0.00    +0.000 N 
ATOM     18  C   UNL     1      -3.687  14.953  23.932  0.00  0.00    +0.000 A 
ATOM     19  C   UNL     1      -3.102  13.797  24.267  0.00  0.00    +0.000 A 
ATOM     20  C   UNL     1      -3.691  12.578  23.636  0.00  0.00    +0.000 A 
ATOM     21  N   UNL     1      -4.675  12.548  22.783  0.00  0.00    +0.000 NA
ATOM     22  C   UNL     1      -5.098  13.778  22.334  0.00  0.00    +0.000 A 
ATOM     23  H   UNL     1      -4.047  14.943  19.390  0.00  0.00    +0.000 HD
ATOM     24  H   UNL     1      -3.318  16.006  20.417  0.00  0.00    +0.000 HD
ENDBRANCH   8  13
BRANCH   1  26
ATOM     25  N   UNL     1      -0.891  11.220  19.812  0.00  0.00    +0.000 N 
ATOM     26  C   UNL     1      -1.394  11.394  18.513  0.00  0.00    +0.000 C 
ATOM     27  O   UNL     1      -1.228  12.489  17.926  0.00  0.00    +0.000 OA
BRANCH  25  29
ATOM     28  C   UNL     1      -0.349  12.611  21.815  0.00  0.00    +0.000 C 
ATOM     29  C   UNL     1      -0.105  12.357  20.330  0.00  0.00    +0.000 C 
ENDBRANCH  25  29
BRANCH  25  30
ATOM     30  C   UNL     1      -0.582   9.872  20.335  0.00  0.00    +0.000 C 
BRANCH  30  31
ATOM     31  C   UNL     1       0.865   9.406  20.189  0.00  0.00    +0.000 C 
BRANCH  31  32
ATOM     32  C   UNL     1       1.176   8.255  21.121  0.00  0.00    +0.000 C 
ATOM     33  F   UNL     1       2.036   7.364  20.580  0.00  0.00    +0.000 F 
ATOM     34  F   UNL     1       1.733   8.708  22.266  0.00  0.00    +0.000 F 
ATOM     35  F   UNL     1       0.051   7.588  21.451  0.00  0.00    +0.000 F 
ENDBRANCH  31  32
ENDBRANCH  30  31
ENDBRANCH  25  30
ENDBRANCH   1  26
TORSDOF 6
ENDMDL
MODEL 5
REMARK VINA RESULT:      -6.5      4.608      7.416
REMARK  Name = 
REMARK  7 active torsions:
REMARK  status: ('A' for Active; 'I' for Inactive)
REMARK    1  A    between atoms: C_1  and  C_2
REMARK    2  A    between atoms: C_2  and  N_3
REMARK    3  A    between atoms: N_3  and  C_4
REMARK    4  A    between atoms: C_4  and  C_5
REMARK    5  A    between atoms: C_5  and  C_6
REMARK    6  A    between atoms: C_10  and  C_12
REMARK    7  A    between atoms: C_19  and  C_20
REMARK                            x       y       z     vdW  Elec       q    Type
REMARK                         _______ _______ _______ _____ _____    ______ ____
ROOT
ATOM      1  C   UNL     1       2.261   5.452  17.915  0.00  0.00    +0.000 C 
ATOM      2  C   UNL     1       3.750   5.383  17.494  0.00  0.00    +0.000 C 
ATOM      3  C   UNL     1       4.528   6.671  17.784  0.00  0.00    +0.000 C 
ATOM      4  C   UNL     1       3.820   7.886  17.195  0.00  0.00    +0.000 C 
ATOM      5  N   UNL     1       2.466   7.904  17.722  0.00  0.00    +0.000 N 
ATOM      6  C   UNL     1       1.996   9.104  18.214  0.00  0.00    +0.000 A 
ATOM      7  C   UNL     1       1.280   9.132  19.393  0.00  0.00    +0.000 A 
ATOM      8  C   UNL     1       1.092  10.371  19.974  0.00  0.00    +0.000 A 
ATOM      9  N   UNL     1       1.433  11.537  19.387  0.00  0.00    +0.000 NA
ATOM     10  C   UNL     1       2.055  11.400  18.212  0.00  0.00    +0.000 A 
ATOM     11  N   UNL     1       2.377  10.245  17.611  0.00  0.00    +0.000 NA
ATOM     12  C   UNL     1       1.606   6.761  17.452  0.00  0.00    +0.000 C 
ENDROOT
BRANCH   8  13
ATOM     13  C   UNL     1       0.557  10.452  21.320  0.00  0.00    +0.000 A 
ATOM     14  C   UNL     1       0.121   9.420  22.185  0.00  0.00    +0.000 A 
ATOM     15  N   UNL     1      -0.428   8.267  21.727  0.00  0.00    +0.000 N 
ATOM     16  N   UNL     1      -0.243   9.934  23.356  0.00  0.00    +0.000 NA
ATOM     17  N   UNL     1      -0.872  11.040  22.924  0.00  0.00    +0.000 N 
ATOM     18  C   UNL     1      -2.065  11.531  23.423  0.00  0.00    +0.000 A 
ATOM     19  C   UNL     1      -2.822  12.325  22.656  0.00  0.00    +0.000 A 
ATOM     20  C   UNL     1      -2.197  12.749  21.367  0.00  0.00    +0.000 A 
ATOM     21  N   UNL     1      -1.025  12.393  20.923  0.00  0.00    +0.000 NA
ATOM     22  C   UNL     1      -0.387  11.426  21.664  0.00  0.00    +0.000 A 
ATOM     23  H   UNL     1      -0.489   8.233  20.704  0.00  0.00    +0.000 HD
ATOM     24  H   UNL     1      -1.370   8.162  22.095  0.00  0.00    +0.000 HD
ENDBRANCH   8  13
BRANCH   1  26
ATOM     25  N   UNL     1       1.328   4.160  19.893  0.00  0.00    +0.000 N 
ATOM     26  C   UNL     1       2.097   5.232  19.411  0.00  0.00    +0.000 C 
ATOM     27  O   UNL     1       2.674   5.994  20.222  0.00  0.00    +0.000 OA
BRANCH  25  29
ATOM     28  C   UNL     1       2.440   3.000  21.805  0.00  0.00    +0.000 C 
ATOM     29  C   UNL     1       1.361   3.982  21.357  0.00  0.00    +0.000 C 
ENDBRANCH  25  29
BRANCH  25  30
ATOM     30  C   UNL     1       1.079   2.966  19.058  0.00  0.00    +0.000 C 
BRANCH  30  31
ATOM     31  C   UNL     1       1.990   1.765  19.307  0.00  0.00    +0.000 C 
BRANCH  31  32
ATOM     32  C   UNL     1       3.230   1.819  18.442  0.00  0.00    +0.000 C 
ATOM     33  F   UNL     1       3.835   0.617  18.323  0.00  0.00    +0.000 F 
ATOM     34  F   UNL     1       2.921   2.240  17.194  0.00  0.00    +0.000 F 
ATOM     35  F   UNL     1       4.133   2.683  18.951  0.00  0.00    +0.000 F 
ENDBRANCH  31  32
ENDBRANCH  30  31
ENDBRANCH  25  30
ENDBRANCH   1  26
TORSDOF 6
ENDMDL
MODEL 6
REMARK VINA RESULT:      -6.5      2.773      5.157
REMARK  Name = 
REMARK  7 active torsions:
REMARK  status: ('A' for Active; 'I' for Inactive)
REMARK    1  A    between atoms: C_1  and  C_2
REMARK    2  A    between atoms: C_2  and  N_3
REMARK    3  A    between atoms: N_3  and  C_4
REMARK    4  A    between atoms: C_4  and  C_5
REMARK    5  A    between atoms: C_5  and  C_6
REMARK    6  A    between atoms: C_10  and  C_12
REMARK    7  A    between atoms: C_19  and  C_20
REMARK                            x       y       z     vdW  Elec       q    Type
REMARK                         _______ _______ _______ _____ _____    ______ ____
ROOT
ATOM      1  C   UNL     1      -1.078  12.256  19.165  0.00  0.00    +0.000 C 
ATOM      2  C   UNL     1      -0.391  10.990  19.733  0.00  0.00    +0.000 C 
ATOM      3  C   UNL     1      -0.490  10.871  21.257  0.00  0.00    +0.000 C 
ATOM      4  C   UNL     1      -0.004  12.143  21.941  0.00  0.00    +0.000 C 
ATOM      5  N   UNL     1      -0.771  13.253  21.402  0.00  0.00    +0.000 N 
ATOM      6  C   UNL     1      -1.303  14.150  22.305  0.00  0.00    +0.000 A 
ATOM      7  C   UNL     1      -2.593  14.612  22.140  0.00  0.00    +0.000 A 
ATOM      8  C   UNL     1      -3.158  15.268  23.216  0.00  0.00    +0.000 A 
ATOM      9  N   UNL     1      -2.480  15.604  24.333  0.00  0.00    +0.000 NA
ATOM     10  C   UNL     1      -1.216  15.173  24.360  0.00  0.00    +0.000 A 
ATOM     11  N   UNL     1      -0.603  14.442  23.417  0.00  0.00    +0.000 NA
ATOM     12  C   UNL     1      -0.703  13.509  19.971  0.00  0.00    +0.000 C 
ENDROOT
BRANCH   8  13
ATOM     13  C   UNL     1      -4.576  15.572  23.198  0.00  0.00    +0.000 A 
ATOM     14  C   UNL     1      -5.302  16.554  23.913  0.00  0.00    +0.000 A 
ATOM     15  N   UNL     1      -4.934  16.979  25.148  0.00  0.00    +0.000 N 
ATOM     16  N   UNL     1      -6.581  16.525  23.552  0.00  0.00    +0.000 NA
ATOM     17  N   UNL     1      -6.755  15.195  23.468  0.00  0.00    +0.000 N 
ATOM     18  C   UNL     1      -7.861  14.500  23.924  0.00  0.00    +0.000 A 
ATOM     19  C   UNL     1      -7.745  13.199  24.216  0.00  0.00    +0.000 A 
ATOM     20  C   UNL     1      -6.439  12.577  23.845  0.00  0.00    +0.000 A 
ATOM     21  N   UNL     1      -5.419  13.183  23.309  0.00  0.00    +0.000 NA
ATOM     22  C   UNL     1      -5.533  14.550  23.216  0.00  0.00    +0.000 A 
ATOM     23  H   UNL     1      -4.088  16.513  25.494  0.00  0.00    +0.000 HD
ATOM     24  H   UNL     1      -5.680  16.796  25.814  0.00  0.00    +0.000 HD
ENDBRANCH   8  13
BRANCH   1  26
ATOM     25  N   UNL     1      -3.159  11.480  17.932  0.00  0.00    +0.000 N 
ATOM     26  C   UNL     1      -2.585  12.073  19.068  0.00  0.00    +0.000 C 
ATOM     27  O   UNL     1      -3.321  12.428  20.018  0.00  0.00    +0.000 OA
BRANCH  25  29
ATOM     28  C   UNL     1      -5.422  12.218  17.176  0.00  0.00    +0.000 C 
ATOM     29  C   UNL     1      -4.611  11.241  18.023  0.00  0.00    +0.000 C 
ENDBRANCH  25  29
BRANCH  25  30
ATOM     30  C   UNL     1      -2.366  10.591  17.055  0.00  0.00    +0.000 C 
BRANCH  30  31
ATOM     31  C   UNL     1      -3.160   9.619  16.184  0.00  0.00    +0.000 C 
BRANCH  31  32
ATOM     32  C   UNL     1      -3.343  10.152  14.780  0.00  0.00    +0.000 C 
ATOM     33  F   UNL     1      -3.357  11.503  14.734  0.00  0.00    +0.000 F 
ATOM     34  F   UNL     1      -2.340   9.732  13.977  0.00  0.00    +0.000 F 
ATOM     35  F   UNL     1      -4.503   9.714  14.247  0.00  0.00    +0.000 F 
ENDBRANCH  31  32
ENDBRANCH  30  31
ENDBRANCH  25  30
ENDBRANCH   1  26
TORSDOF 6
ENDMDL
MODEL 7
REMARK VINA RESULT:      -6.3      2.464      4.860
REMARK  Name = 
REMARK  7 active torsions:
REMARK  status: ('A' for Active; 'I' for Inactive)
REMARK    1  A    between atoms: C_1  and  C_2
REMARK    2  A    between atoms: C_2  and  N_3
REMARK    3  A    between atoms: N_3  and  C_4
REMARK    4  A    between atoms: C_4  and  C_5
REMARK    5  A    between atoms: C_5  and  C_6
REMARK    6  A    between atoms: C_10  and  C_12
REMARK    7  A    between atoms: C_19  and  C_20
REMARK                            x       y       z     vdW  Elec       q    Type
REMARK                         _______ _______ _______ _____ _____    ______ ____
ROOT
ATOM      1  C   UNL     1      -0.276  13.792  21.299  0.00  0.00    +0.000 C 
ATOM      2  C   UNL     1       0.567  14.831  22.079  0.00  0.00    +0.000 C 
ATOM      3  C   UNL     1      -0.277  15.834  22.870  0.00  0.00    +0.000 C 
ATOM      4  C   UNL     1      -1.324  16.495  21.981  0.00  0.00    +0.000 C 
ATOM      5  N   UNL     1      -2.113  15.438  21.370  0.00  0.00    +0.000 N 
ATOM      6  C   UNL     1      -3.485  15.576  21.401  0.00  0.00    +0.000 A 
ATOM      7  C   UNL     1      -4.281  14.490  21.703  0.00  0.00    +0.000 A 
ATOM      8  C   UNL     1      -5.604  14.755  22.000  0.00  0.00    +0.000 A 
ATOM      9  N   UNL     1      -6.176  15.969  21.865  0.00  0.00    +0.000 NA
ATOM     10  C   UNL     1      -5.333  16.937  21.495  0.00  0.00    +0.000 A 
ATOM     11  N   UNL     1      -4.015  16.808  21.284  0.00  0.00    +0.000 NA
ATOM     12  C   UNL     1      -1.429  14.460  20.537  0.00  0.00    +0.000 C 
ENDROOT
BRANCH   8  13
ATOM     13  C   UNL     1      -6.434  13.700  22.549  0.00  0.00    +0.000 A 
ATOM     14  C   UNL     1      -6.205  12.852  23.658  0.00  0.00    +0.000 A 
ATOM     15  N   UNL     1      -4.962  12.462  24.035  0.00  0.00    +0.000 N 
ATOM     16  N   UNL     1      -7.257  12.061  23.849  0.00  0.00    +0.000 NA
ATOM     17  N   UNL     1      -7.550  11.772  22.569  0.00  0.00    +0.000 N 
ATOM     18  C   UNL     1      -7.907  10.525  22.090  0.00  0.00    +0.000 A 
ATOM     19  C   UNL     1      -7.723  10.240  20.795  0.00  0.00    +0.000 A 
ATOM     20  C   UNL     1      -7.300  11.392  19.944  0.00  0.00    +0.000 A 
ATOM     21  N   UNL     1      -7.065  12.607  20.350  0.00  0.00    +0.000 NA
ATOM     22  C   UNL     1      -7.082  12.783  21.714  0.00  0.00    +0.000 A 
ATOM     23  H   UNL     1      -4.224  12.845  23.434  0.00  0.00    +0.000 HD
ATOM     24  H   UNL     1      -4.890  11.448  23.999  0.00  0.00    +0.000 HD
ENDBRANCH   8  13
BRANCH   1  26
ATOM     25  N   UNL     1      -0.549  11.333  21.879  0.00  0.00    +0.000 N 
ATOM     26  C   UNL     1      -0.767  12.680  22.214  0.00  0.00    +0.000 C 
ATOM     27  O   UNL     1      -1.348  12.964  23.287  0.00  0.00    +0.000 OA
BRANCH  25  29
ATOM     28  C   UNL     1       0.169   9.405  23.295  0.00  0.00    +0.000 C 
ATOM     29  C   UNL     1      -0.956  10.363  22.913  0.00  0.00    +0.000 C 
ENDBRANCH  25  29
BRANCH  25  30
ATOM     30  C   UNL     1       0.541  10.945  20.959  0.00  0.00    +0.000 C 
BRANCH  30  31
ATOM     31  C   UNL     1       0.183   9.927  19.878  0.00  0.00    +0.000 C 
BRANCH  31  32
ATOM     32  C   UNL     1      -0.653  10.552  18.781  0.00  0.00    +0.000 C 
ATOM     33  F   UNL     1      -0.343  11.849  18.565  0.00  0.00    +0.000 F 
ATOM     34  F   UNL     1      -0.472   9.894  17.613  0.00  0.00    +0.000 F 
ATOM     35  F   UNL     1      -1.966  10.490  19.084  0.00  0.00    +0.000 F 
ENDBRANCH  31  32
ENDBRANCH  30  31
ENDBRANCH  25  30
ENDBRANCH   1  26
TORSDOF 6
ENDMDL
MODEL 8
REMARK VINA RESULT:      -6.3      3.522      5.725
REMARK  Name = 
REMARK  7 active torsions:
REMARK  status: ('A' for Active; 'I' for Inactive)
REMARK    1  A    between atoms: C_1  and  C_2
REMARK    2  A    between atoms: C_2  and  N_3
REMARK    3  A    between atoms: N_3  and  C_4
REMARK    4  A    between atoms: C_4  and  C_5
REMARK    5  A    between atoms: C_5  and  C_6
REMARK    6  A    between atoms: C_10  and  C_12
REMARK    7  A    between atoms: C_19  and  C_20
REMARK                            x       y       z     vdW  Elec       q    Type
REMARK                         _______ _______ _______ _____ _____    ______ ____
ROOT
ATOM      1  C   UNL     1       1.886  13.801  19.354  0.00  0.00    +0.000 C 
ATOM      2  C   UNL     1       2.153  12.643  18.361  0.00  0.00    +0.000 C 
ATOM      3  C   UNL     1       1.221  11.443  18.556  0.00  0.00    +0.000 C 
ATOM      4  C   UNL     1       1.227  10.971  20.005  0.00  0.00    +0.000 C 
ATOM      5  N   UNL     1       0.879  12.108  20.840  0.00  0.00    +0.000 N 
ATOM      6  C   UNL     1      -0.077  11.906  21.814  0.00  0.00    +0.000 A 
ATOM      7  C   UNL     1      -1.060  12.852  22.021  0.00  0.00    +0.000 A 
ATOM      8  C   UNL     1      -2.138  12.467  22.794  0.00  0.00    +0.000 A 
ATOM      9  N   UNL     1      -2.204  11.297  23.462  0.00  0.00    +0.000 NA
ATOM     10  C   UNL     1      -1.165  10.484  23.251  0.00  0.00    +0.000 A 
ATOM     11  N   UNL     1      -0.122  10.717  22.442  0.00  0.00    +0.000 NA
ATOM     12  C   UNL     1       1.732  13.286  20.792  0.00  0.00    +0.000 C 
ENDROOT
BRANCH   8  13
ATOM     13  C   UNL     1      -3.308  13.321  22.859  0.00  0.00    +0.000 A 
ATOM     14  C   UNL     1      -4.162  13.606  23.951  0.00  0.00    +0.000 A 
ATOM     15  N   UNL     1      -4.408  12.710  24.939  0.00  0.00    +0.000 N 
ATOM     16  N   UNL     1      -5.084  14.492  23.586  0.00  0.00    +0.000 NA
ATOM     17  N   UNL     1      -5.360  14.028  22.355  0.00  0.00    +0.000 N 
ATOM     18  C   UNL     1      -6.623  13.920  21.802  0.00  0.00    +0.000 A 
ATOM     19  C   UNL     1      -6.833  13.048  20.808  0.00  0.00    +0.000 A 
ATOM     20  C   UNL     1      -5.606  12.389  20.270  0.00  0.00    +0.000 A 
ATOM     21  N   UNL     1      -4.388  12.558  20.696  0.00  0.00    +0.000 NA
ATOM     22  C   UNL     1      -4.267  13.312  21.840  0.00  0.00    +0.000 A 
ATOM     23  H   UNL     1      -3.913  11.821  24.804  0.00  0.00    +0.000 HD
ATOM     24  H   UNL     1      -5.402  12.504  24.981  0.00  0.00    +0.000 HD
ENDBRANCH   8  13
BRANCH   1  26
ATOM     25  N   UNL     1       0.759  16.041  18.946  0.00  0.00    +0.000 N 
ATOM     26  C   UNL     1       0.693  14.639  18.919  0.00  0.00    +0.000 C 
ATOM     27  O   UNL     1      -0.349  14.076  18.508  0.00  0.00    +0.000 OA
BRANCH  25  29
ATOM     28  C   UNL     1      -0.036  17.980  17.587  0.00  0.00    +0.000 C 
ATOM     29  C   UNL     1      -0.414  16.729  18.374  0.00  0.00    +0.000 C 
ENDBRANCH  25  29
BRANCH  25  30
ATOM     30  C   UNL     1       2.060  16.743  18.901  0.00  0.00    +0.000 C 
BRANCH  30  31
ATOM     31  C   UNL     1       2.992  16.365  17.751  0.00  0.00    +0.000 C 
BRANCH  31  32
ATOM     32  C   UNL     1       4.393  16.073  18.244  0.00  0.00    +0.000 C 
ATOM     33  F   UNL     1       5.188  17.165  18.230  0.00  0.00    +0.000 F 
ATOM     34  F   UNL     1       4.363  15.614  19.516  0.00  0.00    +0.000 F 
ATOM     35  F   UNL     1       4.983  15.128  17.484  0.00  0.00    +0.000 F 
ENDBRANCH  31  32
ENDBRANCH  30  31
ENDBRANCH  25  30
ENDBRANCH   1  26
TORSDOF 6
ENDMDL
MODEL 9
REMARK VINA RESULT:      -6.3      5.019      8.160
REMARK  Name = 
REMARK  7 active torsions:
REMARK  status: ('A' for Active; 'I' for Inactive)
REMARK    1  A    between atoms: C_1  and  C_2
REMARK    2  A    between atoms: C_2  and  N_3
REMARK    3  A    between atoms: N_3  and  C_4
REMARK    4  A    between atoms: C_4  and  C_5
REMARK    5  A    between atoms: C_5  and  C_6
REMARK    6  A    between atoms: C_10  and  C_12
REMARK    7  A    between atoms: C_19  and  C_20
REMARK                            x       y       z     vdW  Elec       q    Type
REMARK                         _______ _______ _______ _____ _____    ______ ____
ROOT
ATOM      1  C   UNL     1      -2.017  12.408  22.448  0.00  0.00    +0.000 C 
ATOM      2  C   UNL     1      -1.692  11.096  23.203  0.00  0.00    +0.000 C 
ATOM      3  C   UNL     1      -0.326  10.504  22.842  0.00  0.00    +0.000 C 
ATOM      4  C   UNL     1      -0.175  10.351  21.333  0.00  0.00    +0.000 C 
ATOM      5  N   UNL     1      -0.411  11.653  20.732  0.00  0.00    +0.000 N 
ATOM      6  C   UNL     1       0.494  12.085  19.785  0.00  0.00    +0.000 A 
ATOM      7  C   UNL     1       0.933  13.393  19.798  0.00  0.00    +0.000 A 
ATOM      8  C   UNL     1       2.037  13.683  19.021  0.00  0.00    +0.000 A 
ATOM      9  N   UNL     1       2.599  12.812  18.158  0.00  0.00    +0.000 NA
ATOM     10  C   UNL     1       2.050  11.594  18.170  0.00  0.00    +0.000 A 
ATOM     11  N   UNL     1       1.046  11.180  18.957  0.00  0.00    +0.000 NA
ATOM     12  C   UNL     1      -1.703  12.288  20.950  0.00  0.00    +0.000 C 
ENDROOT
BRANCH   8  13
ATOM     13  C   UNL     1       2.690  14.970  19.165  0.00  0.00    +0.000 A 
ATOM     14  C   UNL     1       3.230  15.828  18.178  0.00  0.00    +0.000 A 
ATOM     15  N   UNL     1       3.766  15.364  17.021  0.00  0.00    +0.000 N 
ATOM     16  N   UNL     1       3.686  16.942  18.745  0.00  0.00    +0.000 NA
ATOM     17  N   UNL     1       4.243  16.414  19.848  0.00  0.00    +0.000 N 
ATOM     18  C   UNL     1       5.463  16.783  20.385  0.00  0.00    +0.000 A 
ATOM     19  C   UNL     1       6.125  15.921  21.167  0.00  0.00    +0.000 A 
ATOM     20  C   UNL     1       5.374  14.681  21.526  0.00  0.00    +0.000 A 
ATOM     21  N   UNL     1       4.177  14.359  21.126  0.00  0.00    +0.000 NA
ATOM     22  C   UNL     1       3.635  15.190  20.174  0.00  0.00    +0.000 A 
ATOM     23  H   UNL     1       3.735  14.341  16.949  0.00  0.00    +0.000 HD
ATOM     24  H   UNL     1       4.740  15.647  16.952  0.00  0.00    +0.000 HD
ENDBRANCH   8  13
BRANCH   1  26
ATOM     25  N   UNL     1      -2.039  14.527  23.850  0.00  0.00    +0.000 N 
ATOM     26  C   UNL     1      -1.315  13.600  23.082  0.00  0.00    +0.000 C 
ATOM     27  O   UNL     1      -0.078  13.744  22.943  0.00  0.00    +0.000 OA
BRANCH  25  29
ATOM     28  C   UNL     1      -1.402  15.564  26.031  0.00  0.00    +0.000 C 
ATOM     29  C   UNL     1      -1.218  15.556  24.516  0.00  0.00    +0.000 C 
ENDBRANCH  25  29
BRANCH  25  30
ATOM     30  C   UNL     1      -3.324  14.155  24.480  0.00  0.00    +0.000 C 
BRANCH  30  31
ATOM     31  C   UNL     1      -4.576  14.808  23.897  0.00  0.00    +0.000 C 
BRANCH  31  32
ATOM     32  C   UNL     1      -5.598  13.774  23.478  0.00  0.00    +0.000 C 
ATOM     33  F   UNL     1      -5.169  12.508  23.672  0.00  0.00    +0.000 F 
ATOM     34  F   UNL     1      -6.743  13.924  24.183  0.00  0.00    +0.000 F 
ATOM     35  F   UNL     1      -5.905  13.905  22.171  0.00  0.00    +0.000 F 
ENDBRANCH  31  32
ENDBRANCH  30  31
ENDBRANCH  25  30
ENDBRANCH   1  26
TORSDOF 6
ENDMDL
