MODEL 1
REMARK VINA RESULT:      -7.7      0.000      0.000
REMARK  Name = 
REMARK  10 active torsions:
REMARK  status: ('A' for Active; 'I' for Inactive)
REMARK    1  A    between atoms: C_2  and  C_3
REMARK    2  A    between atoms: C_3  and  N_4
REMARK    3  A    between atoms: N_4  and  C_5
REMARK    4  A    between atoms: C_5  and  C_6
REMARK    5  A    between atoms: C_8  and  C_10
REMARK    6  A    between atoms: C_18  and  C_19
REMARK    7  A    between atoms: N_21  and  C_22
REMARK    8  A    between atoms: N_21  and  C_25
REMARK    9  A    between atoms: C_22  and  C_23
REMARK   10  A    between atoms: C_25  and  C_26
REMARK                            x       y       z     vdW  Elec       q    Type
REMARK                         _______ _______ _______ _____ _____    ______ ____
ROOT
ATOM      1  C   UNL     1       3.783   5.336  18.068  0.00  0.00    +0.000 A 
ATOM      2  C   UNL     1       3.505   4.796  19.339  0.00  0.00    +0.000 A 
ATOM      3  C   UNL     1       2.708   5.494  20.272  0.00  0.00    +0.000 A 
ATOM      4  C   UNL     1       2.205   6.757  19.949  0.00  0.00    +0.000 A 
ATOM      5  O   UNL     1       1.529   7.467  20.915  0.00  0.00    +0.000 OA
ATOM      6  C   UNL     1       1.082   8.735  20.604  0.00  0.00    +0.000 A 
ATOM      7  C   UNL     1       0.441   9.490  21.598  0.00  0.00    +0.000 A 
ATOM      8  C   UNL     1      -0.029  10.796  21.325  0.00  0.00    +0.000 A 
ATOM      9  C   UNL     1       0.119  11.364  20.054  0.00  0.00    +0.000 A 
ATOM     10  C   UNL     1       0.726  10.588  19.060  0.00  0.00    +0.000 A 
ATOM     11  C   UNL     1       1.226   9.314  19.349  0.00  0.00    +0.000 A 
ATOM     12  C   UNL     1       1.984   8.590  18.330  0.00  0.00    +0.000 A 
ATOM     13  O   UNL     1       2.301   9.118  17.272  0.00  0.00    +0.000 OA
ATOM     14  C   UNL     1       2.434   7.246  18.669  0.00  0.00    +0.000 A 
ATOM     15  C   UNL     1       3.156   6.521  17.715  0.00  0.00    +0.000 A 
ENDROOT
BRANCH   1  17
ATOM     16  N   UNL     1       5.966   5.149  16.772  0.00  0.00    +0.000 N 
ATOM     17  C   UNL     1       4.719   4.612  17.153  0.00  0.00    +0.000 C 
ATOM     18  O   UNL     1       4.362   3.483  16.810  0.00  0.00    +0.000 OA
BRANCH  16  19
ATOM     19  C   UNL     1       6.816   4.313  15.926  0.00  0.00    +0.000 C 
BRANCH  19  21
ATOM     20  C   UNL     1       6.158   3.831  13.479  0.00  0.00    +0.000 C 
ATOM     21  C   UNL     1       6.683   4.587  14.452  0.00  0.00    +0.000 C 
ENDBRANCH  19  21
ENDBRANCH  16  19
BRANCH  16  22
ATOM     22  C   UNL     1       6.521   6.466  17.110  0.00  0.00    +0.000 C 
BRANCH  22  23
ATOM     23  C   UNL     1       7.637   6.411  18.112  0.00  0.00    +0.000 C 
ATOM     24  C   UNL     1       7.613   5.853  19.331  0.00  0.00    +0.000 C 
ENDBRANCH  22  23
ENDBRANCH  16  22
ENDBRANCH   1  17
BRANCH   9  25
ATOM     25  C   UNL     1      -0.410  12.694  19.607  0.00  0.00    +0.000 C 
ATOM     26  O   UNL     1      -1.470  12.647  18.975  0.00  0.00    +0.000 OA
ATOM     27  N   UNL     1       0.242  13.911  19.835  0.00  0.00    +0.000 N 
BRANCH  27  28
ATOM     28  C   UNL     1       1.526  14.110  20.495  0.00  0.00    +0.000 C 
BRANCH  28  29
ATOM     29  C   UNL     1       2.693  13.751  19.609  0.00  0.00    +0.000 C 
ATOM     30  C   UNL     1       2.712  13.593  18.276  0.00  0.00    +0.000 C 
ENDBRANCH  28  29
ENDBRANCH  27  28
BRANCH  27  31
ATOM     31  C   UNL     1      -0.394  15.117  19.292  0.00  0.00    +0.000 C 
BRANCH  31  32
ATOM     32  C   UNL     1       0.357  16.395  19.596  0.00  0.00    +0.000 C 
ATOM     33  C   UNL     1      -0.122  17.630  19.819  0.00  0.00    +0.000 C 
ENDBRANCH  31  32
ENDBRANCH  27  31
ENDBRANCH   9  25
TORSDOF 10
ENDMDL
MODEL 2
REMARK VINA RESULT:      -7.6      0.555      9.244
REMARK  Name = 
REMARK  10 active torsions:
REMARK  status: ('A' for Active; 'I' for Inactive)
REMARK    1  A    between atoms: C_2  and  C_3
REMARK    2  A    between atoms: C_3  and  N_4
REMARK    3  A    between atoms: N_4  and  C_5
REMARK    4  A    between atoms: C_5  and  C_6
REMARK    5  A    between atoms: C_8  and  C_10
REMARK    6  A    between atoms: C_18  and  C_19
REMARK    7  A    between atoms: N_21  and  C_22
REMARK    8  A    between atoms: N_21  and  C_25
REMARK    9  A    between atoms: C_22  and  C_23
REMARK   10  A    between atoms: C_25  and  C_26
REMARK                            x       y       z     vdW  Elec       q    Type
REMARK                         _______ _______ _______ _____ _____    ______ ____
ROOT
ATOM      1  C   UNL     1      -0.076  11.155  20.110  0.00  0.00    +0.000 A 
ATOM      2  C   UNL     1      -0.408  10.507  21.315  0.00  0.00    +0.000 A 
ATOM      3  C   UNL     1       0.106   9.229  21.623  0.00  0.00    +0.000 A 
ATOM      4  C   UNL     1       0.937   8.574  20.709  0.00  0.00    +0.000 A 
ATOM      5  O   UNL     1       1.331   7.284  20.980  0.00  0.00    +0.000 OA
ATOM      6  C   UNL     1       2.108   6.626  20.047  0.00  0.00    +0.000 A 
ATOM      7  C   UNL     1       2.469   5.292  20.285  0.00  0.00    +0.000 A 
ATOM      8  C   UNL     1       3.260   4.578  19.355  0.00  0.00    +0.000 A 
ATOM      9  C   UNL     1       3.715   5.188  18.179  0.00  0.00    +0.000 A 
ATOM     10  C   UNL     1       3.380   6.531  17.969  0.00  0.00    +0.000 A 
ATOM     11  C   UNL     1       2.562   7.217  18.873  0.00  0.00    +0.000 A 
ATOM     12  C   UNL     1       2.111   8.570  18.553  0.00  0.00    +0.000 A 
ATOM     13  O   UNL     1       2.325   9.073  17.458  0.00  0.00    +0.000 OA
ATOM     14  C   UNL     1       1.306   9.255  19.556  0.00  0.00    +0.000 A 
ATOM     15  C   UNL     1       0.862  10.554  19.286  0.00  0.00    +0.000 A 
ENDROOT
BRANCH   1  17
ATOM     16  N   UNL     1      -0.299  13.681  20.334  0.00  0.00    +0.000 N 
ATOM     17  C   UNL     1      -0.728  12.459  19.776  0.00  0.00    +0.000 C 
ATOM     18  O   UNL     1      -1.620  12.407  18.926  0.00  0.00    +0.000 OA
BRANCH  16  19
ATOM     19  C   UNL     1      -0.976  14.892  19.876  0.00  0.00    +0.000 C 
BRANCH  19  21
ATOM     20  C   UNL     1       0.070  16.814  18.508  0.00  0.00    +0.000 C 
ATOM     21  C   UNL     1      -0.333  15.548  18.683  0.00  0.00    +0.000 C 
ENDBRANCH  19  21
ENDBRANCH  16  19
BRANCH  16  22
ATOM     22  C   UNL     1       0.749  13.892  21.341  0.00  0.00    +0.000 C 
BRANCH  22  23
ATOM     23  C   UNL     1       2.068  14.315  20.761  0.00  0.00    +0.000 C 
ATOM     24  C   UNL     1       2.789  13.680  19.826  0.00  0.00    +0.000 C 
ENDBRANCH  22  23
ENDBRANCH  16  22
ENDBRANCH   1  17
BRANCH   9  25
ATOM     25  C   UNL     1       4.628   4.579  17.158  0.00  0.00    +0.000 C 
ATOM     26  O   UNL     1       4.312   3.446  16.785  0.00  0.00    +0.000 OA
ATOM     27  N   UNL     1       5.783   5.203  16.672  0.00  0.00    +0.000 N 
BRANCH  27  28
ATOM     28  C   UNL     1       6.318   6.498  17.074  0.00  0.00    +0.000 C 
BRANCH  28  29
ATOM     29  C   UNL     1       7.558   6.373  17.923  0.00  0.00    +0.000 C 
ATOM     30  C   UNL     1       7.704   5.748  19.102  0.00  0.00    +0.000 C 
ENDBRANCH  28  29
ENDBRANCH  27  28
BRANCH  27  31
ATOM     31  C   UNL     1       6.590   4.448  15.706  0.00  0.00    +0.000 C 
BRANCH  31  32
ATOM     32  C   UNL     1       6.155   4.632  14.269  0.00  0.00    +0.000 C 
ATOM     33  C   UNL     1       6.111   3.733  13.272  0.00  0.00    +0.000 C 
ENDBRANCH  31  32
ENDBRANCH  27  31
ENDBRANCH   9  25
TORSDOF 10
ENDMDL
MODEL 3
REMARK VINA RESULT:      -7.6      0.805      1.107
REMARK  Name = 
REMARK  10 active torsions:
REMARK  status: ('A' for Active; 'I' for Inactive)
REMARK    1  A    between atoms: C_2  and  C_3
REMARK    2  A    between atoms: C_3  and  N_4
REMARK    3  A    between atoms: N_4  and  C_5
REMARK    4  A    between atoms: C_5  and  C_6
REMARK    5  A    between atoms: C_8  and  C_10
REMARK    6  A    between atoms: C_18  and  C_19
REMARK    7  A    between atoms: N_21  and  C_22
REMARK    8  A    between atoms: N_21  and  C_25
REMARK    9  A    between atoms: C_22  and  C_23
REMARK   10  A    between atoms: C_25  and  C_26
REMARK                            x       y       z     vdW  Elec       q    Type
REMARK                         _______ _______ _______ _____ _____    ______ ____
ROOT
ATOM      1  C   UNL     1       3.823   5.435  18.054  0.00  0.00    +0.000 A 
ATOM      2  C   UNL     1       3.580   4.827  19.301  0.00  0.00    +0.000 A 
ATOM      3  C   UNL     1       2.767   5.450  20.272  0.00  0.00    +0.000 A 
ATOM      4  C   UNL     1       2.211   6.706  20.012  0.00  0.00    +0.000 A 
ATOM      5  O   UNL     1       1.518   7.343  21.016  0.00  0.00    +0.000 OA
ATOM      6  C   UNL     1       1.018   8.606  20.767  0.00  0.00    +0.000 A 
ATOM      7  C   UNL     1       0.359   9.289  21.800  0.00  0.00    +0.000 A 
ATOM      8  C   UNL     1      -0.165  10.586  21.592  0.00  0.00    +0.000 A 
ATOM      9  C   UNL     1      -0.053  11.217  20.347  0.00  0.00    +0.000 A 
ATOM     10  C   UNL     1       0.573  10.511  19.313  0.00  0.00    +0.000 A 
ATOM     11  C   UNL     1       1.126   9.247  19.538  0.00  0.00    +0.000 A 
ATOM     12  C   UNL     1       1.901   8.600  18.480  0.00  0.00    +0.000 A 
ATOM     13  O   UNL     1       2.185   9.188  17.445  0.00  0.00    +0.000 OA
ATOM     14  C   UNL     1       2.407   7.261  18.753  0.00  0.00    +0.000 A 
ATOM     15  C   UNL     1       3.146   6.609  17.761  0.00  0.00    +0.000 A 
ENDROOT
BRANCH   1  17
ATOM     16  N   UNL     1       5.983   5.408  16.707  0.00  0.00    +0.000 N 
ATOM     17  C   UNL     1       4.777   4.792  17.098  0.00  0.00    +0.000 C 
ATOM     18  O   UNL     1       4.475   3.654  16.729  0.00  0.00    +0.000 OA
BRANCH  16  19
ATOM     19  C   UNL     1       6.859   4.646  15.819  0.00  0.00    +0.000 C 
BRANCH  19  21
ATOM     20  C   UNL     1       6.295   3.853  13.429  0.00  0.00    +0.000 C 
ATOM     21  C   UNL     1       6.535   4.791  14.355  0.00  0.00    +0.000 C 
ENDBRANCH  19  21
ENDBRANCH  16  19
BRANCH  16  22
ATOM     22  C   UNL     1       6.471   6.743  17.072  0.00  0.00    +0.000 C 
BRANCH  22  23
ATOM     23  C   UNL     1       7.449   6.738  18.211  0.00  0.00    +0.000 C 
ATOM     24  C   UNL     1       7.727   5.724  19.043  0.00  0.00    +0.000 C 
ENDBRANCH  22  23
ENDBRANCH  16  22
ENDBRANCH   1  17
BRANCH   9  25
ATOM     25  C   UNL     1      -0.638  12.543  19.966  0.00  0.00    +0.000 C 
ATOM     26  O   UNL     1      -1.685  12.483  19.314  0.00  0.00    +0.000 OA
ATOM     27  N   UNL     1      -0.049  13.775  20.273  0.00  0.00    +0.000 N 
BRANCH  27  28
ATOM     28  C   UNL     1       1.214  13.996  20.966  0.00  0.00    +0.000 C 
BRANCH  28  29
ATOM     29  C   UNL     1       1.124  15.094  21.996  0.00  0.00    +0.000 C 
ATOM     30  C   UNL     1       2.075  15.962  22.378  0.00  0.00    +0.000 C 
ENDBRANCH  28  29
ENDBRANCH  27  28
BRANCH  27  31
ATOM     31  C   UNL     1      -0.733  14.979  19.787  0.00  0.00    +0.000 C 
BRANCH  31  32
ATOM     32  C   UNL     1       0.003  15.697  18.678  0.00  0.00    +0.000 C 
ATOM     33  C   UNL     1      -0.243  16.899  18.133  0.00  0.00    +0.000 C 
ENDBRANCH  31  32
ENDBRANCH  27  31
ENDBRANCH   9  25
TORSDOF 10
ENDMDL
MODEL 4
REMARK VINA RESULT:      -7.6      1.124      1.623
REMARK  Name = 
REMARK  10 active torsions:
REMARK  status: ('A' for Active; 'I' for Inactive)
REMARK    1  A    between atoms: C_2  and  C_3
REMARK    2  A    between atoms: C_3  and  N_4
REMARK    3  A    between atoms: N_4  and  C_5
REMARK    4  A    between atoms: C_5  and  C_6
REMARK    5  A    between atoms: C_8  and  C_10
REMARK    6  A    between atoms: C_18  and  C_19
REMARK    7  A    between atoms: N_21  and  C_22
REMARK    8  A    between atoms: N_21  and  C_25
REMARK    9  A    between atoms: C_22  and  C_23
REMARK   10  A    between atoms: C_25  and  C_26
REMARK                            x       y       z     vdW  Elec       q    Type
REMARK                         _______ _______ _______ _____ _____    ______ ____
ROOT
ATOM      1  C   UNL     1       3.759   5.618  18.098  0.00  0.00    +0.000 A 
ATOM      2  C   UNL     1       3.445   5.031  19.339  0.00  0.00    +0.000 A 
ATOM      3  C   UNL     1       2.599   5.681  20.263  0.00  0.00    +0.000 A 
ATOM      4  C   UNL     1       2.082   6.945  19.962  0.00  0.00    +0.000 A 
ATOM      5  O   UNL     1       1.355   7.608  20.924  0.00  0.00    +0.000 OA
ATOM      6  C   UNL     1       0.893   8.877  20.638  0.00  0.00    +0.000 A 
ATOM      7  C   UNL     1       0.200   9.585  21.630  0.00  0.00    +0.000 A 
ATOM      8  C   UNL     1      -0.288  10.890  21.381  0.00  0.00    +0.000 A 
ATOM      9  C   UNL     1      -0.105  11.503  20.136  0.00  0.00    +0.000 A 
ATOM     10  C   UNL     1       0.556  10.772  19.141  0.00  0.00    +0.000 A 
ATOM     11  C   UNL     1       1.072   9.499  19.408  0.00  0.00    +0.000 A 
ATOM     12  C   UNL     1       1.882   8.824  18.395  0.00  0.00    +0.000 A 
ATOM     13  O   UNL     1       2.227   9.394  17.368  0.00  0.00    +0.000 OA
ATOM     14  C   UNL     1       2.348   7.480  18.708  0.00  0.00    +0.000 A 
ATOM     15  C   UNL     1       3.120   6.801  17.759  0.00  0.00    +0.000 A 
ENDROOT
BRANCH   1  17
ATOM     16  N   UNL     1       6.126   5.211  17.256  0.00  0.00    +0.000 N 
ATOM     17  C   UNL     1       4.744   4.944  17.196  0.00  0.00    +0.000 C 
ATOM     18  O   UNL     1       4.276   4.084  16.444  0.00  0.00    +0.000 OA
BRANCH  16  19
ATOM     19  C   UNL     1       6.990   4.438  16.366  0.00  0.00    +0.000 C 
BRANCH  19  21
ATOM     20  C   UNL     1       6.495   4.145  13.850  0.00  0.00    +0.000 C 
ATOM     21  C   UNL     1       6.908   4.842  14.918  0.00  0.00    +0.000 C 
ENDBRANCH  19  21
ENDBRANCH  16  19
BRANCH  16  22
ATOM     22  C   UNL     1       6.818   6.193  18.101  0.00  0.00    +0.000 C 
BRANCH  22  23
ATOM     23  C   UNL     1       7.539   7.256  17.325  0.00  0.00    +0.000 C 
ATOM     24  C   UNL     1       7.866   8.488  17.738  0.00  0.00    +0.000 C 
ENDBRANCH  22  23
ENDBRANCH  16  22
ENDBRANCH   1  17
BRANCH   9  25
ATOM     25  C   UNL     1      -0.644  12.835  19.712  0.00  0.00    +0.000 C 
ATOM     26  O   UNL     1      -1.295  12.824  18.663  0.00  0.00    +0.000 OA
ATOM     27  N   UNL     1      -0.414  14.029  20.407  0.00  0.00    +0.000 N 
BRANCH  27  28
ATOM     28  C   UNL     1       0.391  14.204  21.609  0.00  0.00    +0.000 C 
BRANCH  28  29
ATOM     29  C   UNL     1      -0.418  14.713  22.777  0.00  0.00    +0.000 C 
ATOM     30  C   UNL     1      -1.239  14.026  23.587  0.00  0.00    +0.000 C 
ENDBRANCH  28  29
ENDBRANCH  27  28
BRANCH  27  31
ATOM     31  C   UNL     1      -0.981  15.253  19.830  0.00  0.00    +0.000 C 
BRANCH  31  32
ATOM     32  C   UNL     1      -0.070  15.942  18.838  0.00  0.00    +0.000 C 
ATOM     33  C   UNL     1       0.909  16.834  19.061  0.00  0.00    +0.000 C 
ENDBRANCH  31  32
ENDBRANCH  27  31
ENDBRANCH   9  25
TORSDOF 10
ENDMDL
MODEL 5
REMARK VINA RESULT:      -7.5      1.403      1.998
REMARK  Name = 
REMARK  10 active torsions:
REMARK  status: ('A' for Active; 'I' for Inactive)
REMARK    1  A    between atoms: C_2  and  C_3
REMARK    2  A    between atoms: C_3  and  N_4
REMARK    3  A    between atoms: N_4  and  C_5
REMARK    4  A    between atoms: C_5  and  C_6
REMARK    5  A    between atoms: C_8  and  C_10
REMARK    6  A    between atoms: C_18  and  C_19
REMARK    7  A    between atoms: N_21  and  C_22
REMARK    8  A    between atoms: N_21  and  C_25
REMARK    9  A    between atoms: C_22  and  C_23
REMARK   10  A    between atoms: C_25  and  C_26
REMARK                            x       y       z     vdW  Elec       q    Type
REMARK                         _______ _______ _______ _____ _____    ______ ____
ROOT
ATOM      1  C   UNL     1       3.572   5.307  18.163  0.00  0.00    +0.000 A 
ATOM      2  C   UNL     1       3.117   4.508  19.230  0.00  0.00    +0.000 A 
ATOM      3  C   UNL     1       2.281   5.039  20.236  0.00  0.00    +0.000 A 
ATOM      4  C   UNL     1       1.917   6.388  20.198  0.00  0.00    +0.000 A 
ATOM      5  O   UNL     1       1.199   6.909  21.250  0.00  0.00    +0.000 OA
ATOM      6  C   UNL     1       0.889   8.254  21.229  0.00  0.00    +0.000 A 
ATOM      7  C   UNL     1       0.207   8.809  22.322  0.00  0.00    +0.000 A 
ATOM      8  C   UNL     1      -0.127  10.184  22.345  0.00  0.00    +0.000 A 
ATOM      9  C   UNL     1       0.202  11.024  21.274  0.00  0.00    +0.000 A 
ATOM     10  C   UNL     1       0.849  10.451  20.173  0.00  0.00    +0.000 A 
ATOM     11  C   UNL     1       1.214   9.101  20.175  0.00  0.00    +0.000 A 
ATOM     12  C   UNL     1       2.017   8.569  19.076  0.00  0.00    +0.000 A 
ATOM     13  O   UNL     1       2.487   9.302  18.215  0.00  0.00    +0.000 OA
ATOM     14  C   UNL     1       2.321   7.145  19.105  0.00  0.00    +0.000 A 
ATOM     15  C   UNL     1       3.082   6.600  18.065  0.00  0.00    +0.000 A 
ENDROOT
BRANCH   1  17
ATOM     16  N   UNL     1       5.911   5.065  17.189  0.00  0.00    +0.000 N 
ATOM     17  C   UNL     1       4.541   4.733  17.179  0.00  0.00    +0.000 C 
ATOM     18  O   UNL     1       4.077   3.894  16.403  0.00  0.00    +0.000 OA
BRANCH  16  19
ATOM     19  C   UNL     1       6.764   4.385  16.216  0.00  0.00    +0.000 C 
BRANCH  19  21
ATOM     20  C   UNL     1       6.325   4.027  13.699  0.00  0.00    +0.000 C 
ATOM     21  C   UNL     1       6.516   4.787  14.786  0.00  0.00    +0.000 C 
ENDBRANCH  19  21
ENDBRANCH  16  19
BRANCH  16  22
ATOM     22  C   UNL     1       6.596   6.033  18.055  0.00  0.00    +0.000 C 
BRANCH  22  23
ATOM     23  C   UNL     1       7.323   7.109  17.301  0.00  0.00    +0.000 C 
ATOM     24  C   UNL     1       7.917   8.200  17.805  0.00  0.00    +0.000 C 
ENDBRANCH  22  23
ENDBRANCH  16  22
ENDBRANCH   1  17
BRANCH   9  25
ATOM     25  C   UNL     1      -0.170  12.468  21.130  0.00  0.00    +0.000 C 
ATOM     26  O   UNL     1       0.591  13.260  21.695  0.00  0.00    +0.000 OA
ATOM     27  N   UNL     1      -1.307  12.920  20.450  0.00  0.00    +0.000 N 
BRANCH  27  28
ATOM     28  C   UNL     1      -2.326  12.102  19.805  0.00  0.00    +0.000 C 
BRANCH  28  29
ATOM     29  C   UNL     1      -2.007  11.814  18.359  0.00  0.00    +0.000 C 
ATOM     30  C   UNL     1      -1.772  10.627  17.776  0.00  0.00    +0.000 C 
ENDBRANCH  28  29
ENDBRANCH  27  28
BRANCH  27  31
ATOM     31  C   UNL     1      -1.545  14.367  20.441  0.00  0.00    +0.000 C 
BRANCH  31  32
ATOM     32  C   UNL     1      -0.625  15.135  19.518  0.00  0.00    +0.000 C 
ATOM     33  C   UNL     1       0.074  14.697  18.458  0.00  0.00    +0.000 C 
ENDBRANCH  31  32
ENDBRANCH  27  31
ENDBRANCH   9  25
TORSDOF 10
ENDMDL
MODEL 6
REMARK VINA RESULT:      -7.4      1.459      2.044
REMARK  Name = 
REMARK  10 active torsions:
REMARK  status: ('A' for Active; 'I' for Inactive)
REMARK    1  A    between atoms: C_2  and  C_3
REMARK    2  A    between atoms: C_3  and  N_4
REMARK    3  A    between atoms: N_4  and  C_5
REMARK    4  A    between atoms: C_5  and  C_6
REMARK    5  A    between atoms: C_8  and  C_10
REMARK    6  A    between atoms: C_18  and  C_19
REMARK    7  A    between atoms: N_21  and  C_22
REMARK    8  A    between atoms: N_21  and  C_25
REMARK    9  A    between atoms: C_22  and  C_23
REMARK   10  A    between atoms: C_25  and  C_26
REMARK                            x       y       z     vdW  Elec       q    Type
REMARK                         _______ _______ _______ _____ _____    ______ ____
ROOT
ATOM      1  C   UNL     1       3.516   4.862  18.150  0.00  0.00    +0.000 A 
ATOM      2  C   UNL     1       3.119   4.209  19.333  0.00  0.00    +0.000 A 
ATOM      3  C   UNL     1       2.368   4.880  20.323  0.00  0.00    +0.000 A 
ATOM      4  C   UNL     1       2.033   6.225  20.148  0.00  0.00    +0.000 A 
ATOM      5  O   UNL     1       1.402   6.888  21.175  0.00  0.00    +0.000 OA
ATOM      6  C   UNL     1       1.122   8.230  21.015  0.00  0.00    +0.000 A 
ATOM      7  C   UNL     1       0.530   8.931  22.076  0.00  0.00    +0.000 A 
ATOM      8  C   UNL     1       0.230  10.308  21.958  0.00  0.00    +0.000 A 
ATOM      9  C   UNL     1       0.502  11.006  20.774  0.00  0.00    +0.000 A 
ATOM     10  C   UNL     1       1.058  10.288  19.709  0.00  0.00    +0.000 A 
ATOM     11  C   UNL     1       1.391   8.937  19.848  0.00  0.00    +0.000 A 
ATOM     12  C   UNL     1       2.103   8.255  18.769  0.00  0.00    +0.000 A 
ATOM     13  O   UNL     1       2.528   8.866  17.797  0.00  0.00    +0.000 OA
ATOM     14  C   UNL     1       2.376   6.835  18.948  0.00  0.00    +0.000 A 
ATOM     15  C   UNL     1       3.050   6.149  17.932  0.00  0.00    +0.000 A 
ENDROOT
BRANCH   1  17
ATOM     16  N   UNL     1       5.486   4.780  16.540  0.00  0.00    +0.000 N 
ATOM     17  C   UNL     1       4.401   4.147  17.180  0.00  0.00    +0.000 C 
ATOM     18  O   UNL     1       4.164   2.945  17.029  0.00  0.00    +0.000 OA
BRANCH  16  19
ATOM     19  C   UNL     1       6.314   3.953  15.664  0.00  0.00    +0.000 C 
BRANCH  19  21
ATOM     20  C   UNL     1       6.230   3.659  13.102  0.00  0.00    +0.000 C 
ATOM     21  C   UNL     1       6.316   4.388  14.223  0.00  0.00    +0.000 C 
ENDBRANCH  19  21
ENDBRANCH  16  19
BRANCH  16  22
ATOM     22  C   UNL     1       5.888   6.189  16.633  0.00  0.00    +0.000 C 
BRANCH  22  23
ATOM     23  C   UNL     1       7.161   6.405  17.399  0.00  0.00    +0.000 C 
ATOM     24  C   UNL     1       7.454   5.972  18.634  0.00  0.00    +0.000 C 
ENDBRANCH  22  23
ENDBRANCH  16  22
ENDBRANCH   1  17
BRANCH   9  25
ATOM     25  C   UNL     1       0.154  12.434  20.484  0.00  0.00    +0.000 C 
ATOM     26  O   UNL     1       1.008  13.258  20.827  0.00  0.00    +0.000 OA
ATOM     27  N   UNL     1      -1.054  12.843  19.908  0.00  0.00    +0.000 N 
BRANCH  27  28
ATOM     28  C   UNL     1      -2.176  11.996  19.525  0.00  0.00    +0.000 C 
BRANCH  28  29
ATOM     29  C   UNL     1      -2.093  11.541  18.089  0.00  0.00    +0.000 C 
ATOM     30  C   UNL     1      -2.025  10.288  17.612  0.00  0.00    +0.000 C 
ENDBRANCH  28  29
ENDBRANCH  27  28
BRANCH  27  31
ATOM     31  C   UNL     1      -1.251  14.287  19.732  0.00  0.00    +0.000 C 
BRANCH  31  32
ATOM     32  C   UNL     1      -1.805  14.983  20.955  0.00  0.00    +0.000 C 
ATOM     33  C   UNL     1      -2.811  14.611  21.763  0.00  0.00    +0.000 C 
ENDBRANCH  31  32
ENDBRANCH  27  31
ENDBRANCH   9  25
TORSDOF 10
ENDMDL
MODEL 7
REMARK VINA RESULT:      -7.3      1.015      9.387
REMARK  Name = 
REMARK  10 active torsions:
REMARK  status: ('A' for Active; 'I' for Inactive)
REMARK    1  A    between atoms: C_2  and  C_3
REMARK    2  A    between atoms: C_3  and  N_4
REMARK    3  A    between atoms: N_4  and  C_5
REMARK    4  A    between atoms: C_5  and  C_6
REMARK    5  A    between atoms: C_8  and  C_10
REMARK    6  A    between atoms: C_18  and  C_19
REMARK    7  A    between atoms: N_21  and  C_22
REMARK    8  A    between atoms: N_21  and  C_25
REMARK    9  A    between atoms: C_22  and  C_23
REMARK   10  A    between atoms: C_25  and  C_26
REMARK                            x       y       z     vdW  Elec       q    Type
REMARK                         _______ _______ _______ _____ _____    ______ ____
ROOT
ATOM      1  C   UNL     1       0.013  11.223  19.757  0.00  0.00    +0.000 A 
ATOM      2  C   UNL     1      -0.332  10.686  21.013  0.00  0.00    +0.000 A 
ATOM      3  C   UNL     1       0.141   9.421  21.422  0.00  0.00    +0.000 A 
ATOM      4  C   UNL     1       0.943   8.666  20.561  0.00  0.00    +0.000 A 
ATOM      5  O   UNL     1       1.296   7.390  20.935  0.00  0.00    +0.000 OA
ATOM      6  C   UNL     1       2.044   6.633  20.055  0.00  0.00    +0.000 A 
ATOM      7  C   UNL     1       2.362   5.311  20.400  0.00  0.00    +0.000 A 
ATOM      8  C   UNL     1       3.122   4.497  19.527  0.00  0.00    +0.000 A 
ATOM      9  C   UNL     1       3.589   4.993  18.304  0.00  0.00    +0.000 A 
ATOM     10  C   UNL     1       3.298   6.325  17.987  0.00  0.00    +0.000 A 
ATOM     11  C   UNL     1       2.510   7.110  18.836  0.00  0.00    +0.000 A 
ATOM     12  C   UNL     1       2.102   8.447  18.408  0.00  0.00    +0.000 A 
ATOM     13  O   UNL     1       2.325   8.852  17.275  0.00  0.00    +0.000 OA
ATOM     14  C   UNL     1       1.327   9.238  19.355  0.00  0.00    +0.000 A 
ATOM     15  C   UNL     1       0.925  10.525  18.981  0.00  0.00    +0.000 A 
ENDROOT
BRANCH   1  17
ATOM     16  N   UNL     1      -0.285  13.744  19.941  0.00  0.00    +0.000 N 
ATOM     17  C   UNL     1      -0.597  12.517  19.321  0.00  0.00    +0.000 C 
ATOM     18  O   UNL     1      -1.338  12.452  18.337  0.00  0.00    +0.000 OA
BRANCH  16  19
ATOM     19  C   UNL     1      -0.898  14.945  19.378  0.00  0.00    +0.000 C 
BRANCH  19  21
ATOM     20  C   UNL     1      -0.042  17.088  18.223  0.00  0.00    +0.000 C 
ATOM     21  C   UNL     1       0.077  16.047  19.057  0.00  0.00    +0.000 C 
ENDBRANCH  19  21
ENDBRANCH  16  19
BRANCH  16  22
ATOM     22  C   UNL     1       0.581  13.970  21.105  0.00  0.00    +0.000 C 
BRANCH  22  23
ATOM     23  C   UNL     1      -0.166  14.386  22.340  0.00  0.00    +0.000 C 
ATOM     24  C   UNL     1      -1.087  13.682  23.012  0.00  0.00    +0.000 C 
ENDBRANCH  22  23
ENDBRANCH  16  22
ENDBRANCH   1  17
BRANCH   9  25
ATOM     25  C   UNL     1       4.475   4.273  17.333  0.00  0.00    +0.000 C 
ATOM     26  O   UNL     1       4.274   3.058  17.246  0.00  0.00    +0.000 OA
ATOM     27  N   UNL     1       5.490   4.892  16.594  0.00  0.00    +0.000 N 
BRANCH  27  28
ATOM     28  C   UNL     1       5.888   6.293  16.649  0.00  0.00    +0.000 C 
BRANCH  28  29
ATOM     29  C   UNL     1       6.999   6.540  17.639  0.00  0.00    +0.000 C 
ATOM     30  C   UNL     1       7.806   7.608  17.739  0.00  0.00    +0.000 C 
ENDBRANCH  28  29
ENDBRANCH  27  28
BRANCH  27  31
ATOM     31  C   UNL     1       6.294   4.031  15.718  0.00  0.00    +0.000 C 
BRANCH  31  32
ATOM     32  C   UNL     1       6.216   4.403  14.254  0.00  0.00    +0.000 C 
ATOM     33  C   UNL     1       5.381   3.949  13.305  0.00  0.00    +0.000 C 
ENDBRANCH  31  32
ENDBRANCH  27  31
ENDBRANCH   9  25
TORSDOF 10
ENDMDL
MODEL 8
REMARK VINA RESULT:      -7.2      1.029      9.382
REMARK  Name = 
REMARK  10 active torsions:
REMARK  status: ('A' for Active; 'I' for Inactive)
REMARK    1  A    between atoms: C_2  and  C_3
REMARK    2  A    between atoms: C_3  and  N_4
REMARK    3  A    between atoms: N_4  and  C_5
REMARK    4  A    between atoms: C_5  and  C_6
REMARK    5  A    between atoms: C_8  and  C_10
REMARK    6  A    between atoms: C_18  and  C_19
REMARK    7  A    between atoms: N_21  and  C_22
REMARK    8  A    between atoms: N_21  and  C_25
REMARK    9  A    between atoms: C_22  and  C_23
REMARK   10  A    between atoms: C_25  and  C_26
REMARK                            x       y       z     vdW  Elec       q    Type
REMARK                         _______ _______ _______ _____ _____    ______ ____
ROOT
ATOM      1  C   UNL     1      -0.181  10.810  20.260  0.00  0.00    +0.000 A 
ATOM      2  C   UNL     1      -0.434  10.116  21.460  0.00  0.00    +0.000 A 
ATOM      3  C   UNL     1       0.166   8.865  21.721  0.00  0.00    +0.000 A 
ATOM      4  C   UNL     1       1.004   8.283  20.766  0.00  0.00    +0.000 A 
ATOM      5  O   UNL     1       1.484   7.013  20.994  0.00  0.00    +0.000 OA
ATOM      6  C   UNL     1       2.268   6.425  20.022  0.00  0.00    +0.000 A 
ATOM      7  C   UNL     1       2.717   5.111  20.217  0.00  0.00    +0.000 A 
ATOM      8  C   UNL     1       3.519   4.467  19.246  0.00  0.00    +0.000 A 
ATOM      9  C   UNL     1       3.898   5.128  18.071  0.00  0.00    +0.000 A 
ATOM     10  C   UNL     1       3.476   6.453  17.904  0.00  0.00    +0.000 A 
ATOM     11  C   UNL     1       2.648   7.068  18.849  0.00  0.00    +0.000 A 
ATOM     12  C   UNL     1       2.106   8.397  18.575  0.00  0.00    +0.000 A 
ATOM     13  O   UNL     1       2.254   8.937  17.487  0.00  0.00    +0.000 OA
ATOM     14  C   UNL     1       1.294   9.010  19.619  0.00  0.00    +0.000 A 
ATOM     15  C   UNL     1       0.765  10.285  19.394  0.00  0.00    +0.000 A 
ENDROOT
BRANCH   1  17
ATOM     16  N   UNL     1      -0.485  13.329  20.464  0.00  0.00    +0.000 N 
ATOM     17  C   UNL     1      -0.921  12.079  19.979  0.00  0.00    +0.000 C 
ATOM     18  O   UNL     1      -1.898  11.971  19.233  0.00  0.00    +0.000 OA
BRANCH  16  19
ATOM     19  C   UNL     1      -1.260  14.501  20.063  0.00  0.00    +0.000 C 
BRANCH  19  21
ATOM     20  C   UNL     1      -3.432  14.467  21.456  0.00  0.00    +0.000 C 
ATOM     21  C   UNL     1      -2.245  14.976  21.098  0.00  0.00    +0.000 C 
ENDBRANCH  19  21
ENDBRANCH  16  19
BRANCH  16  22
ATOM     22  C   UNL     1       0.656  13.604  21.345  0.00  0.00    +0.000 C 
BRANCH  22  23
ATOM     23  C   UNL     1       1.979  13.613  20.635  0.00  0.00    +0.000 C 
ATOM     24  C   UNL     1       3.008  14.448  20.838  0.00  0.00    +0.000 C 
ENDBRANCH  22  23
ENDBRANCH  16  22
ENDBRANCH   1  17
BRANCH   9  25
ATOM     25  C   UNL     1       4.813   4.600  17.008  0.00  0.00    +0.000 C 
ATOM     26  O   UNL     1       4.553   3.458  16.618  0.00  0.00    +0.000 OA
ATOM     27  N   UNL     1       5.913   5.302  16.503  0.00  0.00    +0.000 N 
BRANCH  27  28
ATOM     28  C   UNL     1       6.382   6.618  16.920  0.00  0.00    +0.000 C 
BRANCH  28  29
ATOM     29  C   UNL     1       7.469   6.540  17.963  0.00  0.00    +0.000 C 
ATOM     30  C   UNL     1       7.612   5.648  18.957  0.00  0.00    +0.000 C 
ENDBRANCH  28  29
ENDBRANCH  27  28
BRANCH  27  31
ATOM     31  C   UNL     1       6.731   4.620  15.494  0.00  0.00    +0.000 C 
BRANCH  31  32
ATOM     32  C   UNL     1       6.075   4.524  14.135  0.00  0.00    +0.000 C 
ATOM     33  C   UNL     1       6.399   3.750  13.087  0.00  0.00    +0.000 C 
ENDBRANCH  31  32
ENDBRANCH  27  31
ENDBRANCH   9  25
TORSDOF 10
ENDMDL
MODEL 9
REMARK VINA RESULT:      -7.2      1.354      9.490
REMARK  Name = 
REMARK  10 active torsions:
REMARK  status: ('A' for Active; 'I' for Inactive)
REMARK    1  A    between atoms: C_2  and  C_3
REMARK    2  A    between atoms: C_3  and  N_4
REMARK    3  A    between atoms: N_4  and  C_5
REMARK    4  A    between atoms: C_5  and  C_6
REMARK    5  A    between atoms: C_8  and  C_10
REMARK    6  A    between atoms: C_18  and  C_19
REMARK    7  A    between atoms: N_21  and  C_22
REMARK    8  A    between atoms: N_21  and  C_25
REMARK    9  A    between atoms: C_22  and  C_23
REMARK   10  A    between atoms: C_25  and  C_26
REMARK                            x       y       z     vdW  Elec       q    Type
REMARK                         _______ _______ _______ _____ _____    ______ ____
ROOT
ATOM      1  C   UNL     1      -0.155  10.801  20.131  0.00  0.00    +0.000 A 
ATOM      2  C   UNL     1      -0.378  10.103  21.334  0.00  0.00    +0.000 A 
ATOM      3  C   UNL     1       0.249   8.864  21.587  0.00  0.00    +0.000 A 
ATOM      4  C   UNL     1       1.085   8.297  20.621  0.00  0.00    +0.000 A 
ATOM      5  O   UNL     1       1.593   7.037  20.842  0.00  0.00    +0.000 OA
ATOM      6  C   UNL     1       2.374   6.464  19.859  0.00  0.00    +0.000 A 
ATOM      7  C   UNL     1       2.850   5.158  20.048  0.00  0.00    +0.000 A 
ATOM      8  C   UNL     1       3.651   4.529  19.066  0.00  0.00    +0.000 A 
ATOM      9  C   UNL     1       4.001   5.197  17.886  0.00  0.00    +0.000 A 
ATOM     10  C   UNL     1       3.551   6.513  17.725  0.00  0.00    +0.000 A 
ATOM     11  C   UNL     1       2.725   7.113  18.681  0.00  0.00    +0.000 A 
ATOM     12  C   UNL     1       2.154   8.432  18.415  0.00  0.00    +0.000 A 
ATOM     13  O   UNL     1       2.277   8.973  17.324  0.00  0.00    +0.000 OA
ATOM     14  C   UNL     1       1.345   9.029  19.469  0.00  0.00    +0.000 A 
ATOM     15  C   UNL     1       0.788  10.294  19.251  0.00  0.00    +0.000 A 
ENDROOT
BRANCH   1  17
ATOM     16  N   UNL     1      -1.046  13.085  20.814  0.00  0.00    +0.000 N 
ATOM     17  C   UNL     1      -0.923  12.055  19.859  0.00  0.00    +0.000 C 
ATOM     18  O   UNL     1      -1.382  12.162  18.719  0.00  0.00    +0.000 OA
BRANCH  16  19
ATOM     19  C   UNL     1      -1.767  14.288  20.401  0.00  0.00    +0.000 C 
BRANCH  19  21
ATOM     20  C   UNL     1      -0.465  15.910  18.874  0.00  0.00    +0.000 C 
ATOM     21  C   UNL     1      -0.879  15.457  20.065  0.00  0.00    +0.000 C 
ENDBRANCH  19  21
ENDBRANCH  16  19
BRANCH  16  22
ATOM     22  C   UNL     1      -0.547  13.098  22.194  0.00  0.00    +0.000 C 
BRANCH  22  23
ATOM     23  C   UNL     1      -1.635  13.102  23.229  0.00  0.00    +0.000 C 
ATOM     24  C   UNL     1      -2.620  12.205  23.381  0.00  0.00    +0.000 C 
ENDBRANCH  22  23
ENDBRANCH  16  22
ENDBRANCH   1  17
BRANCH   9  25
ATOM     25  C   UNL     1       4.911   4.685  16.811  0.00  0.00    +0.000 C 
ATOM     26  O   UNL     1       4.338   4.253  15.806  0.00  0.00    +0.000 OA
ATOM     27  N   UNL     1       6.306   4.648  16.920  0.00  0.00    +0.000 N 
BRANCH  27  28
ATOM     28  C   UNL     1       7.109   5.051  18.067  0.00  0.00    +0.000 C 
BRANCH  28  29
ATOM     29  C   UNL     1       7.276   6.548  18.158  0.00  0.00    +0.000 C 
ATOM     30  C   UNL     1       7.569   7.417  17.178  0.00  0.00    +0.000 C 
ENDBRANCH  28  29
ENDBRANCH  27  28
BRANCH  27  31
ATOM     31  C   UNL     1       7.045   4.075  15.789  0.00  0.00    +0.000 C 
BRANCH  31  32
ATOM     32  C   UNL     1       6.813   4.792  14.478  0.00  0.00    +0.000 C 
ATOM     33  C   UNL     1       7.710   5.244  13.586  0.00  0.00    +0.000 C 
ENDBRANCH  31  32
ENDBRANCH  27  31
ENDBRANCH   9  25
TORSDOF 10
ENDMDL
