MODEL 1
REMARK VINA RESULT:      -8.4      0.000      0.000
REMARK  Name = 
REMARK  4 active torsions:
REMARK  status: ('A' for Active; 'I' for Inactive)
REMARK    1  A    between atoms: C_2  and  C_15
REMARK    2  A    between atoms: N_3  and  C_4
REMARK    3  A    between atoms: C_4  and  C_5
REMARK    4  A    between atoms: C_5  and  C_6
REMARK                            x       y       z     vdW  Elec       q    Type
REMARK                         _______ _______ _______ _____ _____    ______ ____
ROOT
ATOM      1  C   UNL     1       5.668   6.635  17.467  0.00  0.00    +0.000 C 
ENDROOT
BRANCH   1   4
ATOM      2  O   UNL     1       7.636   4.794  16.653  0.00  0.00    +0.000 OA
ATOM      3  C   UNL     1       6.884   5.274  15.811  0.00  0.00    +0.000 C 
ATOM      4  N   UNL     1       5.901   6.196  16.104  0.00  0.00    +0.000 N 
ATOM      5  H   UNL     1       5.351   6.546  15.324  0.00  0.00    +0.000 HD
BRANCH   3   6
ATOM      6  C   UNL     1       6.979   4.875  14.370  0.00  0.00    +0.000 A 
ATOM      7  C   UNL     1       6.163   3.853  13.896  0.00  0.00    +0.000 A 
ATOM      8  C   UNL     1       6.243   3.516  12.550  0.00  0.00    +0.000 A 
ATOM      9  C   UNL     1       7.132   4.203  11.729  0.00  0.00    +0.000 A 
ATOM     10  C   UNL     1       7.912   5.206  12.290  0.00  0.00    +0.000 A 
ATOM     11  N   UNL     1       7.862   5.565  13.593  0.00  0.00    +0.000 NA
ENDBRANCH   3   6
ENDBRANCH   1   4
BRANCH   1  12
ATOM     12  C   UNL     1       4.268   6.294  17.973  0.00  0.00    +0.000 C 
BRANCH  12  13
ATOM     13  C   UNL     1       4.240   5.013  18.748  0.00  0.00    +0.000 A 
ATOM     14  C   UNL     1       5.265   4.092  18.847  0.00  0.00    +0.000 A 
ATOM     15  N   UNL     1       4.838   3.052  19.628  0.00  0.00    +0.000 N 
ATOM     16  C   UNL     1       3.546   3.267  20.044  0.00  0.00    +0.000 A 
ATOM     17  C   UNL     1       2.709   2.474  20.839  0.00  0.00    +0.000 A 
ATOM     18  C   UNL     1       1.422   2.951  21.103  0.00  0.00    +0.000 A 
ATOM     19  C   UNL     1       0.995   4.176  20.599  0.00  0.00    +0.000 A 
ATOM     20  C   UNL     1       1.844   4.957  19.806  0.00  0.00    +0.000 A 
ATOM     21  C   UNL     1       3.145   4.496  19.516  0.00  0.00    +0.000 A 
ATOM     22  H   UNL     1       5.386   2.236  19.865  0.00  0.00    +0.000 HD
ENDBRANCH  12  13
ENDBRANCH   1  12
TORSDOF 4
ENDMDL
MODEL 2
REMARK VINA RESULT:      -8.1      1.306      1.709
REMARK  Name = 
REMARK  4 active torsions:
REMARK  status: ('A' for Active; 'I' for Inactive)
REMARK    1  A    between atoms: C_2  and  C_15
REMARK    2  A    between atoms: N_3  and  C_4
REMARK    3  A    between atoms: C_4  and  C_5
REMARK    4  A    between atoms: C_5  and  C_6
REMARK                            x       y       z     vdW  Elec       q    Type
REMARK                         _______ _______ _______ _____ _____    ______ ____
ROOT
ATOM      1  C   UNL     1       6.163   4.576  18.439  0.00  0.00    +0.000 C 
ENDROOT
BRANCH   1   4
ATOM      2  O   UNL     1       7.491   6.229  16.587  0.00  0.00    +0.000 OA
ATOM      3  C   UNL     1       6.924   5.218  16.185  0.00  0.00    +0.000 C 
ATOM      4  N   UNL     1       6.231   4.354  17.008  0.00  0.00    +0.000 N 
ATOM      5  H   UNL     1       5.779   3.559  16.563  0.00  0.00    +0.000 HD
BRANCH   3   6
ATOM      6  C   UNL     1       6.953   4.837  14.736  0.00  0.00    +0.000 A 
ATOM      7  C   UNL     1       6.085   3.850  14.279  0.00  0.00    +0.000 A 
ATOM      8  C   UNL     1       6.106   3.531  12.926  0.00  0.00    +0.000 A 
ATOM      9  C   UNL     1       6.988   4.198  12.083  0.00  0.00    +0.000 A 
ATOM     10  C   UNL     1       7.822   5.166  12.628  0.00  0.00    +0.000 A 
ATOM     11  N   UNL     1       7.831   5.507  13.937  0.00  0.00    +0.000 NA
ENDBRANCH   3   6
ENDBRANCH   1   4
BRANCH   1  12
ATOM     12  C   UNL     1       5.074   5.570  18.839  0.00  0.00    +0.000 C 
BRANCH  12  13
ATOM     13  C   UNL     1       3.698   5.003  18.677  0.00  0.00    +0.000 A 
ATOM     14  C   UNL     1       2.866   5.169  17.587  0.00  0.00    +0.000 A 
ATOM     15  N   UNL     1       1.692   4.511  17.835  0.00  0.00    +0.000 N 
ATOM     16  C   UNL     1       1.732   3.915  19.073  0.00  0.00    +0.000 A 
ATOM     17  C   UNL     1       0.763   3.158  19.742  0.00  0.00    +0.000 A 
ATOM     18  C   UNL     1       1.082   2.672  21.013  0.00  0.00    +0.000 A 
ATOM     19  C   UNL     1       2.325   2.928  21.586  0.00  0.00    +0.000 A 
ATOM     20  C   UNL     1       3.282   3.688  20.904  0.00  0.00    +0.000 A 
ATOM     21  C   UNL     1       2.983   4.198  19.623  0.00  0.00    +0.000 A 
ATOM     22  H   UNL     1       0.902   4.469  17.206  0.00  0.00    +0.000 HD
ENDBRANCH  12  13
ENDBRANCH   1  12
TORSDOF 4
ENDMDL
MODEL 3
REMARK VINA RESULT:      -8.0      1.195      1.267
REMARK  Name = 
REMARK  4 active torsions:
REMARK  status: ('A' for Active; 'I' for Inactive)
REMARK    1  A    between atoms: C_2  and  C_15
REMARK    2  A    between atoms: N_3  and  C_4
REMARK    3  A    between atoms: C_4  and  C_5
REMARK    4  A    between atoms: C_5  and  C_6
REMARK                            x       y       z     vdW  Elec       q    Type
REMARK                         _______ _______ _______ _____ _____    ______ ____
ROOT
ATOM      1  C   UNL     1       5.099   6.356  17.632  0.00  0.00    +0.000 C 
ENDROOT
BRANCH   1   4
ATOM      2  O   UNL     1       7.030   4.428  16.939  0.00  0.00    +0.000 OA
ATOM      3  C   UNL     1       6.459   5.048  16.048  0.00  0.00    +0.000 C 
ATOM      4  N   UNL     1       5.512   6.024  16.283  0.00  0.00    +0.000 N 
ATOM      5  H   UNL     1       5.121   6.489  15.469  0.00  0.00    +0.000 HD
BRANCH   3   6
ATOM      6  C   UNL     1       6.750   4.774  14.604  0.00  0.00    +0.000 A 
ATOM      7  C   UNL     1       5.987   3.827  13.928  0.00  0.00    +0.000 A 
ATOM      8  C   UNL     1       6.253   3.607  12.581  0.00  0.00    +0.000 A 
ATOM      9  C   UNL     1       7.266   4.330  11.960  0.00  0.00    +0.000 A 
ATOM     10  C   UNL     1       7.981   5.251  12.716  0.00  0.00    +0.000 A 
ATOM     11  N   UNL     1       7.752   5.496  14.026  0.00  0.00    +0.000 NA
ENDBRANCH   3   6
ENDBRANCH   1   4
BRANCH   1  12
ATOM     12  C   UNL     1       3.585   6.309  17.823  0.00  0.00    +0.000 C 
BRANCH  12  13
ATOM     13  C   UNL     1       3.077   4.912  18.004  0.00  0.00    +0.000 A 
ATOM     14  C   UNL     1       2.937   3.957  17.015  0.00  0.00    +0.000 A 
ATOM     15  N   UNL     1       2.425   2.821  17.582  0.00  0.00    +0.000 N 
ATOM     16  C   UNL     1       2.219   3.010  18.928  0.00  0.00    +0.000 A 
ATOM     17  C   UNL     1       1.704   2.137  19.893  0.00  0.00    +0.000 A 
ATOM     18  C   UNL     1       1.604   2.607  21.206  0.00  0.00    +0.000 A 
ATOM     19  C   UNL     1       2.012   3.897  21.538  0.00  0.00    +0.000 A 
ATOM     20  C   UNL     1       2.525   4.757  20.560  0.00  0.00    +0.000 A 
ATOM     21  C   UNL     1       2.628   4.311  19.225  0.00  0.00    +0.000 A 
ATOM     22  H   UNL     1       2.219   1.964  17.087  0.00  0.00    +0.000 HD
ENDBRANCH  12  13
ENDBRANCH   1  12
TORSDOF 4
ENDMDL
MODEL 4
REMARK VINA RESULT:      -8.0      1.608      1.953
REMARK  Name = 
REMARK  4 active torsions:
REMARK  status: ('A' for Active; 'I' for Inactive)
REMARK    1  A    between atoms: C_2  and  C_15
REMARK    2  A    between atoms: N_3  and  C_4
REMARK    3  A    between atoms: C_4  and  C_5
REMARK    4  A    between atoms: C_5  and  C_6
REMARK                            x       y       z     vdW  Elec       q    Type
REMARK                         _______ _______ _______ _____ _____    ______ ____
ROOT
ATOM      1  C   UNL     1       5.285   6.026  17.681  0.00  0.00    +0.000 C 
ENDROOT
BRANCH   1   4
ATOM      2  O   UNL     1       5.486   3.547  16.362  0.00  0.00    +0.000 OA
ATOM      3  C   UNL     1       5.876   4.560  15.791  0.00  0.00    +0.000 C 
ATOM      4  N   UNL     1       5.838   5.818  16.357  0.00  0.00    +0.000 N 
ATOM      5  H   UNL     1       6.211   6.583  15.801  0.00  0.00    +0.000 HD
BRANCH   3   6
ATOM      6  C   UNL     1       6.427   4.501  14.399  0.00  0.00    +0.000 A 
ATOM      7  C   UNL     1       5.866   3.614  13.486  0.00  0.00    +0.000 A 
ATOM      8  C   UNL     1       6.371   3.594  12.191  0.00  0.00    +0.000 A 
ATOM      9  C   UNL     1       7.414   4.450  11.854  0.00  0.00    +0.000 A 
ATOM     10  C   UNL     1       7.917   5.298  12.832  0.00  0.00    +0.000 A 
ATOM     11  N   UNL     1       7.452   5.350  14.102  0.00  0.00    +0.000 NA
ENDBRANCH   3   6
ENDBRANCH   1   4
BRANCH   1  12
ATOM     12  C   UNL     1       3.913   6.697  17.657  0.00  0.00    +0.000 C 
BRANCH  12  13
ATOM     13  C   UNL     1       3.020   6.204  18.754  0.00  0.00    +0.000 A 
ATOM     14  C   UNL     1       2.688   6.886  19.909  0.00  0.00    +0.000 A 
ATOM     15  N   UNL     1       1.868   6.089  20.661  0.00  0.00    +0.000 N 
ATOM     16  C   UNL     1       1.655   4.889  20.024  0.00  0.00    +0.000 A 
ATOM     17  C   UNL     1       0.903   3.777  20.422  0.00  0.00    +0.000 A 
ATOM     18  C   UNL     1       0.866   2.677  19.561  0.00  0.00    +0.000 A 
ATOM     19  C   UNL     1       1.548   2.694  18.347  0.00  0.00    +0.000 A 
ATOM     20  C   UNL     1       2.296   3.814  17.965  0.00  0.00    +0.000 A 
ATOM     21  C   UNL     1       2.357   4.935  18.818  0.00  0.00    +0.000 A 
ATOM     22  H   UNL     1       1.476   6.336  21.558  0.00  0.00    +0.000 HD
ENDBRANCH  12  13
ENDBRANCH   1  12
TORSDOF 4
ENDMDL
MODEL 5
REMARK VINA RESULT:      -7.9      2.917      4.316
REMARK  Name = 
REMARK  4 active torsions:
REMARK  status: ('A' for Active; 'I' for Inactive)
REMARK    1  A    between atoms: C_2  and  C_15
REMARK    2  A    between atoms: N_3  and  C_4
REMARK    3  A    between atoms: C_4  and  C_5
REMARK    4  A    between atoms: C_5  and  C_6
REMARK                            x       y       z     vdW  Elec       q    Type
REMARK                         _______ _______ _______ _____ _____    ______ ____
ROOT
ATOM      1  C   UNL     1       3.740   2.165  17.777  0.00  0.00    +0.000 C 
ENDROOT
BRANCH   1   4
ATOM      2  O   UNL     1       5.031   3.841  15.921  0.00  0.00    +0.000 OA
ATOM      3  C   UNL     1       5.291   3.961  17.113  0.00  0.00    +0.000 C 
ATOM      4  N   UNL     1       4.727   3.177  18.099  0.00  0.00    +0.000 N 
ATOM      5  H   UNL     1       5.034   3.347  19.053  0.00  0.00    +0.000 HD
BRANCH   3   6
ATOM      6  C   UNL     1       6.257   4.999  17.596  0.00  0.00    +0.000 A 
ATOM      7  C   UNL     1       6.379   6.191  16.889  0.00  0.00    +0.000 A 
ATOM      8  C   UNL     1       7.259   7.154  17.368  0.00  0.00    +0.000 A 
ATOM      9  C   UNL     1       7.986   6.896  18.525  0.00  0.00    +0.000 A 
ATOM     10  C   UNL     1       7.806   5.675  19.162  0.00  0.00    +0.000 A 
ATOM     11  N   UNL     1       6.958   4.713  18.730  0.00  0.00    +0.000 NA
ENDBRANCH   3   6
ENDBRANCH   1   4
BRANCH   1  12
ATOM     12  C   UNL     1       2.310   2.703  17.775  0.00  0.00    +0.000 C 
BRANCH  12  13
ATOM     13  C   UNL     1       2.021   3.552  18.974  0.00  0.00    +0.000 A 
ATOM     14  C   UNL     1       1.610   3.105  20.215  0.00  0.00    +0.000 A 
ATOM     15  N   UNL     1       1.435   4.191  21.030  0.00  0.00    +0.000 N 
ATOM     16  C   UNL     1       1.720   5.349  20.347  0.00  0.00    +0.000 A 
ATOM     17  C   UNL     1       1.667   6.683  20.771  0.00  0.00    +0.000 A 
ATOM     18  C   UNL     1       2.015   7.672  19.847  0.00  0.00    +0.000 A 
ATOM     19  C   UNL     1       2.407   7.337  18.553  0.00  0.00    +0.000 A 
ATOM     20  C   UNL     1       2.454   5.999  18.146  0.00  0.00    +0.000 A 
ATOM     21  C   UNL     1       2.100   4.981  19.056  0.00  0.00    +0.000 A 
ATOM     22  H   UNL     1       1.134   4.155  21.994  0.00  0.00    +0.000 HD
ENDBRANCH  12  13
ENDBRANCH   1  12
TORSDOF 4
ENDMDL
MODEL 6
REMARK VINA RESULT:      -7.9      1.168      1.310
REMARK  Name = 
REMARK  4 active torsions:
REMARK  status: ('A' for Active; 'I' for Inactive)
REMARK    1  A    between atoms: C_2  and  C_15
REMARK    2  A    between atoms: N_3  and  C_4
REMARK    3  A    between atoms: C_4  and  C_5
REMARK    4  A    between atoms: C_5  and  C_6
REMARK                            x       y       z     vdW  Elec       q    Type
REMARK                         _______ _______ _______ _____ _____    ______ ____
ROOT
ATOM      1  C   UNL     1       5.602   6.001  17.996  0.00  0.00    +0.000 C 
ENDROOT
BRANCH   1   4
ATOM      2  O   UNL     1       7.852   4.720  16.892  0.00  0.00    +0.000 OA
ATOM      3  C   UNL     1       6.936   5.059  16.151  0.00  0.00    +0.000 C 
ATOM      4  N   UNL     1       5.800   5.709  16.590  0.00  0.00    +0.000 N 
ATOM      5  H   UNL     1       5.115   5.965  15.884  0.00  0.00    +0.000 HD
BRANCH   3   6
ATOM      6  C   UNL     1       6.984   4.778  14.680  0.00  0.00    +0.000 A 
ATOM      7  C   UNL     1       6.133   3.815  14.148  0.00  0.00    +0.000 A 
ATOM      8  C   UNL     1       6.170   3.587  12.777  0.00  0.00    +0.000 A 
ATOM      9  C   UNL     1       7.052   4.320  11.990  0.00  0.00    +0.000 A 
ATOM     10  C   UNL     1       7.870   5.258  12.608  0.00  0.00    +0.000 A 
ATOM     11  N   UNL     1       7.862   5.510  13.938  0.00  0.00    +0.000 NA
ENDBRANCH   3   6
ENDBRANCH   1   4
BRANCH   1  12
ATOM     12  C   UNL     1       5.536   4.746  18.864  0.00  0.00    +0.000 C 
BRANCH  12  13
ATOM     13  C   UNL     1       4.351   3.890  18.539  0.00  0.00    +0.000 A 
ATOM     14  C   UNL     1       4.241   3.013  17.477  0.00  0.00    +0.000 A 
ATOM     15  N   UNL     1       2.999   2.439  17.518  0.00  0.00    +0.000 N 
ATOM     16  C   UNL     1       2.284   2.924  18.587  0.00  0.00    +0.000 A 
ATOM     17  C   UNL     1       0.981   2.634  19.008  0.00  0.00    +0.000 A 
ATOM     18  C   UNL     1       0.506   3.290  20.147  0.00  0.00    +0.000 A 
ATOM     19  C   UNL     1       1.307   4.193  20.840  0.00  0.00    +0.000 A 
ATOM     20  C   UNL     1       2.608   4.472  20.405  0.00  0.00    +0.000 A 
ATOM     21  C   UNL     1       3.110   3.831  19.254  0.00  0.00    +0.000 A 
ATOM     22  H   UNL     1       2.648   1.759  16.857  0.00  0.00    +0.000 HD
ENDBRANCH  12  13
ENDBRANCH   1  12
TORSDOF 4
ENDMDL
MODEL 7
REMARK VINA RESULT:      -7.8      5.649      8.265
REMARK  Name = 
REMARK  4 active torsions:
REMARK  status: ('A' for Active; 'I' for Inactive)
REMARK    1  A    between atoms: C_2  and  C_15
REMARK    2  A    between atoms: N_3  and  C_4
REMARK    3  A    between atoms: C_4  and  C_5
REMARK    4  A    between atoms: C_5  and  C_6
REMARK                            x       y       z     vdW  Elec       q    Type
REMARK                         _______ _______ _______ _____ _____    ______ ____
ROOT
ATOM      1  C   UNL     1       8.311   8.516  18.450  0.00  0.00    +0.000 C 
ENDROOT
BRANCH   1   4
ATOM      2  O   UNL     1       7.730   5.782  18.778  0.00  0.00    +0.000 OA
ATOM      3  C   UNL     1       7.482   6.319  17.703  0.00  0.00    +0.000 C 
ATOM      4  N   UNL     1       7.745   7.647  17.436  0.00  0.00    +0.000 N 
ATOM      5  H   UNL     1       7.521   7.981  16.503  0.00  0.00    +0.000 HD
BRANCH   3   6
ATOM      6  C   UNL     1       6.852   5.553  16.581  0.00  0.00    +0.000 A 
ATOM      7  C   UNL     1       5.629   4.925  16.793  0.00  0.00    +0.000 A 
ATOM      8  C   UNL     1       5.045   4.244  15.731  0.00  0.00    +0.000 A 
ATOM      9  C   UNL     1       5.698   4.209  14.504  0.00  0.00    +0.000 A 
ATOM     10  C   UNL     1       6.919   4.860  14.385  0.00  0.00    +0.000 A 
ATOM     11  N   UNL     1       7.519   5.535  15.392  0.00  0.00    +0.000 NA
ENDBRANCH   3   6
ENDBRANCH   1   4
BRANCH   1  12
ATOM     12  C   UNL     1       8.600   9.925  17.936  0.00  0.00    +0.000 C 
BRANCH  12  13
ATOM     13  C   UNL     1       9.419  10.726  18.902  0.00  0.00    +0.000 A 
ATOM     14  C   UNL     1       9.364  10.652  20.280  0.00  0.00    +0.000 A 
ATOM     15  N   UNL     1      10.252  11.557  20.797  0.00  0.00    +0.000 N 
ATOM     16  C   UNL     1      10.889  12.231  19.783  0.00  0.00    +0.000 A 
ATOM     17  C   UNL     1      11.855  13.243  19.840  0.00  0.00    +0.000 A 
ATOM     18  C   UNL     1      12.332  13.754  18.629  0.00  0.00    +0.000 A 
ATOM     19  C   UNL     1      11.866  13.265  17.412  0.00  0.00    +0.000 A 
ATOM     20  C   UNL     1      10.899  12.253  17.373  0.00  0.00    +0.000 A 
ATOM     21  C   UNL     1      10.395  11.725  18.580  0.00  0.00    +0.000 A 
ATOM     22  H   UNL     1      10.417  11.716  21.781  0.00  0.00    +0.000 HD
ENDBRANCH  12  13
ENDBRANCH   1  12
TORSDOF 4
ENDMDL
MODEL 8
REMARK VINA RESULT:      -7.7      1.378      1.899
REMARK  Name = 
REMARK  4 active torsions:
REMARK  status: ('A' for Active; 'I' for Inactive)
REMARK    1  A    between atoms: C_2  and  C_15
REMARK    2  A    between atoms: N_3  and  C_4
REMARK    3  A    between atoms: C_4  and  C_5
REMARK    4  A    between atoms: C_5  and  C_6
REMARK                            x       y       z     vdW  Elec       q    Type
REMARK                         _______ _______ _______ _____ _____    ______ ____
ROOT
ATOM      1  C   UNL     1       5.058   6.181  17.709  0.00  0.00    +0.000 C 
ENDROOT
BRANCH   1   4
ATOM      2  O   UNL     1       7.550   6.228  16.402  0.00  0.00    +0.000 OA
ATOM      3  C   UNL     1       6.595   5.699  15.844  0.00  0.00    +0.000 C 
ATOM      4  N   UNL     1       5.329   5.640  16.391  0.00  0.00    +0.000 N 
ATOM      5  H   UNL     1       4.606   5.198  15.830  0.00  0.00    +0.000 HD
BRANCH   3   6
ATOM      6  C   UNL     1       6.741   5.056  14.499  0.00  0.00    +0.000 A 
ATOM      7  C   UNL     1       5.848   4.056  14.127  0.00  0.00    +0.000 A 
ATOM      8  C   UNL     1       5.981   3.491  12.863  0.00  0.00    +0.000 A 
ATOM      9  C   UNL     1       6.996   3.936  12.023  0.00  0.00    +0.000 A 
ATOM     10  C   UNL     1       7.846   4.935  12.481  0.00  0.00    +0.000 A 
ATOM     11  N   UNL     1       7.748   5.511  13.701  0.00  0.00    +0.000 NA
ENDBRANCH   3   6
ENDBRANCH   1   4
BRANCH   1  12
ATOM     12  C   UNL     1       3.648   6.755  17.841  0.00  0.00    +0.000 C 
BRANCH  12  13
ATOM     13  C   UNL     1       2.949   6.270  19.073  0.00  0.00    +0.000 A 
ATOM     14  C   UNL     1       2.190   7.033  19.939  0.00  0.00    +0.000 A 
ATOM     15  N   UNL     1       1.741   6.224  20.948  0.00  0.00    +0.000 N 
ATOM     16  C   UNL     1       2.194   4.939  20.765  0.00  0.00    +0.000 A 
ATOM     17  C   UNL     1       1.997   3.794  21.546  0.00  0.00    +0.000 A 
ATOM     18  C   UNL     1       2.588   2.604  21.113  0.00  0.00    +0.000 A 
ATOM     19  C   UNL     1       3.338   2.562  19.940  0.00  0.00    +0.000 A 
ATOM     20  C   UNL     1       3.526   3.717  19.172  0.00  0.00    +0.000 A 
ATOM     21  C   UNL     1       2.947   4.933  19.590  0.00  0.00    +0.000 A 
ATOM     22  H   UNL     1       1.164   6.522  21.722  0.00  0.00    +0.000 HD
ENDBRANCH  12  13
ENDBRANCH   1  12
TORSDOF 4
ENDMDL
MODEL 9
REMARK VINA RESULT:      -7.6      1.689      2.138
REMARK  Name = 
REMARK  4 active torsions:
REMARK  status: ('A' for Active; 'I' for Inactive)
REMARK    1  A    between atoms: C_2  and  C_15
REMARK    2  A    between atoms: N_3  and  C_4
REMARK    3  A    between atoms: C_4  and  C_5
REMARK    4  A    between atoms: C_5  and  C_6
REMARK                            x       y       z     vdW  Elec       q    Type
REMARK                         _______ _______ _______ _____ _____    ______ ____
ROOT
ATOM      1  C   UNL     1       7.075   5.799  18.290  0.00  0.00    +0.000 C 
ENDROOT
BRANCH   1   4
ATOM      2  O   UNL     1       5.908   6.883  15.969  0.00  0.00    +0.000 OA
ATOM      3  C   UNL     1       6.521   5.824  15.889  0.00  0.00    +0.000 C 
ATOM      4  N   UNL     1       7.113   5.201  16.970  0.00  0.00    +0.000 N 
ATOM      5  H   UNL     1       7.575   4.314  16.792  0.00  0.00    +0.000 HD
BRANCH   3   6
ATOM      6  C   UNL     1       6.683   5.118  14.577  0.00  0.00    +0.000 A 
ATOM      7  C   UNL     1       5.773   4.126  14.226  0.00  0.00    +0.000 A 
ATOM      8  C   UNL     1       5.922   3.503  12.993  0.00  0.00    +0.000 A 
ATOM      9  C   UNL     1       6.967   3.885  12.159  0.00  0.00    +0.000 A 
ATOM     10  C   UNL     1       7.832   4.881  12.594  0.00  0.00    +0.000 A 
ATOM     11  N   UNL     1       7.720   5.513  13.786  0.00  0.00    +0.000 NA
ENDBRANCH   3   6
ENDBRANCH   1   4
BRANCH   1  12
ATOM     12  C   UNL     1       6.182   5.035  19.267  0.00  0.00    +0.000 C 
BRANCH  12  13
ATOM     13  C   UNL     1       4.733   5.120  18.898  0.00  0.00    +0.000 A 
ATOM     14  C   UNL     1       4.019   6.274  18.640  0.00  0.00    +0.000 A 
ATOM     15  N   UNL     1       2.725   5.928  18.360  0.00  0.00    +0.000 N 
ATOM     16  C   UNL     1       2.569   4.564  18.433  0.00  0.00    +0.000 A 
ATOM     17  C   UNL     1       1.430   3.774  18.239  0.00  0.00    +0.000 A 
ATOM     18  C   UNL     1       1.568   2.391  18.383  0.00  0.00    +0.000 A 
ATOM     19  C   UNL     1       2.799   1.822  18.699  0.00  0.00    +0.000 A 
ATOM     20  C   UNL     1       3.928   2.627  18.890  0.00  0.00    +0.000 A 
ATOM     21  C   UNL     1       3.816   4.027  18.759  0.00  0.00    +0.000 A 
ATOM     22  H   UNL     1       1.982   6.576  18.136  0.00  0.00    +0.000 HD
ENDBRANCH  12  13
ENDBRANCH   1  12
TORSDOF 4
ENDMDL
