MODEL 1
REMARK VINA RESULT:      -4.8      0.000      0.000
REMARK  Name = 
REMARK  3 active torsions:
REMARK  status: ('A' for Active; 'I' for Inactive)
REMARK    1  A    between atoms: C_1  and  O_2
REMARK    2  A    between atoms: O_2  and  C_3
REMARK    3  A    between atoms: C_6  and  N_7
REMARK                            x       y       z     vdW  Elec       q    Type
REMARK                         _______ _______ _______ _____ _____    ______ ____
ROOT
ATOM      1  C   UNL     1       5.243   5.487  18.479  0.00  0.00    +0.000 A 
ATOM      2  C   UNL     1       4.707   5.998  17.298  0.00  0.00    +0.000 A 
ATOM      3  C   UNL     1       5.433   5.929  16.104  0.00  0.00    +0.000 A 
ATOM      4  C   UNL     1       6.716   5.371  16.069  0.00  0.00    +0.000 A 
ATOM      5  C   UNL     1       7.251   4.877  17.269  0.00  0.00    +0.000 A 
ATOM      6  C   UNL     1       6.526   4.944  18.467  0.00  0.00    +0.000 A 
ENDROOT
BRANCH   4   7
ATOM      7  N   UNL     1       7.346   5.274  14.811  0.00  0.00    +0.000 NA
ATOM      8  C   UNL     1       6.832   4.576  14.023  0.00  0.00    +0.000 C 
ATOM      9  S   UNL     1       6.163   3.657  12.905  0.00  0.00    +0.000 S 
ENDBRANCH   4   7
BRANCH   1  11
ATOM     10  C   UNL     1       3.113   5.101  19.423  0.00  0.00    +0.000 C 
ATOM     11  O   UNL     1       4.440   5.593  19.580  0.00  0.00    +0.000 OA
ENDBRANCH   1  11
TORSDOF 2
ENDMDL
MODEL 2
REMARK VINA RESULT:      -4.8      4.019      5.161
REMARK  Name = 
REMARK  3 active torsions:
REMARK  status: ('A' for Active; 'I' for Inactive)
REMARK    1  A    between atoms: C_1  and  O_2
REMARK    2  A    between atoms: O_2  and  C_3
REMARK    3  A    between atoms: C_6  and  N_7
REMARK                            x       y       z     vdW  Elec       q    Type
REMARK                         _______ _______ _______ _____ _____    ______ ____
ROOT
ATOM      1  C   UNL     1       4.988   6.198  16.913  0.00  0.00    +0.000 A 
ATOM      2  C   UNL     1       4.856   4.822  16.734  0.00  0.00    +0.000 A 
ATOM      3  C   UNL     1       3.714   4.156  17.189  0.00  0.00    +0.000 A 
ATOM      4  C   UNL     1       2.691   4.844  17.850  0.00  0.00    +0.000 A 
ATOM      5  C   UNL     1       2.844   6.227  18.040  0.00  0.00    +0.000 A 
ATOM      6  C   UNL     1       3.987   6.898  17.585  0.00  0.00    +0.000 A 
ENDROOT
BRANCH   4   7
ATOM      7  N   UNL     1       1.541   4.109  18.208  0.00  0.00    +0.000 NA
ATOM      8  C   UNL     1       1.489   3.731  19.317  0.00  0.00    +0.000 C 
ATOM      9  S   UNL     1       1.354   3.212  20.818  0.00  0.00    +0.000 S 
ENDBRANCH   4   7
BRANCH   1  11
ATOM     10  C   UNL     1       7.240   6.784  17.314  0.00  0.00    +0.000 C 
ATOM     11  O   UNL     1       6.137   6.747  16.415  0.00  0.00    +0.000 OA
ENDBRANCH   1  11
TORSDOF 2
ENDMDL
MODEL 3
REMARK VINA RESULT:      -4.8      3.052      3.912
REMARK  Name = 
REMARK  3 active torsions:
REMARK  status: ('A' for Active; 'I' for Inactive)
REMARK    1  A    between atoms: C_1  and  O_2
REMARK    2  A    between atoms: O_2  and  C_3
REMARK    3  A    between atoms: C_6  and  N_7
REMARK                            x       y       z     vdW  Elec       q    Type
REMARK                         _______ _______ _______ _____ _____    ______ ____
ROOT
ATOM      1  C   UNL     1       1.825   3.084  19.292  0.00  0.00    +0.000 A 
ATOM      2  C   UNL     1       1.947   4.380  18.792  0.00  0.00    +0.000 A 
ATOM      3  C   UNL     1       2.890   4.669  17.801  0.00  0.00    +0.000 A 
ATOM      4  C   UNL     1       3.745   3.679  17.305  0.00  0.00    +0.000 A 
ATOM      5  C   UNL     1       3.624   2.382  17.830  0.00  0.00    +0.000 A 
ATOM      6  C   UNL     1       2.680   2.088  18.823  0.00  0.00    +0.000 A 
ENDROOT
BRANCH   4   7
ATOM      7  N   UNL     1       4.614   4.040  16.254  0.00  0.00    +0.000 NA
ATOM      8  C   UNL     1       5.710   4.322  16.558  0.00  0.00    +0.000 C 
ATOM      9  S   UNL     1       7.220   4.695  16.912  0.00  0.00    +0.000 S 
ENDBRANCH   4   7
BRANCH   1  11
ATOM     10  C   UNL     1       1.336   2.738  21.577  0.00  0.00    +0.000 C 
ATOM     11  O   UNL     1       0.860   2.912  20.246  0.00  0.00    +0.000 OA
ENDBRANCH   1  11
TORSDOF 2
ENDMDL
MODEL 4
REMARK VINA RESULT:      -4.8      3.665      4.923
REMARK  Name = 
REMARK  3 active torsions:
REMARK  status: ('A' for Active; 'I' for Inactive)
REMARK    1  A    between atoms: C_1  and  O_2
REMARK    2  A    between atoms: O_2  and  C_3
REMARK    3  A    between atoms: C_6  and  N_7
REMARK                            x       y       z     vdW  Elec       q    Type
REMARK                         _______ _______ _______ _____ _____    ______ ____
ROOT
ATOM      1  C   UNL     1       5.497   5.573  16.009  0.00  0.00    +0.000 A 
ATOM      2  C   UNL     1       4.922   4.324  16.240  0.00  0.00    +0.000 A 
ATOM      3  C   UNL     1       3.837   4.195  17.113  0.00  0.00    +0.000 A 
ATOM      4  C   UNL     1       3.317   5.304  17.790  0.00  0.00    +0.000 A 
ATOM      5  C   UNL     1       3.916   6.553  17.563  0.00  0.00    +0.000 A 
ATOM      6  C   UNL     1       5.004   6.686  16.688  0.00  0.00    +0.000 A 
ENDROOT
BRANCH   4   7
ATOM      7  N   UNL     1       2.176   5.097  18.593  0.00  0.00    +0.000 NA
ATOM      8  C   UNL     1       1.776   3.997  18.657  0.00  0.00    +0.000 C 
ATOM      9  S   UNL     1       1.202   2.516  18.797  0.00  0.00    +0.000 S 
ENDBRANCH   4   7
BRANCH   1  11
ATOM     10  C   UNL     1       6.601   4.477  14.233  0.00  0.00    +0.000 C 
ATOM     11  O   UNL     1       6.540   5.584  15.126  0.00  0.00    +0.000 OA
ENDBRANCH   1  11
TORSDOF 2
ENDMDL
MODEL 5
REMARK VINA RESULT:      -4.7      3.481      4.340
REMARK  Name = 
REMARK  3 active torsions:
REMARK  status: ('A' for Active; 'I' for Inactive)
REMARK    1  A    between atoms: C_1  and  O_2
REMARK    2  A    between atoms: O_2  and  C_3
REMARK    3  A    between atoms: C_6  and  N_7
REMARK                            x       y       z     vdW  Elec       q    Type
REMARK                         _______ _______ _______ _____ _____    ______ ____
ROOT
ATOM      1  C   UNL     1       6.504   5.914  16.586  0.00  0.00    +0.000 A 
ATOM      2  C   UNL     1       5.335   6.459  17.114  0.00  0.00    +0.000 A 
ATOM      3  C   UNL     1       4.190   5.669  17.261  0.00  0.00    +0.000 A 
ATOM      4  C   UNL     1       4.180   4.328  16.863  0.00  0.00    +0.000 A 
ATOM      5  C   UNL     1       5.359   3.796  16.316  0.00  0.00    +0.000 A 
ATOM      6  C   UNL     1       6.508   4.584  16.168  0.00  0.00    +0.000 A 
ENDROOT
BRANCH   4   7
ATOM      7  N   UNL     1       3.008   3.585  17.116  0.00  0.00    +0.000 NA
ATOM      8  C   UNL     1       2.463   3.801  18.130  0.00  0.00    +0.000 C 
ATOM      9  S   UNL     1       1.668   4.070  19.486  0.00  0.00    +0.000 S 
ENDBRANCH   4   7
BRANCH   1  11
ATOM     10  C   UNL     1       7.684   7.706  17.571  0.00  0.00    +0.000 C 
ATOM     11  O   UNL     1       7.565   6.771  16.504  0.00  0.00    +0.000 OA
ENDBRANCH   1  11
TORSDOF 2
ENDMDL
MODEL 6
REMARK VINA RESULT:      -4.7      3.695      4.535
REMARK  Name = 
REMARK  3 active torsions:
REMARK  status: ('A' for Active; 'I' for Inactive)
REMARK    1  A    between atoms: C_1  and  O_2
REMARK    2  A    between atoms: O_2  and  C_3
REMARK    3  A    between atoms: C_6  and  N_7
REMARK                            x       y       z     vdW  Elec       q    Type
REMARK                         _______ _______ _______ _____ _____    ______ ____
ROOT
ATOM      1  C   UNL     1       7.287   7.113  17.652  0.00  0.00    +0.000 A 
ATOM      2  C   UNL     1       6.098   6.675  17.070  0.00  0.00    +0.000 A 
ATOM      3  C   UNL     1       5.425   5.564  17.587  0.00  0.00    +0.000 A 
ATOM      4  C   UNL     1       5.934   4.853  18.680  0.00  0.00    +0.000 A 
ATOM      5  C   UNL     1       7.141   5.294  19.245  0.00  0.00    +0.000 A 
ATOM      6  C   UNL     1       7.819   6.407  18.730  0.00  0.00    +0.000 A 
ENDROOT
BRANCH   4   7
ATOM      7  N   UNL     1       5.153   3.792  19.184  0.00  0.00    +0.000 NA
ATOM      8  C   UNL     1       4.064   4.062  19.522  0.00  0.00    +0.000 C 
ATOM      9  S   UNL     1       2.566   4.367  19.976  0.00  0.00    +0.000 S 
ENDBRANCH   4   7
BRANCH   1  11
ATOM     10  C   UNL     1       8.268   9.236  17.978  0.00  0.00    +0.000 C 
ATOM     11  O   UNL     1       7.850   8.217  17.075  0.00  0.00    +0.000 OA
ENDBRANCH   1  11
TORSDOF 2
ENDMDL
MODEL 7
REMARK VINA RESULT:      -4.7      3.517      4.742
REMARK  Name = 
REMARK  3 active torsions:
REMARK  status: ('A' for Active; 'I' for Inactive)
REMARK    1  A    between atoms: C_1  and  O_2
REMARK    2  A    between atoms: O_2  and  C_3
REMARK    3  A    between atoms: C_6  and  N_7
REMARK                            x       y       z     vdW  Elec       q    Type
REMARK                         _______ _______ _______ _____ _____    ______ ____
ROOT
ATOM      1  C   UNL     1       6.590   4.898  16.625  0.00  0.00    +0.000 A 
ATOM      2  C   UNL     1       5.225   4.971  16.351  0.00  0.00    +0.000 A 
ATOM      3  C   UNL     1       4.306   5.174  17.385  0.00  0.00    +0.000 A 
ATOM      4  C   UNL     1       4.726   5.286  18.715  0.00  0.00    +0.000 A 
ATOM      5  C   UNL     1       6.102   5.193  18.980  0.00  0.00    +0.000 A 
ATOM      6  C   UNL     1       7.026   4.989  17.945  0.00  0.00    +0.000 A 
ENDROOT
BRANCH   4   7
ATOM      7  N   UNL     1       3.741   5.565  19.685  0.00  0.00    +0.000 NA
ATOM      8  C   UNL     1       2.828   4.830  19.727  0.00  0.00    +0.000 C 
ATOM      9  S   UNL     1       1.576   3.851  19.844  0.00  0.00    +0.000 S 
ENDBRANCH   4   7
BRANCH   1  11
ATOM     10  C   UNL     1       6.724   4.446  14.311  0.00  0.00    +0.000 C 
ATOM     11  O   UNL     1       7.397   4.714  15.537  0.00  0.00    +0.000 OA
ENDBRANCH   1  11
TORSDOF 2
ENDMDL
MODEL 8
REMARK VINA RESULT:      -4.7      2.607      3.777
REMARK  Name = 
REMARK  3 active torsions:
REMARK  status: ('A' for Active; 'I' for Inactive)
REMARK    1  A    between atoms: C_1  and  O_2
REMARK    2  A    between atoms: O_2  and  C_3
REMARK    3  A    between atoms: C_6  and  N_7
REMARK                            x       y       z     vdW  Elec       q    Type
REMARK                         _______ _______ _______ _____ _____    ______ ____
ROOT
ATOM      1  C   UNL     1       2.240   3.044  19.348  0.00  0.00    +0.000 A 
ATOM      2  C   UNL     1       3.576   2.744  19.086  0.00  0.00    +0.000 A 
ATOM      3  C   UNL     1       4.319   3.537  18.205  0.00  0.00    +0.000 A 
ATOM      4  C   UNL     1       3.739   4.629  17.550  0.00  0.00    +0.000 A 
ATOM      5  C   UNL     1       2.387   4.909  17.809  0.00  0.00    +0.000 A 
ATOM      6  C   UNL     1       1.640   4.117  18.692  0.00  0.00    +0.000 A 
ENDROOT
BRANCH   4   7
ATOM      7  N   UNL     1       4.579   5.419  16.737  0.00  0.00    +0.000 NA
ATOM      8  C   UNL     1       5.244   4.844  15.962  0.00  0.00    +0.000 C 
ATOM      9  S   UNL     1       6.155   4.116  14.875  0.00  0.00    +0.000 S 
ENDBRANCH   4   7
BRANCH   1  11
ATOM     10  C   UNL     1       1.522   2.700  21.571  0.00  0.00    +0.000 C 
ATOM     11  O   UNL     1       1.617   2.213  20.236  0.00  0.00    +0.000 OA
ENDBRANCH   1  11
TORSDOF 2
ENDMDL
MODEL 9
REMARK VINA RESULT:      -4.7      2.689      3.850
REMARK  Name = 
REMARK  3 active torsions:
REMARK  status: ('A' for Active; 'I' for Inactive)
REMARK    1  A    between atoms: C_1  and  O_2
REMARK    2  A    between atoms: O_2  and  C_3
REMARK    3  A    between atoms: C_6  and  N_7
REMARK                            x       y       z     vdW  Elec       q    Type
REMARK                         _______ _______ _______ _____ _____    ______ ____
ROOT
ATOM      1  C   UNL     1       1.784   4.190  19.649  0.00  0.00    +0.000 A 
ATOM      2  C   UNL     1       1.903   3.587  18.398  0.00  0.00    +0.000 A 
ATOM      3  C   UNL     1       2.830   4.066  17.467  0.00  0.00    +0.000 A 
ATOM      4  C   UNL     1       3.640   5.170  17.755  0.00  0.00    +0.000 A 
ATOM      5  C   UNL     1       3.498   5.780  19.012  0.00  0.00    +0.000 A 
ATOM      6  C   UNL     1       2.570   5.302  19.948  0.00  0.00    +0.000 A 
ENDROOT
BRANCH   4   7
ATOM      7  N   UNL     1       4.599   5.540  16.790  0.00  0.00    +0.000 NA
ATOM      8  C   UNL     1       5.700   5.190  16.988  0.00  0.00    +0.000 C 
ATOM      9  S   UNL     1       7.210   4.721  17.195  0.00  0.00    +0.000 S 
ENDBRANCH   4   7
BRANCH   1  11
ATOM     10  C   UNL     1       1.385   2.810  21.523  0.00  0.00    +0.000 C 
ATOM     11  O   UNL     1       0.859   3.629  20.485  0.00  0.00    +0.000 OA
ENDBRANCH   1  11
TORSDOF 2
ENDMDL
