MODEL 1
REMARK VINA RESULT:      -7.6      0.000      0.000
REMARK  Name = 
REMARK  10 active torsions:
REMARK  status: ('A' for Active; 'I' for Inactive)
REMARK    1  A    between atoms: C_1  and  O_2
REMARK    2  A    between atoms: O_2  and  C_3
REMARK    3  A    between atoms: C_3  and  C_4
REMARK    4  A    between atoms: C_3  and  O_25
REMARK    5  A    between atoms: C_4  and  N_5
REMARK    6  A    between atoms: C_6  and  C_8
REMARK    7  A    between atoms: N_16  and  C_17
REMARK    8  A    between atoms: C_20  and  C_21
REMARK    9  A    between atoms: C_23  and  C_24
REMARK   10  A    between atoms: O_25  and  C_26
REMARK                            x       y       z     vdW  Elec       q    Type
REMARK                         _______ _______ _______ _____ _____    ______ ____
ROOT
ATOM      1  C   UNL     1       3.087   6.484  18.471  0.00  0.00    +0.000 A 
ATOM      2  C   UNL     1       3.090   7.622  17.659  0.00  0.00    +0.000 A 
ATOM      3  C   UNL     1       2.421   8.786  18.045  0.00  0.00    +0.000 A 
ATOM      4  C   UNL     1       1.709   8.769  19.256  0.00  0.00    +0.000 A 
ATOM      5  C   UNL     1       1.736   7.653  20.096  0.00  0.00    +0.000 A 
ATOM      6  C   UNL     1       2.439   6.502  19.716  0.00  0.00    +0.000 A 
ATOM      7  N   UNL     1       1.026   7.868  21.240  0.00  0.00    +0.000 NA
ATOM      8  C   UNL     1       0.552   9.084  21.116  0.00  0.00    +0.000 A 
ATOM      9  N   UNL     1       0.950   9.707  19.954  0.00  0.00    +0.000 N 
ENDROOT
BRANCH   9  10
ATOM     10  C   UNL     1       0.625  11.035  19.540  0.00  0.00    +0.000 A 
ATOM     11  C   UNL     1       1.429  12.087  20.015  0.00  0.00    +0.000 A 
ATOM     12  C   UNL     1       1.112  13.418  19.748  0.00  0.00    +0.000 A 
ATOM     13  C   UNL     1      -0.000  13.728  18.972  0.00  0.00    +0.000 A 
ATOM     14  C   UNL     1      -0.397  15.154  18.725  0.00  0.00    +0.000 C 
ATOM     15  C   UNL     1      -0.766  12.685  18.436  0.00  0.00    +0.000 A 
ATOM     16  C   UNL     1      -0.484  11.331  18.715  0.00  0.00    +0.000 A 
ATOM     17  C   UNL     1      -1.463  10.315  18.191  0.00  0.00    +0.000 C 
ENDBRANCH   9  10
BRANCH   1  19
ATOM     18  N   UNL     1       4.761   5.478  17.033  0.00  0.00    +0.000 N 
ATOM     19  C   UNL     1       3.802   5.272  17.996  0.00  0.00    +0.000 C 
ATOM     20  O   UNL     1       3.555   4.172  18.475  0.00  0.00    +0.000 OA
ATOM     21  H   UNL     1       5.010   6.409  16.721  0.00  0.00    +0.000 HD
BRANCH  18  22
ATOM     22  C   UNL     1       5.497   4.380  16.431  0.00  0.00    +0.000 C 
BRANCH  22  23
ATOM     23  C   UNL     1       6.777   4.867  15.714  0.00  0.00    +0.000 C 
BRANCH  23  25
ATOM     24  C   UNL     1       5.677   4.089  13.743  0.00  0.00    +0.000 C 
ATOM     25  O   UNL     1       6.912   4.306  14.404  0.00  0.00    +0.000 OA
ENDBRANCH  23  25
BRANCH  23  26
ATOM     26  O   UNL     1       7.902   4.460  16.509  0.00  0.00    +0.000 OA
ATOM     27  C   UNL     1       7.664   4.636  17.899  0.00  0.00    +0.000 C 
ENDBRANCH  23  26
ENDBRANCH  22  23
ENDBRANCH  18  22
ENDBRANCH   1  19
TORSDOF 6
ENDMDL
MODEL 2
REMARK VINA RESULT:      -7.5      0.733      1.517
REMARK  Name = 
REMARK  10 active torsions:
REMARK  status: ('A' for Active; 'I' for Inactive)
REMARK    1  A    between atoms: C_1  and  O_2
REMARK    2  A    between atoms: O_2  and  C_3
REMARK    3  A    between atoms: C_3  and  C_4
REMARK    4  A    between atoms: C_3  and  O_25
REMARK    5  A    between atoms: C_4  and  N_5
REMARK    6  A    between atoms: C_6  and  C_8
REMARK    7  A    between atoms: N_16  and  C_17
REMARK    8  A    between atoms: C_20  and  C_21
REMARK    9  A    between atoms: C_23  and  C_24
REMARK   10  A    between atoms: O_25  and  C_26
REMARK                            x       y       z     vdW  Elec       q    Type
REMARK                         _______ _______ _______ _____ _____    ______ ____
ROOT
ATOM      1  C   UNL     1       2.797   6.716  18.399  0.00  0.00    +0.000 A 
ATOM      2  C   UNL     1       2.768   7.833  17.557  0.00  0.00    +0.000 A 
ATOM      3  C   UNL     1       2.192   9.035  17.973  0.00  0.00    +0.000 A 
ATOM      4  C   UNL     1       1.603   9.080  19.248  0.00  0.00    +0.000 A 
ATOM      5  C   UNL     1       1.664   7.985  20.113  0.00  0.00    +0.000 A 
ATOM      6  C   UNL     1       2.277   6.794  19.700  0.00  0.00    +0.000 A 
ATOM      7  N   UNL     1       1.080   8.260  21.315  0.00  0.00    +0.000 NA
ATOM      8  C   UNL     1       0.650   9.493  21.203  0.00  0.00    +0.000 A 
ATOM      9  N   UNL     1       0.957  10.068  19.989  0.00  0.00    +0.000 N 
ENDROOT
BRANCH   9  10
ATOM     10  C   UNL     1       0.650  11.400  19.571  0.00  0.00    +0.000 A 
ATOM     11  C   UNL     1       1.454  12.444  20.062  0.00  0.00    +0.000 A 
ATOM     12  C   UNL     1       1.153  13.778  19.790  0.00  0.00    +0.000 A 
ATOM     13  C   UNL     1       0.057  14.097  18.995  0.00  0.00    +0.000 A 
ATOM     14  C   UNL     1      -0.324  15.527  18.742  0.00  0.00    +0.000 C 
ATOM     15  C   UNL     1      -0.708  13.061  18.444  0.00  0.00    +0.000 A 
ATOM     16  C   UNL     1      -0.441  11.705  18.726  0.00  0.00    +0.000 A 
ATOM     17  C   UNL     1      -1.419  10.697  18.184  0.00  0.00    +0.000 C 
ENDBRANCH   9  10
BRANCH   1  19
ATOM     18  N   UNL     1       4.573   5.607  17.175  0.00  0.00    +0.000 N 
ATOM     19  C   UNL     1       3.408   5.461  17.891  0.00  0.00    +0.000 C 
ATOM     20  O   UNL     1       2.902   4.374  18.140  0.00  0.00    +0.000 OA
ATOM     21  H   UNL     1       5.019   6.509  17.063  0.00  0.00    +0.000 HD
BRANCH  18  22
ATOM     22  C   UNL     1       5.249   4.475  16.566  0.00  0.00    +0.000 C 
BRANCH  22  23
ATOM     23  C   UNL     1       6.736   4.398  16.981  0.00  0.00    +0.000 C 
BRANCH  23  25
ATOM     24  C   UNL     1       7.636   6.311  18.092  0.00  0.00    +0.000 C 
ATOM     25  O   UNL     1       6.987   5.058  18.226  0.00  0.00    +0.000 OA
ENDBRANCH  23  25
BRANCH  23  26
ATOM     26  O   UNL     1       7.509   5.039  15.954  0.00  0.00    +0.000 OA
ATOM     27  C   UNL     1       6.968   4.812  14.660  0.00  0.00    +0.000 C 
ENDBRANCH  23  26
ENDBRANCH  22  23
ENDBRANCH  18  22
ENDBRANCH   1  19
TORSDOF 6
ENDMDL
MODEL 3
REMARK VINA RESULT:      -7.4      0.943      1.022
REMARK  Name = 
REMARK  10 active torsions:
REMARK  status: ('A' for Active; 'I' for Inactive)
REMARK    1  A    between atoms: C_1  and  O_2
REMARK    2  A    between atoms: O_2  and  C_3
REMARK    3  A    between atoms: C_3  and  C_4
REMARK    4  A    between atoms: C_3  and  O_25
REMARK    5  A    between atoms: C_4  and  N_5
REMARK    6  A    between atoms: C_6  and  C_8
REMARK    7  A    between atoms: N_16  and  C_17
REMARK    8  A    between atoms: C_20  and  C_21
REMARK    9  A    between atoms: C_23  and  C_24
REMARK   10  A    between atoms: O_25  and  C_26
REMARK                            x       y       z     vdW  Elec       q    Type
REMARK                         _______ _______ _______ _____ _____    ______ ____
ROOT
ATOM      1  C   UNL     1       2.687   6.974  18.581  0.00  0.00    +0.000 A 
ATOM      2  C   UNL     1       2.679   8.074  17.716  0.00  0.00    +0.000 A 
ATOM      3  C   UNL     1       2.104   9.288  18.098  0.00  0.00    +0.000 A 
ATOM      4  C   UNL     1       1.494   9.363  19.361  0.00  0.00    +0.000 A 
ATOM      5  C   UNL     1       1.534   8.285  20.249  0.00  0.00    +0.000 A 
ATOM      6  C   UNL     1       2.145   7.082  19.871  0.00  0.00    +0.000 A 
ATOM      7  N   UNL     1       0.931   8.588  21.435  0.00  0.00    +0.000 NA
ATOM      8  C   UNL     1       0.511   9.821  21.291  0.00  0.00    +0.000 A 
ATOM      9  N   UNL     1       0.842  10.370  20.071  0.00  0.00    +0.000 N 
ENDROOT
BRANCH   9  10
ATOM     10  C   UNL     1       0.552  11.695  19.622  0.00  0.00    +0.000 A 
ATOM     11  C   UNL     1       1.335  12.747  20.127  0.00  0.00    +0.000 A 
ATOM     12  C   UNL     1       1.045  14.076  19.823  0.00  0.00    +0.000 A 
ATOM     13  C   UNL     1      -0.019  14.383  18.981  0.00  0.00    +0.000 A 
ATOM     14  C   UNL     1      -0.390  15.808  18.692  0.00  0.00    +0.000 C 
ATOM     15  C   UNL     1      -0.762  13.337  18.417  0.00  0.00    +0.000 A 
ATOM     16  C   UNL     1      -0.506  11.985  18.730  0.00  0.00    +0.000 A 
ATOM     17  C   UNL     1      -1.462  10.969  18.166  0.00  0.00    +0.000 C 
ENDBRANCH   9  10
BRANCH   1  19
ATOM     18  N   UNL     1       4.650   5.574  18.321  0.00  0.00    +0.000 N 
ATOM     19  C   UNL     1       3.298   5.706  18.109  0.00  0.00    +0.000 C 
ATOM     20  O   UNL     1       2.609   4.832  17.597  0.00  0.00    +0.000 OA
ATOM     21  H   UNL     1       5.178   6.272  18.830  0.00  0.00    +0.000 HD
BRANCH  18  22
ATOM     22  C   UNL     1       5.393   4.415  17.859  0.00  0.00    +0.000 C 
BRANCH  22  23
ATOM     23  C   UNL     1       6.776   4.805  17.287  0.00  0.00    +0.000 C 
BRANCH  23  25
ATOM     24  C   UNL     1       6.149   4.202  15.064  0.00  0.00    +0.000 C 
ATOM     25  O   UNL     1       7.101   4.068  16.105  0.00  0.00    +0.000 OA
ENDBRANCH  23  25
BRANCH  23  26
ATOM     26  O   UNL     1       7.759   4.522  18.295  0.00  0.00    +0.000 OA
ATOM     27  C   UNL     1       7.986   5.636  19.147  0.00  0.00    +0.000 C 
ENDBRANCH  23  26
ENDBRANCH  22  23
ENDBRANCH  18  22
ENDBRANCH   1  19
TORSDOF 6
ENDMDL
MODEL 4
REMARK VINA RESULT:      -7.4      3.829      8.897
REMARK  Name = 
REMARK  10 active torsions:
REMARK  status: ('A' for Active; 'I' for Inactive)
REMARK    1  A    between atoms: C_1  and  O_2
REMARK    2  A    between atoms: O_2  and  C_3
REMARK    3  A    between atoms: C_3  and  C_4
REMARK    4  A    between atoms: C_3  and  O_25
REMARK    5  A    between atoms: C_4  and  N_5
REMARK    6  A    between atoms: C_6  and  C_8
REMARK    7  A    between atoms: N_16  and  C_17
REMARK    8  A    between atoms: C_20  and  C_21
REMARK    9  A    between atoms: C_23  and  C_24
REMARK   10  A    between atoms: O_25  and  C_26
REMARK                            x       y       z     vdW  Elec       q    Type
REMARK                         _______ _______ _______ _____ _____    ______ ____
ROOT
ATOM      1  C   UNL     1       0.997   9.476  19.334  0.00  0.00    +0.000 A 
ATOM      2  C   UNL     1       1.672   9.425  18.110  0.00  0.00    +0.000 A 
ATOM      3  C   UNL     1       2.479   8.334  17.776  0.00  0.00    +0.000 A 
ATOM      4  C   UNL     1       2.627   7.307  18.722  0.00  0.00    +0.000 A 
ATOM      5  C   UNL     1       1.924   7.327  19.929  0.00  0.00    +0.000 A 
ATOM      6  C   UNL     1       1.089   8.409  20.241  0.00  0.00    +0.000 A 
ATOM      7  N   UNL     1       2.172   6.211  20.674  0.00  0.00    +0.000 NA
ATOM      8  C   UNL     1       3.021   5.513  19.959  0.00  0.00    +0.000 A 
ATOM      9  N   UNL     1       3.321   6.098  18.748  0.00  0.00    +0.000 N 
ENDROOT
BRANCH   9  10
ATOM     10  C   UNL     1       4.188   5.577  17.739  0.00  0.00    +0.000 A 
ATOM     11  C   UNL     1       5.330   6.325  17.404  0.00  0.00    +0.000 A 
ATOM     12  C   UNL     1       6.165   5.942  16.356  0.00  0.00    +0.000 A 
ATOM     13  C   UNL     1       5.893   4.783  15.636  0.00  0.00    +0.000 A 
ATOM     14  C   UNL     1       6.740   4.386  14.463  0.00  0.00    +0.000 C 
ATOM     15  C   UNL     1       4.797   3.994  16.008  0.00  0.00    +0.000 A 
ATOM     16  C   UNL     1       3.921   4.374  17.046  0.00  0.00    +0.000 A 
ATOM     17  C   UNL     1       2.706   3.511  17.255  0.00  0.00    +0.000 C 
ENDBRANCH   9  10
BRANCH   1  19
ATOM     18  N   UNL     1       0.684  11.535  20.576  0.00  0.00    +0.000 N 
ATOM     19  C   UNL     1       0.170  10.671  19.638  0.00  0.00    +0.000 C 
ATOM     20  O   UNL     1      -0.886  10.868  19.049  0.00  0.00    +0.000 OA
ATOM     21  H   UNL     1       1.602  11.397  20.979  0.00  0.00    +0.000 HD
BRANCH  18  22
ATOM     22  C   UNL     1      -0.042  12.713  21.017  0.00  0.00    +0.000 C 
BRANCH  22  23
ATOM     23  C   UNL     1      -1.168  12.359  22.015  0.00  0.00    +0.000 C 
BRANCH  23  25
ATOM     24  C   UNL     1      -1.279  14.117  23.626  0.00  0.00    +0.000 C 
ATOM     25  O   UNL     1      -1.864  13.518  22.482  0.00  0.00    +0.000 OA
ENDBRANCH  23  25
BRANCH  23  26
ATOM     26  O   UNL     1      -0.563  11.699  23.138  0.00  0.00    +0.000 OA
ATOM     27  C   UNL     1      -0.934  10.329  23.215  0.00  0.00    +0.000 C 
ENDBRANCH  23  26
ENDBRANCH  22  23
ENDBRANCH  18  22
ENDBRANCH   1  19
TORSDOF 6
ENDMDL
MODEL 5
REMARK VINA RESULT:      -7.3      3.821      8.727
REMARK  Name = 
REMARK  10 active torsions:
REMARK  status: ('A' for Active; 'I' for Inactive)
REMARK    1  A    between atoms: C_1  and  O_2
REMARK    2  A    between atoms: O_2  and  C_3
REMARK    3  A    between atoms: C_3  and  C_4
REMARK    4  A    between atoms: C_3  and  O_25
REMARK    5  A    between atoms: C_4  and  N_5
REMARK    6  A    between atoms: C_6  and  C_8
REMARK    7  A    between atoms: N_16  and  C_17
REMARK    8  A    between atoms: C_20  and  C_21
REMARK    9  A    between atoms: C_23  and  C_24
REMARK   10  A    between atoms: O_25  and  C_26
REMARK                            x       y       z     vdW  Elec       q    Type
REMARK                         _______ _______ _______ _____ _____    ______ ____
ROOT
ATOM      1  C   UNL     1       1.110   9.413  19.336  0.00  0.00    +0.000 A 
ATOM      2  C   UNL     1       1.761   9.355  18.099  0.00  0.00    +0.000 A 
ATOM      3  C   UNL     1       2.551   8.257  17.750  0.00  0.00    +0.000 A 
ATOM      4  C   UNL     1       2.708   7.229  18.694  0.00  0.00    +0.000 A 
ATOM      5  C   UNL     1       2.028   7.256  19.915  0.00  0.00    +0.000 A 
ATOM      6  C   UNL     1       1.210   8.346  20.241  0.00  0.00    +0.000 A 
ATOM      7  N   UNL     1       2.280   6.138  20.655  0.00  0.00    +0.000 NA
ATOM      8  C   UNL     1       3.108   5.433  19.924  0.00  0.00    +0.000 A 
ATOM      9  N   UNL     1       3.390   6.013  18.707  0.00  0.00    +0.000 N 
ENDROOT
BRANCH   9  10
ATOM     10  C   UNL     1       4.233   5.485  17.682  0.00  0.00    +0.000 A 
ATOM     11  C   UNL     1       5.369   6.228  17.316  0.00  0.00    +0.000 A 
ATOM     12  C   UNL     1       6.179   5.835  16.252  0.00  0.00    +0.000 A 
ATOM     13  C   UNL     1       5.888   4.673  15.545  0.00  0.00    +0.000 A 
ATOM     14  C   UNL     1       6.707   4.266  14.355  0.00  0.00    +0.000 C 
ATOM     15  C   UNL     1       4.798   3.889  15.947  0.00  0.00    +0.000 A 
ATOM     16  C   UNL     1       3.947   4.278  17.003  0.00  0.00    +0.000 A 
ATOM     17  C   UNL     1       2.735   3.420  17.244  0.00  0.00    +0.000 C 
ENDBRANCH   9  10
BRANCH   1  19
ATOM     18  N   UNL     1      -1.031  10.553  19.316  0.00  0.00    +0.000 N 
ATOM     19  C   UNL     1       0.300  10.616  19.655  0.00  0.00    +0.000 C 
ATOM     20  O   UNL     1       0.805  11.580  20.218  0.00  0.00    +0.000 OA
ATOM     21  H   UNL     1      -1.442   9.709  18.936  0.00  0.00    +0.000 HD
BRANCH  18  22
ATOM     22  C   UNL     1      -1.931  11.675  19.512  0.00  0.00    +0.000 C 
BRANCH  22  23
ATOM     23  C   UNL     1      -2.797  11.947  18.261  0.00  0.00    +0.000 C 
BRANCH  23  25
ATOM     24  C   UNL     1      -5.032  12.026  19.099  0.00  0.00    +0.000 C 
ATOM     25  O   UNL     1      -4.075  11.308  18.338  0.00  0.00    +0.000 OA
ENDBRANCH  23  25
BRANCH  23  26
ATOM     26  O   UNL     1      -2.090  11.433  17.122  0.00  0.00    +0.000 OA
ATOM     27  C   UNL     1      -2.973  10.925  16.131  0.00  0.00    +0.000 C 
ENDBRANCH  23  26
ENDBRANCH  22  23
ENDBRANCH  18  22
ENDBRANCH   1  19
TORSDOF 6
ENDMDL
MODEL 6
REMARK VINA RESULT:      -7.3      2.467      3.092
REMARK  Name = 
REMARK  10 active torsions:
REMARK  status: ('A' for Active; 'I' for Inactive)
REMARK    1  A    between atoms: C_1  and  O_2
REMARK    2  A    between atoms: O_2  and  C_3
REMARK    3  A    between atoms: C_3  and  C_4
REMARK    4  A    between atoms: C_3  and  O_25
REMARK    5  A    between atoms: C_4  and  N_5
REMARK    6  A    between atoms: C_6  and  C_8
REMARK    7  A    between atoms: N_16  and  C_17
REMARK    8  A    between atoms: C_20  and  C_21
REMARK    9  A    between atoms: C_23  and  C_24
REMARK   10  A    between atoms: O_25  and  C_26
REMARK                            x       y       z     vdW  Elec       q    Type
REMARK                         _______ _______ _______ _____ _____    ______ ____
ROOT
ATOM      1  C   UNL     1       2.388   6.950  19.103  0.00  0.00    +0.000 A 
ATOM      2  C   UNL     1       2.415   7.969  18.146  0.00  0.00    +0.000 A 
ATOM      3  C   UNL     1       1.912   9.241  18.431  0.00  0.00    +0.000 A 
ATOM      4  C   UNL     1       1.340   9.457  19.695  0.00  0.00    +0.000 A 
ATOM      5  C   UNL     1       1.347   8.460  20.674  0.00  0.00    +0.000 A 
ATOM      6  C   UNL     1       1.885   7.198  20.390  0.00  0.00    +0.000 A 
ATOM      7  N   UNL     1       0.791   8.897  21.841  0.00  0.00    +0.000 NA
ATOM      8  C   UNL     1       0.431  10.134  21.597  0.00  0.00    +0.000 A 
ATOM      9  N   UNL     1       0.759  10.556  20.328  0.00  0.00    +0.000 N 
ENDROOT
BRANCH   9  10
ATOM     10  C   UNL     1       0.525  11.850  19.769  0.00  0.00    +0.000 A 
ATOM     11  C   UNL     1       1.339  12.911  20.205  0.00  0.00    +0.000 A 
ATOM     12  C   UNL     1       1.103  14.221  19.792  0.00  0.00    +0.000 A 
ATOM     13  C   UNL     1       0.065  14.497  18.908  0.00  0.00    +0.000 A 
ATOM     14  C   UNL     1      -0.249  15.907  18.500  0.00  0.00    +0.000 C 
ATOM     15  C   UNL     1      -0.706  13.437  18.413  0.00  0.00    +0.000 A 
ATOM     16  C   UNL     1      -0.506  12.106  18.837  0.00  0.00    +0.000 A 
ATOM     17  C   UNL     1      -1.489  11.083  18.336  0.00  0.00    +0.000 C 
ENDBRANCH   9  10
BRANCH   1  19
ATOM     18  N   UNL     1       3.728   5.009  19.665  0.00  0.00    +0.000 N 
ATOM     19  C   UNL     1       2.921   5.614  18.732  0.00  0.00    +0.000 C 
ATOM     20  O   UNL     1       2.615   5.093  17.667  0.00  0.00    +0.000 OA
ATOM     21  H   UNL     1       3.890   5.421  20.576  0.00  0.00    +0.000 HD
BRANCH  18  22
ATOM     22  C   UNL     1       4.369   3.730  19.416  0.00  0.00    +0.000 C 
BRANCH  22  23
ATOM     23  C   UNL     1       3.624   2.565  20.107  0.00  0.00    +0.000 C 
BRANCH  23  25
ATOM     24  C   UNL     1       3.220   1.742  17.903  0.00  0.00    +0.000 C 
ATOM     25  O   UNL     1       2.722   1.897  19.221  0.00  0.00    +0.000 OA
ENDBRANCH  23  25
BRANCH  23  26
ATOM     26  O   UNL     1       2.875   3.116  21.202  0.00  0.00    +0.000 OA
ATOM     27  C   UNL     1       1.516   2.704  21.179  0.00  0.00    +0.000 C 
ENDBRANCH  23  26
ENDBRANCH  22  23
ENDBRANCH  18  22
ENDBRANCH   1  19
TORSDOF 6
ENDMDL
MODEL 7
REMARK VINA RESULT:      -7.3      3.790      8.854
REMARK  Name = 
REMARK  10 active torsions:
REMARK  status: ('A' for Active; 'I' for Inactive)
REMARK    1  A    between atoms: C_1  and  O_2
REMARK    2  A    between atoms: O_2  and  C_3
REMARK    3  A    between atoms: C_3  and  C_4
REMARK    4  A    between atoms: C_3  and  O_25
REMARK    5  A    between atoms: C_4  and  N_5
REMARK    6  A    between atoms: C_6  and  C_8
REMARK    7  A    between atoms: N_16  and  C_17
REMARK    8  A    between atoms: C_20  and  C_21
REMARK    9  A    between atoms: C_23  and  C_24
REMARK   10  A    between atoms: O_25  and  C_26
REMARK                            x       y       z     vdW  Elec       q    Type
REMARK                         _______ _______ _______ _____ _____    ______ ____
ROOT
ATOM      1  C   UNL     1       1.099   9.817  19.164  0.00  0.00    +0.000 A 
ATOM      2  C   UNL     1       1.780   9.669  17.951  0.00  0.00    +0.000 A 
ATOM      3  C   UNL     1       2.504   8.509  17.667  0.00  0.00    +0.000 A 
ATOM      4  C   UNL     1       2.564   7.509  18.652  0.00  0.00    +0.000 A 
ATOM      5  C   UNL     1       1.853   7.627  19.848  0.00  0.00    +0.000 A 
ATOM      6  C   UNL     1       1.100   8.781  20.110  0.00  0.00    +0.000 A 
ATOM      7  N   UNL     1       2.007   6.524  20.636  0.00  0.00    +0.000 NA
ATOM      8  C   UNL     1       2.806   5.738  19.958  0.00  0.00    +0.000 A 
ATOM      9  N   UNL     1       3.162   6.252  18.730  0.00  0.00    +0.000 N 
ENDROOT
BRANCH   9  10
ATOM     10  C   UNL     1       3.997   5.630  17.751  0.00  0.00    +0.000 A 
ATOM     11  C   UNL     1       5.151   6.319  17.338  0.00  0.00    +0.000 A 
ATOM     12  C   UNL     1       5.956   5.831  16.310  0.00  0.00    +0.000 A 
ATOM     13  C   UNL     1       5.641   4.626  15.690  0.00  0.00    +0.000 A 
ATOM     14  C   UNL     1       6.456   4.114  14.539  0.00  0.00    +0.000 C 
ATOM     15  C   UNL     1       4.534   3.898  16.143  0.00  0.00    +0.000 A 
ATOM     16  C   UNL     1       3.687   4.383  17.163  0.00  0.00    +0.000 A 
ATOM     17  C   UNL     1       2.455   3.571  17.461  0.00  0.00    +0.000 C 
ENDBRANCH   9  10
BRANCH   1  19
ATOM     18  N   UNL     1      -0.516  11.068  20.471  0.00  0.00    +0.000 N 
ATOM     19  C   UNL     1       0.363  11.083  19.414  0.00  0.00    +0.000 C 
ATOM     20  O   UNL     1       0.571  12.074  18.725  0.00  0.00    +0.000 OA
ATOM     21  H   UNL     1      -0.600  10.264  21.081  0.00  0.00    +0.000 HD
BRANCH  18  22
ATOM     22  C   UNL     1      -1.348  12.213  20.797  0.00  0.00    +0.000 C 
BRANCH  22  23
ATOM     23  C   UNL     1      -0.854  12.946  22.065  0.00  0.00    +0.000 C 
BRANCH  23  25
ATOM     24  C   UNL     1       0.861  14.544  21.611  0.00  0.00    +0.000 C 
ATOM     25  O   UNL     1       0.549  13.223  22.019  0.00  0.00    +0.000 OA
ENDBRANCH  23  25
BRANCH  23  26
ATOM     26  O   UNL     1      -1.121  12.095  23.191  0.00  0.00    +0.000 OA
ATOM     27  C   UNL     1      -2.514  11.923  23.411  0.00  0.00    +0.000 C 
ENDBRANCH  23  26
ENDBRANCH  22  23
ENDBRANCH  18  22
ENDBRANCH   1  19
TORSDOF 6
ENDMDL
MODEL 8
REMARK VINA RESULT:      -7.3      3.876      8.895
REMARK  Name = 
REMARK  10 active torsions:
REMARK  status: ('A' for Active; 'I' for Inactive)
REMARK    1  A    between atoms: C_1  and  O_2
REMARK    2  A    between atoms: O_2  and  C_3
REMARK    3  A    between atoms: C_3  and  C_4
REMARK    4  A    between atoms: C_3  and  O_25
REMARK    5  A    between atoms: C_4  and  N_5
REMARK    6  A    between atoms: C_6  and  C_8
REMARK    7  A    between atoms: N_16  and  C_17
REMARK    8  A    between atoms: C_20  and  C_21
REMARK    9  A    between atoms: C_23  and  C_24
REMARK   10  A    between atoms: O_25  and  C_26
REMARK                            x       y       z     vdW  Elec       q    Type
REMARK                         _______ _______ _______ _____ _____    ______ ____
ROOT
ATOM      1  C   UNL     1       1.013  10.008  19.249  0.00  0.00    +0.000 A 
ATOM      2  C   UNL     1       1.693   9.795  18.046  0.00  0.00    +0.000 A 
ATOM      3  C   UNL     1       2.366   8.595  17.801  0.00  0.00    +0.000 A 
ATOM      4  C   UNL     1       2.376   7.623  18.815  0.00  0.00    +0.000 A 
ATOM      5  C   UNL     1       1.663   7.808  20.002  0.00  0.00    +0.000 A 
ATOM      6  C   UNL     1       0.962   9.001  20.225  0.00  0.00    +0.000 A 
ATOM      7  N   UNL     1       1.764   6.723  20.823  0.00  0.00    +0.000 NA
ATOM      8  C   UNL     1       2.531   5.883  20.173  0.00  0.00    +0.000 A 
ATOM      9  N   UNL     1       2.917   6.344  18.934  0.00  0.00    +0.000 N 
ENDROOT
BRANCH   9  10
ATOM     10  C   UNL     1       3.729   5.657  17.980  0.00  0.00    +0.000 A 
ATOM     11  C   UNL     1       4.917   6.279  17.559  0.00  0.00    +0.000 A 
ATOM     12  C   UNL     1       5.706   5.726  16.551  0.00  0.00    +0.000 A 
ATOM     13  C   UNL     1       5.340   4.521  15.961  0.00  0.00    +0.000 A 
ATOM     14  C   UNL     1       6.138   3.940  14.831  0.00  0.00    +0.000 C 
ATOM     15  C   UNL     1       4.195   3.859  16.423  0.00  0.00    +0.000 A 
ATOM     16  C   UNL     1       3.365   4.411  17.422  0.00  0.00    +0.000 A 
ATOM     17  C   UNL     1       2.093   3.667  17.730  0.00  0.00    +0.000 C 
ENDBRANCH   9  10
BRANCH   1  19
ATOM     18  N   UNL     1       0.792  12.070  20.508  0.00  0.00    +0.000 N 
ATOM     19  C   UNL     1       0.332  11.312  19.457  0.00  0.00    +0.000 C 
ATOM     20  O   UNL     1      -0.559  11.680  18.701  0.00  0.00    +0.000 OA
ATOM     21  H   UNL     1       1.592  11.783  21.060  0.00  0.00    +0.000 HD
BRANCH  18  22
ATOM     22  C   UNL     1       0.183  13.338  20.868  0.00  0.00    +0.000 C 
BRANCH  22  23
ATOM     23  C   UNL     1      -0.775  13.198  22.073  0.00  0.00    +0.000 C 
BRANCH  23  25
ATOM     24  C   UNL     1      -1.369  11.111  23.071  0.00  0.00    +0.000 C 
ATOM     25  O   UNL     1      -0.393  12.132  22.949  0.00  0.00    +0.000 OA
ENDBRANCH  23  25
BRANCH  23  26
ATOM     26  O   UNL     1      -2.087  12.925  21.556  0.00  0.00    +0.000 OA
ATOM     27  C   UNL     1      -2.798  14.116  21.248  0.00  0.00    +0.000 C 
ENDBRANCH  23  26
ENDBRANCH  22  23
ENDBRANCH  18  22
ENDBRANCH   1  19
TORSDOF 6
ENDMDL
MODEL 9
REMARK VINA RESULT:      -7.2      2.220      3.109
REMARK  Name = 
REMARK  10 active torsions:
REMARK  status: ('A' for Active; 'I' for Inactive)
REMARK    1  A    between atoms: C_1  and  O_2
REMARK    2  A    between atoms: O_2  and  C_3
REMARK    3  A    between atoms: C_3  and  C_4
REMARK    4  A    between atoms: C_3  and  O_25
REMARK    5  A    between atoms: C_4  and  N_5
REMARK    6  A    between atoms: C_6  and  C_8
REMARK    7  A    between atoms: N_16  and  C_17
REMARK    8  A    between atoms: C_20  and  C_21
REMARK    9  A    between atoms: C_23  and  C_24
REMARK   10  A    between atoms: O_25  and  C_26
REMARK                            x       y       z     vdW  Elec       q    Type
REMARK                         _______ _______ _______ _____ _____    ______ ____
ROOT
ATOM      1  C   UNL     1       2.578   6.951  18.547  0.00  0.00    +0.000 A 
ATOM      2  C   UNL     1       2.559   8.031  17.659  0.00  0.00    +0.000 A 
ATOM      3  C   UNL     1       2.043   9.271  18.041  0.00  0.00    +0.000 A 
ATOM      4  C   UNL     1       1.504   9.393  19.333  0.00  0.00    +0.000 A 
ATOM      5  C   UNL     1       1.557   8.334  20.243  0.00  0.00    +0.000 A 
ATOM      6  C   UNL     1       2.109   7.104  19.861  0.00  0.00    +0.000 A 
ATOM      7  N   UNL     1       1.028   8.683  21.451  0.00  0.00    +0.000 NA
ATOM      8  C   UNL     1       0.639   9.925  21.300  0.00  0.00    +0.000 A 
ATOM      9  N   UNL     1       0.923  10.436  20.052  0.00  0.00    +0.000 N 
ENDROOT
BRANCH   9  10
ATOM     10  C   UNL     1       0.650  11.759  19.587  0.00  0.00    +0.000 A 
ATOM     11  C   UNL     1       1.481  12.799  20.039  0.00  0.00    +0.000 A 
ATOM     12  C   UNL     1       1.215  14.130  19.720  0.00  0.00    +0.000 A 
ATOM     13  C   UNL     1       0.126  14.449  18.915  0.00  0.00    +0.000 A 
ATOM     14  C   UNL     1      -0.217  15.878  18.612  0.00  0.00    +0.000 C 
ATOM     15  C   UNL     1      -0.666  13.414  18.402  0.00  0.00    +0.000 A 
ATOM     16  C   UNL     1      -0.434  12.062  18.733  0.00  0.00    +0.000 A 
ATOM     17  C   UNL     1      -1.439  11.062  18.228  0.00  0.00    +0.000 C 
ENDBRANCH   9  10
BRANCH   1  19
ATOM     18  N   UNL     1       2.195   4.682  17.782  0.00  0.00    +0.000 N 
ATOM     19  C   UNL     1       3.123   5.653  18.074  0.00  0.00    +0.000 C 
ATOM     20  O   UNL     1       4.329   5.496  17.929  0.00  0.00    +0.000 OA
ATOM     21  H   UNL     1       1.200   4.868  17.822  0.00  0.00    +0.000 HD
BRANCH  18  22
ATOM     22  C   UNL     1       2.583   3.345  17.367  0.00  0.00    +0.000 C 
BRANCH  22  23
ATOM     23  C   UNL     1       2.070   2.264  18.346  0.00  0.00    +0.000 C 
BRANCH  23  25
ATOM     24  C   UNL     1       0.672   2.995  20.138  0.00  0.00    +0.000 C 
ATOM     25  O   UNL     1       0.740   2.531  18.801  0.00  0.00    +0.000 OA
ENDBRANCH  23  25
BRANCH  23  26
ATOM     26  O   UNL     1       2.952   2.249  19.479  0.00  0.00    +0.000 OA
ATOM     27  C   UNL     1       4.315   2.136  19.093  0.00  0.00    +0.000 C 
ENDBRANCH  23  26
ENDBRANCH  22  23
ENDBRANCH  18  22
ENDBRANCH   1  19
TORSDOF 6
ENDMDL
