MODEL 1
REMARK VINA RESULT:      -9.2      0.000      0.000
REMARK  Name = 
REMARK  7 active torsions:
REMARK  status: ('A' for Active; 'I' for Inactive)
REMARK    1  A    between atoms: N_1  and  S_2
REMARK    2  A    between atoms: S_2  and  C_5
REMARK    3  A    between atoms: C_10  and  C_11
REMARK    4  A    between atoms: C_14  and  N_15
REMARK    5  A    between atoms: C_16  and  C_18
REMARK    6  A    between atoms: C_18  and  C_19
REMARK    7  A    between atoms: C_19  and  C_20
REMARK                            x       y       z     vdW  Elec       q    Type
REMARK                         _______ _______ _______ _____ _____    ______ ____
ROOT
ATOM      1  C   UNL     1       2.907   7.118  18.368  0.00  0.00    +0.000 A 
ATOM      2  C   UNL     1       2.425   8.289  17.778  0.00  0.00    +0.000 A 
ATOM      3  C   UNL     1       1.512   9.131  18.426  0.00  0.00    +0.000 A 
ATOM      4  C   UNL     1       1.109   8.886  19.733  0.00  0.00    +0.000 A 
ATOM      5  C   UNL     1       1.655   7.785  20.389  0.00  0.00    +0.000 A 
ATOM      6  C   UNL     1       2.519   6.908  19.710  0.00  0.00    +0.000 A 
ENDROOT
BRANCH   1  12
ATOM      7  C   UNL     1       3.574   4.782  17.425  0.00  0.00    +0.000 A 
ATOM      8  C   UNL     1       4.547   3.981  16.791  0.00  0.00    +0.000 A 
ATOM      9  C   UNL     1       5.772   4.510  16.397  0.00  0.00    +0.000 A 
ATOM     10  C   UNL     1       6.026   5.855  16.598  0.00  0.00    +0.000 A 
ATOM     11  C   UNL     1       5.056   6.666  17.198  0.00  0.00    +0.000 A 
ATOM     12  C   UNL     1       3.812   6.164  17.659  0.00  0.00    +0.000 A 
BRANCH   7  13
ATOM     13  S   UNL     1       2.111   3.946  17.998  0.00  0.00    +0.000 S 
ATOM     14  O   UNL     1       0.957   4.461  17.303  0.00  0.00    +0.000 OA
ATOM     15  O   UNL     1       2.181   3.794  19.434  0.00  0.00    +0.000 OA
BRANCH  13  16
ATOM     16  N   UNL     1       2.233   2.365  17.412  0.00  0.00    +0.000 NA
ATOM     17  H   UNL     1       2.513   2.421  16.428  0.00  0.00    +0.000 HD
ATOM     18  H   UNL     1       1.345   1.886  17.554  0.00  0.00    +0.000 HD
ENDBRANCH  13  16
ENDBRANCH   7  13
ENDBRANCH   1  12
BRANCH   4  19
ATOM     19  N   UNL     1       0.174   9.688  20.419  0.00  0.00    +0.000 N 
ATOM     20  C   UNL     1       0.465  10.803  21.186  0.00  0.00    +0.000 C 
ATOM     21  O   UNL     1       1.582  11.252  21.434  0.00  0.00    +0.000 OA
ATOM     22  H   UNL     1      -0.802   9.450  20.285  0.00  0.00    +0.000 HD
BRANCH  20  23
ATOM     23  C   UNL     1      -0.754  11.512  21.711  0.00  0.00    +0.000 C 
BRANCH  23  24
ATOM     24  C   UNL     1      -1.127  12.637  20.750  0.00  0.00    +0.000 C 
BRANCH  24  25
ATOM     25  C   UNL     1      -1.282  12.116  19.343  0.00  0.00    +0.000 C 
ATOM     26  O   UNL     1      -0.379  12.188  18.515  0.00  0.00    +0.000 OA
ATOM     27  N   UNL     1      -2.535  11.586  19.106  0.00  0.00    +0.000 N 
ATOM     28  C   UNL     1      -2.889  11.113  17.842  0.00  0.00    +0.000 A 
ATOM     29  C   UNL     1      -2.053  10.258  17.131  0.00  0.00    +0.000 A 
ATOM     30  C   UNL     1      -2.415   9.886  15.839  0.00  0.00    +0.000 A 
ATOM     31  C   UNL     1      -3.580  10.405  15.295  0.00  0.00    +0.000 A 
ATOM     32 CL   UNL     1      -4.025  10.050  13.677  0.00  0.00    +0.000 Cl
ATOM     33  C   UNL     1      -4.368  11.226  16.089  0.00  0.00    +0.000 A 
ATOM     34  N   UNL     1      -4.070  11.558  17.371  0.00  0.00    +0.000 NA
ATOM     35  H   UNL     1      -3.310  11.992  19.612  0.00  0.00    +0.000 HD
ENDBRANCH  24  25
ENDBRANCH  23  24
ENDBRANCH  20  23
ENDBRANCH   4  19
TORSDOF 7
ENDMDL
MODEL 2
REMARK VINA RESULT:      -8.6      3.549      4.661
REMARK  Name = 
REMARK  7 active torsions:
REMARK  status: ('A' for Active; 'I' for Inactive)
REMARK    1  A    between atoms: N_1  and  S_2
REMARK    2  A    between atoms: S_2  and  C_5
REMARK    3  A    between atoms: C_10  and  C_11
REMARK    4  A    between atoms: C_14  and  N_15
REMARK    5  A    between atoms: C_16  and  C_18
REMARK    6  A    between atoms: C_18  and  C_19
REMARK    7  A    between atoms: C_19  and  C_20
REMARK                            x       y       z     vdW  Elec       q    Type
REMARK                         _______ _______ _______ _____ _____    ______ ____
ROOT
ATOM      1  C   UNL     1       2.289   6.103  18.985  0.00  0.00    +0.000 A 
ATOM      2  C   UNL     1       2.409   7.142  18.059  0.00  0.00    +0.000 A 
ATOM      3  C   UNL     1       2.015   8.453  18.352  0.00  0.00    +0.000 A 
ATOM      4  C   UNL     1       1.565   8.804  19.619  0.00  0.00    +0.000 A 
ATOM      5  C   UNL     1       1.535   7.813  20.599  0.00  0.00    +0.000 A 
ATOM      6  C   UNL     1       1.870   6.486  20.278  0.00  0.00    +0.000 A 
ENDROOT
BRANCH   1  12
ATOM      7  C   UNL     1       3.913   4.157  18.378  0.00  0.00    +0.000 A 
ATOM      8  C   UNL     1       4.076   2.799  18.029  0.00  0.00    +0.000 A 
ATOM      9  C   UNL     1       2.984   1.944  17.931  0.00  0.00    +0.000 A 
ATOM     10  C   UNL     1       1.718   2.424  18.217  0.00  0.00    +0.000 A 
ATOM     11  C   UNL     1       1.548   3.760  18.594  0.00  0.00    +0.000 A 
ATOM     12  C   UNL     1       2.623   4.683  18.662  0.00  0.00    +0.000 A 
BRANCH   7  13
ATOM     13  S   UNL     1       5.377   5.168  18.331  0.00  0.00    +0.000 S 
ATOM     14  O   UNL     1       5.653   5.679  19.652  0.00  0.00    +0.000 OA
ATOM     15  O   UNL     1       5.350   5.990  17.142  0.00  0.00    +0.000 OA
BRANCH  13  16
ATOM     16  N   UNL     1       6.658   4.099  18.062  0.00  0.00    +0.000 NA
ATOM     17  H   UNL     1       6.269   3.152  18.033  0.00  0.00    +0.000 HD
ATOM     18  H   UNL     1       7.359   4.227  18.790  0.00  0.00    +0.000 HD
ENDBRANCH  13  16
ENDBRANCH   7  13
ENDBRANCH   1  12
BRANCH   4  19
ATOM     19  N   UNL     1       1.133  10.103  19.956  0.00  0.00    +0.000 N 
ATOM     20  C   UNL     1       0.146  10.827  19.308  0.00  0.00    +0.000 C 
ATOM     21  O   UNL     1      -0.481  10.481  18.309  0.00  0.00    +0.000 OA
ATOM     22  H   UNL     1       1.549  10.512  20.785  0.00  0.00    +0.000 HD
BRANCH  20  23
ATOM     23  C   UNL     1      -0.165  12.146  19.961  0.00  0.00    +0.000 C 
BRANCH  23  24
ATOM     24  C   UNL     1       0.108  12.036  21.458  0.00  0.00    +0.000 C 
BRANCH  24  25
ATOM     25  C   UNL     1      -1.180  11.906  22.234  0.00  0.00    +0.000 C 
ATOM     26  O   UNL     1      -1.389  10.974  23.004  0.00  0.00    +0.000 OA
ATOM     27  N   UNL     1      -2.071  12.925  21.960  0.00  0.00    +0.000 N 
ATOM     28  C   UNL     1      -3.344  12.940  22.534  0.00  0.00    +0.000 A 
ATOM     29  C   UNL     1      -3.523  12.733  23.897  0.00  0.00    +0.000 A 
ATOM     30  C   UNL     1      -4.819  12.672  24.402  0.00  0.00    +0.000 A 
ATOM     31  C   UNL     1      -5.886  12.792  23.524  0.00  0.00    +0.000 A 
ATOM     32 CL   UNL     1      -7.500  12.637  24.082  0.00  0.00    +0.000 Cl
ATOM     33  C   UNL     1      -5.611  13.030  22.184  0.00  0.00    +0.000 A 
ATOM     34  N   UNL     1      -4.360  13.151  21.675  0.00  0.00    +0.000 NA
ATOM     35  H   UNL     1      -2.048  13.320  21.030  0.00  0.00    +0.000 HD
ENDBRANCH  24  25
ENDBRANCH  23  24
ENDBRANCH  20  23
ENDBRANCH   4  19
TORSDOF 7
ENDMDL
MODEL 3
REMARK VINA RESULT:      -8.4      3.722      4.744
REMARK  Name = 
REMARK  7 active torsions:
REMARK  status: ('A' for Active; 'I' for Inactive)
REMARK    1  A    between atoms: N_1  and  S_2
REMARK    2  A    between atoms: S_2  and  C_5
REMARK    3  A    between atoms: C_10  and  C_11
REMARK    4  A    between atoms: C_14  and  N_15
REMARK    5  A    between atoms: C_16  and  C_18
REMARK    6  A    between atoms: C_18  and  C_19
REMARK    7  A    between atoms: C_19  and  C_20
REMARK                            x       y       z     vdW  Elec       q    Type
REMARK                         _______ _______ _______ _____ _____    ______ ____
ROOT
ATOM      1  C   UNL     1       2.283   6.309  18.671  0.00  0.00    +0.000 A 
ATOM      2  C   UNL     1       2.253   7.207  17.602  0.00  0.00    +0.000 A 
ATOM      3  C   UNL     1       1.927   8.558  17.771  0.00  0.00    +0.000 A 
ATOM      4  C   UNL     1       1.703   9.093  19.034  0.00  0.00    +0.000 A 
ATOM      5  C   UNL     1       1.831   8.247  20.133  0.00  0.00    +0.000 A 
ATOM      6  C   UNL     1       2.094   6.878  19.950  0.00  0.00    +0.000 A 
ENDROOT
BRANCH   1  12
ATOM      7  C   UNL     1       3.814   4.219  18.374  0.00  0.00    +0.000 A 
ATOM      8  C   UNL     1       3.911   2.829  18.156  0.00  0.00    +0.000 A 
ATOM      9  C   UNL     1       2.775   2.037  18.034  0.00  0.00    +0.000 A 
ATOM     10  C   UNL     1       1.526   2.618  18.166  0.00  0.00    +0.000 A 
ATOM     11  C   UNL     1       1.418   3.990  18.414  0.00  0.00    +0.000 A 
ATOM     12  C   UNL     1       2.544   4.848  18.499  0.00  0.00    +0.000 A 
BRANCH   7  13
ATOM     13  S   UNL     1       5.343   5.131  18.373  0.00  0.00    +0.000 S 
ATOM     14  O   UNL     1       5.669   5.528  19.721  0.00  0.00    +0.000 OA
ATOM     15  O   UNL     1       5.358   6.034  17.244  0.00  0.00    +0.000 OA
BRANCH  13  16
ATOM     16  N   UNL     1       6.544   4.000  18.008  0.00  0.00    +0.000 NA
ATOM     17  H   UNL     1       6.853   4.176  17.047  0.00  0.00    +0.000 HD
ATOM     18  H   UNL     1       6.174   3.061  18.149  0.00  0.00    +0.000 HD
ENDBRANCH  13  16
ENDBRANCH   7  13
ENDBRANCH   1  12
BRANCH   4  19
ATOM     19  N   UNL     1       1.346  10.439  19.253  0.00  0.00    +0.000 N 
ATOM     20  C   UNL     1       0.121  10.892  19.712  0.00  0.00    +0.000 C 
ATOM     21  O   UNL     1      -0.869  10.208  19.959  0.00  0.00    +0.000 OA
ATOM     22  H   UNL     1       2.079  11.124  19.113  0.00  0.00    +0.000 HD
BRANCH  20  23
ATOM     23  C   UNL     1       0.073  12.378  19.943  0.00  0.00    +0.000 C 
BRANCH  23  24
ATOM     24  C   UNL     1      -0.107  12.644  21.435  0.00  0.00    +0.000 C 
BRANCH  24  25
ATOM     25  C   UNL     1      -1.513  13.100  21.737  0.00  0.00    +0.000 C 
ATOM     26  O   UNL     1      -1.917  14.220  21.442  0.00  0.00    +0.000 OA
ATOM     27  N   UNL     1      -2.257  12.134  22.387  0.00  0.00    +0.000 N 
ATOM     28  C   UNL     1      -3.562  12.395  22.808  0.00  0.00    +0.000 A 
ATOM     29  C   UNL     1      -4.493  12.978  21.955  0.00  0.00    +0.000 A 
ATOM     30  C   UNL     1      -5.753  13.294  22.452  0.00  0.00    +0.000 A 
ATOM     31  C   UNL     1      -6.028  13.044  23.789  0.00  0.00    +0.000 A 
ATOM     32 CL   UNL     1      -7.534  13.497  24.472  0.00  0.00    +0.000 Cl
ATOM     33  C   UNL     1      -5.049  12.430  24.557  0.00  0.00    +0.000 A 
ATOM     34  N   UNL     1      -3.833  12.058  24.083  0.00  0.00    +0.000 NA
ATOM     35  H   UNL     1      -1.758  11.503  23.000  0.00  0.00    +0.000 HD
ENDBRANCH  24  25
ENDBRANCH  23  24
ENDBRANCH  20  23
ENDBRANCH   4  19
TORSDOF 7
ENDMDL
MODEL 4
REMARK VINA RESULT:      -8.2      1.955      2.352
REMARK  Name = 
REMARK  7 active torsions:
REMARK  status: ('A' for Active; 'I' for Inactive)
REMARK    1  A    between atoms: N_1  and  S_2
REMARK    2  A    between atoms: S_2  and  C_5
REMARK    3  A    between atoms: C_10  and  C_11
REMARK    4  A    between atoms: C_14  and  N_15
REMARK    5  A    between atoms: C_16  and  C_18
REMARK    6  A    between atoms: C_18  and  C_19
REMARK    7  A    between atoms: C_19  and  C_20
REMARK                            x       y       z     vdW  Elec       q    Type
REMARK                         _______ _______ _______ _____ _____    ______ ____
ROOT
ATOM      1  C   UNL     1       2.315   6.507  18.882  0.00  0.00    +0.000 A 
ATOM      2  C   UNL     1       2.183   7.538  17.949  0.00  0.00    +0.000 A 
ATOM      3  C   UNL     1       1.805   8.835  18.317  0.00  0.00    +0.000 A 
ATOM      4  C   UNL     1       1.626   9.182  19.651  0.00  0.00    +0.000 A 
ATOM      5  C   UNL     1       1.854   8.203  20.616  0.00  0.00    +0.000 A 
ATOM      6  C   UNL     1       2.170   6.887  20.234  0.00  0.00    +0.000 A 
ENDROOT
BRANCH   1  12
ATOM      7  C   UNL     1       3.924   4.555  18.255  0.00  0.00    +0.000 A 
ATOM      8  C   UNL     1       4.075   3.215  17.839  0.00  0.00    +0.000 A 
ATOM      9  C   UNL     1       2.971   2.395  17.633  0.00  0.00    +0.000 A 
ATOM     10  C   UNL     1       1.702   2.892  17.876  0.00  0.00    +0.000 A 
ATOM     11  C   UNL     1       1.542   4.209  18.319  0.00  0.00    +0.000 A 
ATOM     12  C   UNL     1       2.633   5.098  18.497  0.00  0.00    +0.000 A 
BRANCH   7  13
ATOM     13  S   UNL     1       5.412   5.529  18.346  0.00  0.00    +0.000 S 
ATOM     14  O   UNL     1       5.826   5.649  19.722  0.00  0.00    +0.000 OA
ATOM     15  O   UNL     1       5.303   6.649  17.439  0.00  0.00    +0.000 OA
BRANCH  13  16
ATOM     16  N   UNL     1       6.625   4.568  17.667  0.00  0.00    +0.000 NA
ATOM     17  H   UNL     1       6.454   4.522  16.657  0.00  0.00    +0.000 HD
ATOM     18  H   UNL     1       6.621   3.655  18.119  0.00  0.00    +0.000 HD
ENDBRANCH  13  16
ENDBRANCH   7  13
ENDBRANCH   1  12
BRANCH   4  19
ATOM     19  N   UNL     1       1.220  10.465  20.071  0.00  0.00    +0.000 N 
ATOM     20  C   UNL     1       0.234  10.743  21.003  0.00  0.00    +0.000 C 
ATOM     21  O   UNL     1      -0.478   9.927  21.583  0.00  0.00    +0.000 OA
ATOM     22  H   UNL     1       1.742  11.246  19.691  0.00  0.00    +0.000 HD
BRANCH  20  23
ATOM     23  C   UNL     1       0.095  12.207  21.319  0.00  0.00    +0.000 C 
BRANCH  23  24
ATOM     24  C   UNL     1      -1.167  12.743  20.648  0.00  0.00    +0.000 C 
BRANCH  24  25
ATOM     25  C   UNL     1      -1.308  12.198  19.248  0.00  0.00    +0.000 C 
ATOM     26  O   UNL     1      -0.411  12.291  18.416  0.00  0.00    +0.000 OA
ATOM     27  N   UNL     1      -2.542  11.620  19.024  0.00  0.00    +0.000 N 
ATOM     28  C   UNL     1      -2.883  11.119  17.767  0.00  0.00    +0.000 A 
ATOM     29  C   UNL     1      -2.020  10.284  17.064  0.00  0.00    +0.000 A 
ATOM     30  C   UNL     1      -2.372   9.883  15.779  0.00  0.00    +0.000 A 
ATOM     31  C   UNL     1      -3.558  10.352  15.232  0.00  0.00    +0.000 A 
ATOM     32 CL   UNL     1      -3.995   9.960  13.621  0.00  0.00    +0.000 Cl
ATOM     33  C   UNL     1      -4.372  11.155  16.019  0.00  0.00    +0.000 A 
ATOM     34  N   UNL     1      -4.081  11.514  17.295  0.00  0.00    +0.000 NA
ATOM     35  H   UNL     1      -3.329  12.005  19.527  0.00  0.00    +0.000 HD
ENDBRANCH  24  25
ENDBRANCH  23  24
ENDBRANCH  20  23
ENDBRANCH   4  19
TORSDOF 7
ENDMDL
MODEL 5
REMARK VINA RESULT:      -8.2      4.485      5.699
REMARK  Name = 
REMARK  7 active torsions:
REMARK  status: ('A' for Active; 'I' for Inactive)
REMARK    1  A    between atoms: N_1  and  S_2
REMARK    2  A    between atoms: S_2  and  C_5
REMARK    3  A    between atoms: C_10  and  C_11
REMARK    4  A    between atoms: C_14  and  N_15
REMARK    5  A    between atoms: C_16  and  C_18
REMARK    6  A    between atoms: C_18  and  C_19
REMARK    7  A    between atoms: C_19  and  C_20
REMARK                            x       y       z     vdW  Elec       q    Type
REMARK                         _______ _______ _______ _____ _____    ______ ____
ROOT
ATOM      1  C   UNL     1       2.312   6.177  18.843  0.00  0.00    +0.000 A 
ATOM      2  C   UNL     1       2.384   7.147  17.840  0.00  0.00    +0.000 A 
ATOM      3  C   UNL     1       2.014   8.479  18.062  0.00  0.00    +0.000 A 
ATOM      4  C   UNL     1       1.640   8.922  19.324  0.00  0.00    +0.000 A 
ATOM      5  C   UNL     1       1.662   8.003  20.372  0.00  0.00    +0.000 A 
ATOM      6  C   UNL     1       1.970   6.654  20.127  0.00  0.00    +0.000 A 
ENDROOT
BRANCH   1  12
ATOM      7  C   UNL     1       3.904   4.163  18.391  0.00  0.00    +0.000 A 
ATOM      8  C   UNL     1       4.044   2.786  18.115  0.00  0.00    +0.000 A 
ATOM      9  C   UNL     1       2.933   1.954  18.021  0.00  0.00    +0.000 A 
ATOM     10  C   UNL     1       1.671   2.479  18.237  0.00  0.00    +0.000 A 
ATOM     11  C   UNL     1       1.524   3.836  18.542  0.00  0.00    +0.000 A 
ATOM     12  C   UNL     1       2.619   4.735  18.602  0.00  0.00    +0.000 A 
BRANCH   7  13
ATOM     13  S   UNL     1       5.395   5.135  18.347  0.00  0.00    +0.000 S 
ATOM     14  O   UNL     1       5.677   5.646  19.666  0.00  0.00    +0.000 OA
ATOM     15  O   UNL     1       5.397   5.950  17.153  0.00  0.00    +0.000 OA
BRANCH  13  16
ATOM     16  N   UNL     1       6.649   4.030  18.091  0.00  0.00    +0.000 NA
ATOM     17  H   UNL     1       7.453   4.553  17.730  0.00  0.00    +0.000 HD
ATOM     18  H   UNL     1       6.326   3.298  17.461  0.00  0.00    +0.000 HD
ENDBRANCH  13  16
ENDBRANCH   7  13
ENDBRANCH   1  12
BRANCH   4  19
ATOM     19  N   UNL     1       1.234  10.245  19.593  0.00  0.00    +0.000 N 
ATOM     20  C   UNL     1      -0.036  10.763  19.401  0.00  0.00    +0.000 C 
ATOM     21  O   UNL     1      -1.004  10.175  18.925  0.00  0.00    +0.000 OA
ATOM     22  H   UNL     1       1.929  10.849  20.018  0.00  0.00    +0.000 HD
BRANCH  20  23
ATOM     23  C   UNL     1      -0.189  12.183  19.874  0.00  0.00    +0.000 C 
BRANCH  23  24
ATOM     24  C   UNL     1       0.108  13.129  18.715  0.00  0.00    +0.000 C 
BRANCH  24  25
ATOM     25  C   UNL     1       1.594  13.317  18.538  0.00  0.00    +0.000 C 
ATOM     26  O   UNL     1       2.278  12.548  17.869  0.00  0.00    +0.000 OA
ATOM     27  N   UNL     1       2.075  14.418  19.220  0.00  0.00    +0.000 N 
ATOM     28  C   UNL     1       3.438  14.718  19.230  0.00  0.00    +0.000 A 
ATOM     29  C   UNL     1       4.182  14.735  18.054  0.00  0.00    +0.000 A 
ATOM     30  C   UNL     1       5.554  14.956  18.131  0.00  0.00    +0.000 A 
ATOM     31  C   UNL     1       6.137  15.122  19.380  0.00  0.00    +0.000 A 
ATOM     32 CL   UNL     1       7.835  15.307  19.536  0.00  0.00    +0.000 Cl
ATOM     33  C   UNL     1       5.311  15.122  20.495  0.00  0.00    +0.000 A 
ATOM     34  N   UNL     1       3.964  14.967  20.444  0.00  0.00    +0.000 NA
ATOM     35  H   UNL     1       1.605  14.670  20.079  0.00  0.00    +0.000 HD
ENDBRANCH  24  25
ENDBRANCH  23  24
ENDBRANCH  20  23
ENDBRANCH   4  19
TORSDOF 7
ENDMDL
MODEL 6
REMARK VINA RESULT:      -8.1      3.225      3.894
REMARK  Name = 
REMARK  7 active torsions:
REMARK  status: ('A' for Active; 'I' for Inactive)
REMARK    1  A    between atoms: N_1  and  S_2
REMARK    2  A    between atoms: S_2  and  C_5
REMARK    3  A    between atoms: C_10  and  C_11
REMARK    4  A    between atoms: C_14  and  N_15
REMARK    5  A    between atoms: C_16  and  C_18
REMARK    6  A    between atoms: C_18  and  C_19
REMARK    7  A    between atoms: C_19  and  C_20
REMARK                            x       y       z     vdW  Elec       q    Type
REMARK                         _______ _______ _______ _____ _____    ______ ____
ROOT
ATOM      1  C   UNL     1       2.977   6.976  18.313  0.00  0.00    +0.000 A 
ATOM      2  C   UNL     1       2.459   8.153  17.769  0.00  0.00    +0.000 A 
ATOM      3  C   UNL     1       1.605   8.997  18.490  0.00  0.00    +0.000 A 
ATOM      4  C   UNL     1       1.302   8.747  19.823  0.00  0.00    +0.000 A 
ATOM      5  C   UNL     1       1.890   7.638  20.429  0.00  0.00    +0.000 A 
ATOM      6  C   UNL     1       2.693   6.761  19.680  0.00  0.00    +0.000 A 
ENDROOT
BRANCH   1  12
ATOM      7  C   UNL     1       3.556   4.641  17.311  0.00  0.00    +0.000 A 
ATOM      8  C   UNL     1       4.471   3.837  16.599  0.00  0.00    +0.000 A 
ATOM      9  C   UNL     1       5.663   4.362  16.112  0.00  0.00    +0.000 A 
ATOM     10  C   UNL     1       5.939   5.706  16.297  0.00  0.00    +0.000 A 
ATOM     11  C   UNL     1       5.024   6.518  16.974  0.00  0.00    +0.000 A 
ATOM     12  C   UNL     1       3.818   6.021  17.531  0.00  0.00    +0.000 A 
BRANCH   7  13
ATOM     13  S   UNL     1       2.138   3.809  17.997  0.00  0.00    +0.000 S 
ATOM     14  O   UNL     1       0.938   4.305  17.369  0.00  0.00    +0.000 OA
ATOM     15  O   UNL     1       2.304   3.687  19.427  0.00  0.00    +0.000 OA
BRANCH  13  16
ATOM     16  N   UNL     1       2.232   2.218  17.436  0.00  0.00    +0.000 NA
ATOM     17  H   UNL     1       2.625   1.646  18.190  0.00  0.00    +0.000 HD
ATOM     18  H   UNL     1       2.785   2.196  16.581  0.00  0.00    +0.000 HD
ENDBRANCH  13  16
ENDBRANCH   7  13
ENDBRANCH   1  12
BRANCH   4  19
ATOM     19  N   UNL     1       0.428   9.551  20.583  0.00  0.00    +0.000 N 
ATOM     20  C   UNL     1       0.587   9.891  21.916  0.00  0.00    +0.000 C 
ATOM     21  O   UNL     1       1.484   9.516  22.667  0.00  0.00    +0.000 OA
ATOM     22  H   UNL     1      -0.354   9.957  20.084  0.00  0.00    +0.000 HD
BRANCH  20  23
ATOM     23  C   UNL     1      -0.458  10.846  22.426  0.00  0.00    +0.000 C 
BRANCH  23  24
ATOM     24  C   UNL     1      -0.391  12.136  21.614  0.00  0.00    +0.000 C 
BRANCH  24  25
ATOM     25  C   UNL     1      -1.709  12.869  21.654  0.00  0.00    +0.000 C 
ATOM     26  O   UNL     1      -1.832  14.020  21.246  0.00  0.00    +0.000 OA
ATOM     27  N   UNL     1      -2.722  12.112  22.209  0.00  0.00    +0.000 N 
ATOM     28  C   UNL     1      -4.000  12.643  22.391  0.00  0.00    +0.000 A 
ATOM     29  C   UNL     1      -4.651  13.325  21.368  0.00  0.00    +0.000 A 
ATOM     30  C   UNL     1      -5.887  13.908  21.630  0.00  0.00    +0.000 A 
ATOM     31  C   UNL     1      -6.413  13.816  22.910  0.00  0.00    +0.000 A 
ATOM     32 CL   UNL     1      -7.889  14.593  23.309  0.00  0.00    +0.000 Cl
ATOM     33  C   UNL     1      -5.709  13.088  23.859  0.00  0.00    +0.000 A 
ATOM     34  N   UNL     1      -4.531  12.460  23.615  0.00  0.00    +0.000 NA
ATOM     35  H   UNL     1      -2.461  11.446  22.924  0.00  0.00    +0.000 HD
ENDBRANCH  24  25
ENDBRANCH  23  24
ENDBRANCH  20  23
ENDBRANCH   4  19
TORSDOF 7
ENDMDL
MODEL 7
REMARK VINA RESULT:      -8.1      3.621      4.615
REMARK  Name = 
REMARK  7 active torsions:
REMARK  status: ('A' for Active; 'I' for Inactive)
REMARK    1  A    between atoms: N_1  and  S_2
REMARK    2  A    between atoms: S_2  and  C_5
REMARK    3  A    between atoms: C_10  and  C_11
REMARK    4  A    between atoms: C_14  and  N_15
REMARK    5  A    between atoms: C_16  and  C_18
REMARK    6  A    between atoms: C_18  and  C_19
REMARK    7  A    between atoms: C_19  and  C_20
REMARK                            x       y       z     vdW  Elec       q    Type
REMARK                         _______ _______ _______ _____ _____    ______ ____
ROOT
ATOM      1  C   UNL     1       3.022   6.952  18.225  0.00  0.00    +0.000 A 
ATOM      2  C   UNL     1       2.554   6.800  19.531  0.00  0.00    +0.000 A 
ATOM      3  C   UNL     1       1.797   7.788  20.173  0.00  0.00    +0.000 A 
ATOM      4  C   UNL     1       1.398   8.939  19.503  0.00  0.00    +0.000 A 
ATOM      5  C   UNL     1       1.758   9.072  18.163  0.00  0.00    +0.000 A 
ATOM      6  C   UNL     1       2.573   8.106  17.547  0.00  0.00    +0.000 A 
ENDROOT
BRANCH   1  12
ATOM      7  C   UNL     1       3.637   4.561  17.388  0.00  0.00    +0.000 A 
ATOM      8  C   UNL     1       4.589   3.712  16.785  0.00  0.00    +0.000 A 
ATOM      9  C   UNL     1       5.820   4.198  16.357  0.00  0.00    +0.000 A 
ATOM     10  C   UNL     1       6.101   5.546  16.492  0.00  0.00    +0.000 A 
ATOM     11  C   UNL     1       5.152   6.403  17.060  0.00  0.00    +0.000 A 
ATOM     12  C   UNL     1       3.903   5.948  17.555  0.00  0.00    +0.000 A 
BRANCH   7  13
ATOM     13  S   UNL     1       2.163   3.781  18.012  0.00  0.00    +0.000 S 
ATOM     14  O   UNL     1       1.012   4.294  17.310  0.00  0.00    +0.000 OA
ATOM     15  O   UNL     1       2.248   3.686  19.452  0.00  0.00    +0.000 OA
BRANCH  13  16
ATOM     16  N   UNL     1       2.244   2.176  17.490  0.00  0.00    +0.000 NA
ATOM     17  H   UNL     1       2.906   2.138  16.709  0.00  0.00    +0.000 HD
ATOM     18  H   UNL     1       1.308   1.857  17.243  0.00  0.00    +0.000 HD
ENDBRANCH  13  16
ENDBRANCH   7  13
ENDBRANCH   1  12
BRANCH   4  19
ATOM     19  N   UNL     1       0.659   9.973  20.111  0.00  0.00    +0.000 N 
ATOM     20  C   UNL     1      -0.584  10.432  19.708  0.00  0.00    +0.000 C 
ATOM     21  O   UNL     1      -1.227  10.051  18.733  0.00  0.00    +0.000 OA
ATOM     22  H   UNL     1       1.057  10.372  20.953  0.00  0.00    +0.000 HD
BRANCH  20  23
ATOM     23  C   UNL     1      -1.167  11.480  20.617  0.00  0.00    +0.000 C 
BRANCH  23  24
ATOM     24  C   UNL     1      -1.071  12.841  19.934  0.00  0.00    +0.000 C 
BRANCH  24  25
ATOM     25  C   UNL     1       0.344  13.364  19.967  0.00  0.00    +0.000 C 
ATOM     26  O   UNL     1       1.118  13.102  20.883  0.00  0.00    +0.000 OA
ATOM     27  N   UNL     1       0.640  14.166  18.882  0.00  0.00    +0.000 N 
ATOM     28  C   UNL     1       1.881  14.795  18.772  0.00  0.00    +0.000 A 
ATOM     29  C   UNL     1       3.066  14.094  18.968  0.00  0.00    +0.000 A 
ATOM     30  C   UNL     1       4.271  14.789  18.931  0.00  0.00    +0.000 A 
ATOM     31  C   UNL     1       4.247  16.161  18.727  0.00  0.00    +0.000 A 
ATOM     32 CL   UNL     1       5.697  17.077  18.761  0.00  0.00    +0.000 Cl
ATOM     33  C   UNL     1       3.020  16.772  18.508  0.00  0.00    +0.000 A 
ATOM     34  N   UNL     1       1.836  16.110  18.481  0.00  0.00    +0.000 NA
ATOM     35  H   UNL     1      -0.118  14.706  18.488  0.00  0.00    +0.000 HD
ENDBRANCH  24  25
ENDBRANCH  23  24
ENDBRANCH  20  23
ENDBRANCH   4  19
TORSDOF 7
ENDMDL
MODEL 8
REMARK VINA RESULT:      -8.1      3.298      4.484
REMARK  Name = 
REMARK  7 active torsions:
REMARK  status: ('A' for Active; 'I' for Inactive)
REMARK    1  A    between atoms: N_1  and  S_2
REMARK    2  A    between atoms: S_2  and  C_5
REMARK    3  A    between atoms: C_10  and  C_11
REMARK    4  A    between atoms: C_14  and  N_15
REMARK    5  A    between atoms: C_16  and  C_18
REMARK    6  A    between atoms: C_18  and  C_19
REMARK    7  A    between atoms: C_19  and  C_20
REMARK                            x       y       z     vdW  Elec       q    Type
REMARK                         _______ _______ _______ _____ _____    ______ ____
ROOT
ATOM      1  C   UNL     1       3.026   6.939  18.229  0.00  0.00    +0.000 A 
ATOM      2  C   UNL     1       2.566   6.781  19.538  0.00  0.00    +0.000 A 
ATOM      3  C   UNL     1       1.820   7.769  20.193  0.00  0.00    +0.000 A 
ATOM      4  C   UNL     1       1.424   8.927  19.535  0.00  0.00    +0.000 A 
ATOM      5  C   UNL     1       1.775   9.068  18.193  0.00  0.00    +0.000 A 
ATOM      6  C   UNL     1       2.579   8.102  17.564  0.00  0.00    +0.000 A 
ENDROOT
BRANCH   1  12
ATOM      7  C   UNL     1       3.621   4.549  17.378  0.00  0.00    +0.000 A 
ATOM      8  C   UNL     1       4.563   3.698  16.760  0.00  0.00    +0.000 A 
ATOM      9  C   UNL     1       5.790   4.181  16.319  0.00  0.00    +0.000 A 
ATOM     10  C   UNL     1       6.077   5.528  16.454  0.00  0.00    +0.000 A 
ATOM     11  C   UNL     1       5.139   6.386  17.037  0.00  0.00    +0.000 A 
ATOM     12  C   UNL     1       3.894   5.934  17.546  0.00  0.00    +0.000 A 
BRANCH   7  13
ATOM     13  S   UNL     1       2.153   3.772  18.018  0.00  0.00    +0.000 S 
ATOM     14  O   UNL     1       0.996   4.278  17.321  0.00  0.00    +0.000 OA
ATOM     15  O   UNL     1       2.248   3.687  19.458  0.00  0.00    +0.000 OA
BRANCH  13  16
ATOM     16  N   UNL     1       2.231   2.163  17.507  0.00  0.00    +0.000 NA
ATOM     17  H   UNL     1       1.305   1.907  17.148  0.00  0.00    +0.000 HD
ATOM     18  H   UNL     1       2.540   1.580  18.282  0.00  0.00    +0.000 HD
ENDBRANCH  13  16
ENDBRANCH   7  13
ENDBRANCH   1  12
BRANCH   4  19
ATOM     19  N   UNL     1       0.697   9.962  20.156  0.00  0.00    +0.000 N 
ATOM     20  C   UNL     1      -0.582  10.375  19.820  0.00  0.00    +0.000 C 
ATOM     21  O   UNL     1      -1.274   9.944  18.902  0.00  0.00    +0.000 OA
ATOM     22  H   UNL     1       1.137  10.399  20.958  0.00  0.00    +0.000 HD
BRANCH  20  23
ATOM     23  C   UNL     1      -1.134  11.437  20.731  0.00  0.00    +0.000 C 
BRANCH  23  24
ATOM     24  C   UNL     1      -1.694  12.577  19.885  0.00  0.00    +0.000 C 
BRANCH  24  25
ATOM     25  C   UNL     1      -0.582  13.408  19.295  0.00  0.00    +0.000 C 
ATOM     26  O   UNL     1      -0.450  13.563  18.084  0.00  0.00    +0.000 OA
ATOM     27  N   UNL     1       0.255  13.938  20.258  0.00  0.00    +0.000 N 
ATOM     28  C   UNL     1       1.380  14.683  19.902  0.00  0.00    +0.000 A 
ATOM     29  C   UNL     1       1.300  15.709  18.966  0.00  0.00    +0.000 A 
ATOM     30  C   UNL     1       2.468  16.362  18.584  0.00  0.00    +0.000 A 
ATOM     31  C   UNL     1       3.675  15.948  19.128  0.00  0.00    +0.000 A 
ATOM     32 CL   UNL     1       5.153  16.659  18.625  0.00  0.00    +0.000 Cl
ATOM     33  C   UNL     1       3.655  14.938  20.080  0.00  0.00    +0.000 A 
ATOM     34  N   UNL     1       2.525  14.324  20.513  0.00  0.00    +0.000 NA
ATOM     35  H   UNL     1       0.384  13.399  21.103  0.00  0.00    +0.000 HD
ENDBRANCH  24  25
ENDBRANCH  23  24
ENDBRANCH  20  23
ENDBRANCH   4  19
TORSDOF 7
ENDMDL
MODEL 9
REMARK VINA RESULT:      -8.1      3.612      4.808
REMARK  Name = 
REMARK  7 active torsions:
REMARK  status: ('A' for Active; 'I' for Inactive)
REMARK    1  A    between atoms: N_1  and  S_2
REMARK    2  A    between atoms: S_2  and  C_5
REMARK    3  A    between atoms: C_10  and  C_11
REMARK    4  A    between atoms: C_14  and  N_15
REMARK    5  A    between atoms: C_16  and  C_18
REMARK    6  A    between atoms: C_18  and  C_19
REMARK    7  A    between atoms: C_19  and  C_20
REMARK                            x       y       z     vdW  Elec       q    Type
REMARK                         _______ _______ _______ _____ _____    ______ ____
ROOT
ATOM      1  C   UNL     1       3.049   6.842  18.316  0.00  0.00    +0.000 A 
ATOM      2  C   UNL     1       2.596   8.061  17.808  0.00  0.00    +0.000 A 
ATOM      3  C   UNL     1       1.730   8.894  18.527  0.00  0.00    +0.000 A 
ATOM      4  C   UNL     1       1.348   8.586  19.827  0.00  0.00    +0.000 A 
ATOM      5  C   UNL     1       1.869   7.429  20.404  0.00  0.00    +0.000 A 
ATOM      6  C   UNL     1       2.685   6.566  19.652  0.00  0.00    +0.000 A 
ENDROOT
BRANCH   1  12
ATOM      7  C   UNL     1       3.666   4.515  17.316  0.00  0.00    +0.000 A 
ATOM      8  C   UNL     1       4.592   3.728  16.598  0.00  0.00    +0.000 A 
ATOM      9  C   UNL     1       5.769   4.275  16.100  0.00  0.00    +0.000 A 
ATOM     10  C   UNL     1       6.019   5.624  16.279  0.00  0.00    +0.000 A 
ATOM     11  C   UNL     1       5.094   6.420  16.962  0.00  0.00    +0.000 A 
ATOM     12  C   UNL     1       3.903   5.901  17.530  0.00  0.00    +0.000 A 
BRANCH   7  13
ATOM     13  S   UNL     1       2.271   3.657  18.015  0.00  0.00    +0.000 S 
ATOM     14  O   UNL     1       1.052   4.171  17.441  0.00  0.00    +0.000 OA
ATOM     15  O   UNL     1       2.480   3.487  19.436  0.00  0.00    +0.000 OA
BRANCH  13  16
ATOM     16  N   UNL     1       2.350   2.086  17.398  0.00  0.00    +0.000 NA
ATOM     17  H   UNL     1       3.113   1.602  17.882  0.00  0.00    +0.000 HD
ATOM     18  H   UNL     1       2.473   2.129  16.388  0.00  0.00    +0.000 HD
ENDBRANCH  13  16
ENDBRANCH   7  13
ENDBRANCH   1  12
BRANCH   4  19
ATOM     19  N   UNL     1       0.458   9.377  20.582  0.00  0.00    +0.000 N 
ATOM     20  C   UNL     1       0.659   9.814  21.881  0.00  0.00    +0.000 C 
ATOM     21  O   UNL     1       1.615   9.550  22.605  0.00  0.00    +0.000 OA
ATOM     22  H   UNL     1      -0.374   9.697  20.101  0.00  0.00    +0.000 HD
BRANCH  20  23
ATOM     23  C   UNL     1      -0.425  10.728  22.386  0.00  0.00    +0.000 C 
BRANCH  23  24
ATOM     24  C   UNL     1      -0.986  11.528  21.215  0.00  0.00    +0.000 C 
BRANCH  24  25
ATOM     25  C   UNL     1      -1.969  12.568  21.693  0.00  0.00    +0.000 C 
ATOM     26  O   UNL     1      -2.819  13.056  20.953  0.00  0.00    +0.000 OA
ATOM     27  N   UNL     1      -1.783  12.906  23.019  0.00  0.00    +0.000 N 
ATOM     28  C   UNL     1      -2.556  13.900  23.622  0.00  0.00    +0.000 A 
ATOM     29  C   UNL     1      -3.941  13.917  23.492  0.00  0.00    +0.000 A 
ATOM     30  C   UNL     1      -4.654  14.978  24.041  0.00  0.00    +0.000 A 
ATOM     31  C   UNL     1      -3.956  15.997  24.675  0.00  0.00    +0.000 A 
ATOM     32 CL   UNL     1      -4.779  17.370  25.291  0.00  0.00    +0.000 Cl
ATOM     33  C   UNL     1      -2.578  15.879  24.787  0.00  0.00    +0.000 A 
ATOM     34  N   UNL     1      -1.864  14.828  24.312  0.00  0.00    +0.000 NA
ATOM     35  H   UNL     1      -0.840  12.861  23.378  0.00  0.00    +0.000 HD
ENDBRANCH  24  25
ENDBRANCH  23  24
ENDBRANCH  20  23
ENDBRANCH   4  19
TORSDOF 7
ENDMDL
