MODEL 1
REMARK VINA RESULT:      -8.5      0.000      0.000
REMARK  Name = 
REMARK  5 active torsions:
REMARK  status: ('A' for Active; 'I' for Inactive)
REMARK    1  A    between atoms: C_1  and  O_2
REMARK    2  A    between atoms: O_2  and  C_3
REMARK    3  A    between atoms: C_10  and  C_11
REMARK    4  A    between atoms: N_16  and  C_17
REMARK    5  A    between atoms: C_21  and  C_22
REMARK                            x       y       z     vdW  Elec       q    Type
REMARK                         _______ _______ _______ _____ _____    ______ ____
ROOT
ATOM      1  C   UNL     1       2.146   5.674  20.207  0.00  0.00    +0.000 C 
ATOM      2  O   UNL     1       1.632   4.709  20.780  0.00  0.00    +0.000 OA
ATOM      3  N   UNL     1       3.229   5.502  19.348  0.00  0.00    +0.000 N 
ATOM      4  C   UNL     1       3.625   4.153  18.935  0.00  0.00    +0.000 C 
ATOM      5  C   UNL     1       3.622   4.021  17.396  0.00  0.00    +0.000 C 
ATOM      6  N   UNL     1       4.419   5.109  16.797  0.00  0.00    +0.000 N 
ATOM      7  C   UNL     1       4.022   6.471  17.214  0.00  0.00    +0.000 C 
ATOM      8  C   UNL     1       4.063   6.559  18.749  0.00  0.00    +0.000 C 
ENDROOT
BRANCH   1  16
ATOM      9  C   UNL     1      -1.324  13.121  21.798  0.00  0.00    +0.000 A 
ATOM     10  C   UNL     1      -1.694  12.438  22.952  0.00  0.00    +0.000 A 
ATOM     11  C   UNL     1      -1.280  11.114  23.142  0.00  0.00    +0.000 A 
ATOM     12  C   UNL     1      -0.500  10.447  22.209  0.00  0.00    +0.000 A 
ATOM     13  N   UNL     1      -0.130   9.192  22.484  0.00  0.00    +0.000 NA
ATOM     14  C   UNL     1       0.605   8.611  21.525  0.00  0.00    +0.000 A 
ATOM     15  O   UNL     1       1.053   7.335  21.618  0.00  0.00    +0.000 OA
ATOM     16  C   UNL     1       1.652   7.017  20.432  0.00  0.00    +0.000 A 
ATOM     17  C   UNL     1       1.712   8.143  19.630  0.00  0.00    +0.000 A 
ATOM     18  C   UNL     1       0.998   9.162  20.311  0.00  0.00    +0.000 A 
ATOM     19  C   UNL     1       0.619  10.481  20.051  0.00  0.00    +0.000 A 
ATOM     20  C   UNL     1      -0.151  11.137  21.024  0.00  0.00    +0.000 A 
ATOM     21  C   UNL     1      -0.572  12.460  20.828  0.00  0.00    +0.000 A 
BRANCH   9  23
ATOM     22  C   UNL     1      -2.064  15.216  22.595  0.00  0.00    +0.000 C 
ATOM     23  O   UNL     1      -1.666  14.407  21.493  0.00  0.00    +0.000 OA
ENDBRANCH   9  23
ENDBRANCH   1  16
BRANCH   6  24
ATOM     24  C   UNL     1       5.379   4.892  15.831  0.00  0.00    +0.000 A 
ATOM     25  C   UNL     1       6.722   5.242  16.042  0.00  0.00    +0.000 A 
ATOM     26  C   UNL     1       7.711   5.020  15.081  0.00  0.00    +0.000 A 
ATOM     27  C   UNL     1       7.378   4.436  13.865  0.00  0.00    +0.000 A 
ATOM     28  C   UNL     1       6.053   4.068  13.609  0.00  0.00    +0.000 A 
ATOM     29  C   UNL     1       5.075   4.295  14.598  0.00  0.00    +0.000 A 
BRANCH  28  30
ATOM     30  C   UNL     1       5.658   3.445  12.296  0.00  0.00    +0.000 C 
ATOM     31  F   UNL     1       4.355   3.663  11.959  0.00  0.00    +0.000 F 
ATOM     32  F   UNL     1       6.395   3.915  11.252  0.00  0.00    +0.000 F 
ATOM     33  F   UNL     1       5.820   2.092  12.290  0.00  0.00    +0.000 F 
ENDBRANCH  28  30
ENDBRANCH   6  24
TORSDOF 4
ENDMDL
MODEL 2
REMARK VINA RESULT:      -8.3      6.406     11.213
REMARK  Name = 
REMARK  5 active torsions:
REMARK  status: ('A' for Active; 'I' for Inactive)
REMARK    1  A    between atoms: C_1  and  O_2
REMARK    2  A    between atoms: O_2  and  C_3
REMARK    3  A    between atoms: C_10  and  C_11
REMARK    4  A    between atoms: N_16  and  C_17
REMARK    5  A    between atoms: C_21  and  C_22
REMARK                            x       y       z     vdW  Elec       q    Type
REMARK                         _______ _______ _______ _____ _____    ______ ____
ROOT
ATOM      1  C   UNL     1       1.268  10.744  18.659  0.00  0.00    +0.000 C 
ATOM      2  O   UNL     1       2.097  11.621  18.394  0.00  0.00    +0.000 OA
ATOM      3  N   UNL     1      -0.064  11.070  18.902  0.00  0.00    +0.000 N 
ATOM      4  C   UNL     1      -0.547  12.425  18.622  0.00  0.00    +0.000 C 
ATOM      5  C   UNL     1      -1.740  12.397  17.641  0.00  0.00    +0.000 C 
ATOM      6  N   UNL     1      -2.772  11.462  18.132  0.00  0.00    +0.000 N 
ATOM      7  C   UNL     1      -2.286  10.095  18.417  0.00  0.00    +0.000 C 
ATOM      8  C   UNL     1      -1.117  10.175  19.414  0.00  0.00    +0.000 C 
ENDROOT
BRANCH   1  16
ATOM      9  C   UNL     1       3.700   2.836  19.908  0.00  0.00    +0.000 A 
ATOM     10  C   UNL     1       2.975   3.046  21.077  0.00  0.00    +0.000 A 
ATOM     11  C   UNL     1       2.329   4.270  21.286  0.00  0.00    +0.000 A 
ATOM     12  C   UNL     1       2.383   5.298  20.357  0.00  0.00    +0.000 A 
ATOM     13  N   UNL     1       1.715   6.424  20.627  0.00  0.00    +0.000 NA
ATOM     14  C   UNL     1       1.833   7.375  19.689  0.00  0.00    +0.000 A 
ATOM     15  O   UNL     1       1.244   8.590  19.801  0.00  0.00    +0.000 OA
ATOM     16  C   UNL     1       1.665   9.355  18.749  0.00  0.00    +0.000 A 
ATOM     17  C   UNL     1       2.414   8.576  17.885  0.00  0.00    +0.000 A 
ATOM     18  C   UNL     1       2.563   7.311  18.509  0.00  0.00    +0.000 A 
ATOM     19  C   UNL     1       3.237   6.119  18.233  0.00  0.00    +0.000 A 
ATOM     20  C   UNL     1       3.146   5.089  19.182  0.00  0.00    +0.000 A 
ATOM     21  C   UNL     1       3.800   3.866  18.976  0.00  0.00    +0.000 A 
BRANCH   9  23
ATOM     22  C   UNL     1       3.896   0.993  18.445  0.00  0.00    +0.000 C 
ATOM     23  O   UNL     1       4.376   1.693  19.588  0.00  0.00    +0.000 OA
ENDBRANCH   9  23
ENDBRANCH   1  16
BRANCH   6  24
ATOM     24  C   UNL     1      -4.109  11.792  18.206  0.00  0.00    +0.000 A 
ATOM     25  C   UNL     1      -4.900  11.907  17.052  0.00  0.00    +0.000 A 
ATOM     26  C   UNL     1      -6.258  12.230  17.107  0.00  0.00    +0.000 A 
ATOM     27  C   UNL     1      -6.869  12.450  18.335  0.00  0.00    +0.000 A 
ATOM     28  C   UNL     1      -6.123  12.345  19.513  0.00  0.00    +0.000 A 
ATOM     29  C   UNL     1      -4.756  12.012  19.431  0.00  0.00    +0.000 A 
BRANCH  28  30
ATOM     30  C   UNL     1      -6.753  12.592  20.858  0.00  0.00    +0.000 C 
ATOM     31  F   UNL     1      -5.910  12.366  21.906  0.00  0.00    +0.000 F 
ATOM     32  F   UNL     1      -7.190  13.874  21.004  0.00  0.00    +0.000 F 
ATOM     33  F   UNL     1      -7.839  11.800  21.080  0.00  0.00    +0.000 F 
ENDBRANCH  28  30
ENDBRANCH   6  24
TORSDOF 4
ENDMDL
MODEL 3
REMARK VINA RESULT:      -8.3      1.177      1.375
REMARK  Name = 
REMARK  5 active torsions:
REMARK  status: ('A' for Active; 'I' for Inactive)
REMARK    1  A    between atoms: C_1  and  O_2
REMARK    2  A    between atoms: O_2  and  C_3
REMARK    3  A    between atoms: C_10  and  C_11
REMARK    4  A    between atoms: N_16  and  C_17
REMARK    5  A    between atoms: C_21  and  C_22
REMARK                            x       y       z     vdW  Elec       q    Type
REMARK                         _______ _______ _______ _____ _____    ______ ____
ROOT
ATOM      1  C   UNL     1       3.205   5.326  19.616  0.00  0.00    +0.000 C 
ATOM      2  O   UNL     1       2.967   4.353  20.339  0.00  0.00    +0.000 OA
ATOM      3  N   UNL     1       4.153   5.246  18.598  0.00  0.00    +0.000 N 
ATOM      4  C   UNL     1       4.715   3.945  18.225  0.00  0.00    +0.000 C 
ATOM      5  C   UNL     1       4.495   3.657  16.724  0.00  0.00    +0.000 C 
ATOM      6  N   UNL     1       4.981   4.794  15.917  0.00  0.00    +0.000 N 
ATOM      7  C   UNL     1       4.417   6.108  16.295  0.00  0.00    +0.000 C 
ATOM      8  C   UNL     1       4.682   6.358  17.789  0.00  0.00    +0.000 C 
ENDROOT
BRANCH   1  16
ATOM      9  C   UNL     1      -1.235  12.230  21.240  0.00  0.00    +0.000 A 
ATOM     10  C   UNL     1      -1.260  11.634  22.497  0.00  0.00    +0.000 A 
ATOM     11  C   UNL     1      -0.582  10.427  22.710  0.00  0.00    +0.000 A 
ATOM     12  C   UNL     1       0.127   9.795  21.700  0.00  0.00    +0.000 A 
ATOM     13  N   UNL     1       0.766   8.659  21.999  0.00  0.00    +0.000 NA
ATOM     14  C   UNL     1       1.411   8.100  20.965  0.00  0.00    +0.000 A 
ATOM     15  O   UNL     1       2.096   6.936  21.073  0.00  0.00    +0.000 OA
ATOM     16  C   UNL     1       2.521   6.585  19.822  0.00  0.00    +0.000 A 
ATOM     17  C   UNL     1       2.227   7.605  18.934  0.00  0.00    +0.000 A 
ATOM     18  C   UNL     1       1.472   8.564  19.657  0.00  0.00    +0.000 A 
ATOM     19  C   UNL     1       0.816   9.763  19.368  0.00  0.00    +0.000 A 
ATOM     20  C   UNL     1       0.125  10.391  20.416  0.00  0.00    +0.000 A 
ATOM     21  C   UNL     1      -0.561  11.595  20.199  0.00  0.00    +0.000 A 
BRANCH   9  23
ATOM     22  C   UNL     1      -3.261  13.307  20.687  0.00  0.00    +0.000 C 
ATOM     23  O   UNL     1      -1.857  13.398  20.904  0.00  0.00    +0.000 OA
ENDBRANCH   9  23
ENDBRANCH   1  16
BRANCH   6  24
ATOM     24  C   UNL     1       5.801   4.639  14.820  0.00  0.00    +0.000 A 
ATOM     25  C   UNL     1       6.975   5.395  14.671  0.00  0.00    +0.000 A 
ATOM     26  C   UNL     1       7.824   5.245  13.571  0.00  0.00    +0.000 A 
ATOM     27  C   UNL     1       7.517   4.323  12.579  0.00  0.00    +0.000 A 
ATOM     28  C   UNL     1       6.360   3.546  12.684  0.00  0.00    +0.000 A 
ATOM     29  C   UNL     1       5.523   3.710  13.806  0.00  0.00    +0.000 A 
BRANCH  28  30
ATOM     30  C   UNL     1       5.993   2.547  11.618  0.00  0.00    +0.000 C 
ATOM     31  F   UNL     1       5.654   1.322  12.110  0.00  0.00    +0.000 F 
ATOM     32  F   UNL     1       4.931   2.951  10.867  0.00  0.00    +0.000 F 
ATOM     33  F   UNL     1       7.009   2.324  10.738  0.00  0.00    +0.000 F 
ENDBRANCH  28  30
ENDBRANCH   6  24
TORSDOF 4
ENDMDL
MODEL 4
REMARK VINA RESULT:      -8.3      5.787     11.009
REMARK  Name = 
REMARK  5 active torsions:
REMARK  status: ('A' for Active; 'I' for Inactive)
REMARK    1  A    between atoms: C_1  and  O_2
REMARK    2  A    between atoms: O_2  and  C_3
REMARK    3  A    between atoms: C_10  and  C_11
REMARK    4  A    between atoms: N_16  and  C_17
REMARK    5  A    between atoms: C_21  and  C_22
REMARK                            x       y       z     vdW  Elec       q    Type
REMARK                         _______ _______ _______ _____ _____    ______ ____
ROOT
ATOM      1  C   UNL     1       1.811  10.759  18.383  0.00  0.00    +0.000 C 
ATOM      2  O   UNL     1       2.588  11.509  17.784  0.00  0.00    +0.000 OA
ATOM      3  N   UNL     1       0.655  11.256  18.982  0.00  0.00    +0.000 N 
ATOM      4  C   UNL     1       0.230  12.632  18.713  0.00  0.00    +0.000 C 
ATOM      5  C   UNL     1      -1.208  12.668  18.150  0.00  0.00    +0.000 C 
ATOM      6  N   UNL     1      -2.112  11.902  19.031  0.00  0.00    +0.000 N 
ATOM      7  C   UNL     1      -1.682  10.514  19.305  0.00  0.00    +0.000 C 
ATOM      8  C   UNL     1      -0.258  10.534  19.885  0.00  0.00    +0.000 C 
ENDROOT
BRANCH   1  16
ATOM      9  C   UNL     1       3.589   2.705  19.794  0.00  0.00    +0.000 A 
ATOM     10  C   UNL     1       2.884   2.997  20.957  0.00  0.00    +0.000 A 
ATOM     11  C   UNL     1       2.339   4.274  21.141  0.00  0.00    +0.000 A 
ATOM     12  C   UNL     1       2.477   5.275  20.191  0.00  0.00    +0.000 A 
ATOM     13  N   UNL     1       1.904   6.457  20.438  0.00  0.00    +0.000 NA
ATOM     14  C   UNL     1       2.099   7.376  19.481  0.00  0.00    +0.000 A 
ATOM     15  O   UNL     1       1.611   8.637  19.568  0.00  0.00    +0.000 OA
ATOM     16  C   UNL     1       2.093   9.343  18.502  0.00  0.00    +0.000 A 
ATOM     17  C   UNL     1       2.776   8.489  17.654  0.00  0.00    +0.000 A 
ATOM     18  C   UNL     1       2.822   7.229  18.304  0.00  0.00    +0.000 A 
ATOM     19  C   UNL     1       3.396   5.980  18.053  0.00  0.00    +0.000 A 
ATOM     20  C   UNL     1       3.221   4.981  19.023  0.00  0.00    +0.000 A 
ATOM     21  C   UNL     1       3.774   3.705  18.842  0.00  0.00    +0.000 A 
BRANCH   9  23
ATOM     22  C   UNL     1       3.934   1.014  18.183  0.00  0.00    +0.000 C 
ATOM     23  O   UNL     1       4.170   1.505  19.499  0.00  0.00    +0.000 OA
ENDBRANCH   9  23
ENDBRANCH   1  16
BRANCH   6  24
ATOM     24  C   UNL     1      -3.324  12.392  19.471  0.00  0.00    +0.000 A 
ATOM     25  C   UNL     1      -3.396  13.396  20.449  0.00  0.00    +0.000 A 
ATOM     26  C   UNL     1      -4.614  13.912  20.900  0.00  0.00    +0.000 A 
ATOM     27  C   UNL     1      -5.807  13.431  20.377  0.00  0.00    +0.000 A 
ATOM     28  C   UNL     1      -5.786  12.432  19.398  0.00  0.00    +0.000 A 
ATOM     29  C   UNL     1      -4.545  11.933  18.955  0.00  0.00    +0.000 A 
BRANCH  28  30
ATOM     30  C   UNL     1      -7.063  11.879  18.822  0.00  0.00    +0.000 C 
ATOM     31  F   UNL     1      -7.776  12.791  18.100  0.00  0.00    +0.000 F 
ATOM     32  F   UNL     1      -6.846  10.829  17.982  0.00  0.00    +0.000 F 
ATOM     33  F   UNL     1      -7.915  11.421  19.782  0.00  0.00    +0.000 F 
ENDBRANCH  28  30
ENDBRANCH   6  24
TORSDOF 4
ENDMDL
MODEL 5
REMARK VINA RESULT:      -8.3      6.391     11.646
REMARK  Name = 
REMARK  5 active torsions:
REMARK  status: ('A' for Active; 'I' for Inactive)
REMARK    1  A    between atoms: C_1  and  O_2
REMARK    2  A    between atoms: O_2  and  C_3
REMARK    3  A    between atoms: C_10  and  C_11
REMARK    4  A    between atoms: N_16  and  C_17
REMARK    5  A    between atoms: C_21  and  C_22
REMARK                            x       y       z     vdW  Elec       q    Type
REMARK                         _______ _______ _______ _____ _____    ______ ____
ROOT
ATOM      1  C   UNL     1       1.533  11.041  18.772  0.00  0.00    +0.000 C 
ATOM      2  O   UNL     1       1.852  11.711  17.785  0.00  0.00    +0.000 OA
ATOM      3  N   UNL     1       0.943  11.640  19.883  0.00  0.00    +0.000 N 
ATOM      4  C   UNL     1       0.484  13.029  19.804  0.00  0.00    +0.000 C 
ATOM      5  C   UNL     1      -1.015  13.139  20.157  0.00  0.00    +0.000 C 
ATOM      6  N   UNL     1      -1.278  12.473  21.448  0.00  0.00    +0.000 N 
ATOM      7  C   UNL     1      -0.814  11.072  21.529  0.00  0.00    +0.000 C 
ATOM      8  C   UNL     1       0.686  11.019  21.194  0.00  0.00    +0.000 C 
ENDROOT
BRANCH   1  16
ATOM      9  C   UNL     1       3.211   2.898  19.715  0.00  0.00    +0.000 A 
ATOM     10  C   UNL     1       2.613   3.158  20.944  0.00  0.00    +0.000 A 
ATOM     11  C   UNL     1       2.120   4.439  21.223  0.00  0.00    +0.000 A 
ATOM     12  C   UNL     1       2.204   5.474  20.304  0.00  0.00    +0.000 A 
ATOM     13  N   UNL     1       1.685   6.658  20.644  0.00  0.00    +0.000 NA
ATOM     14  C   UNL     1       1.823   7.610  19.710  0.00  0.00    +0.000 A 
ATOM     15  O   UNL     1       1.378   8.878  19.887  0.00  0.00    +0.000 OA
ATOM     16  C   UNL     1       1.787   9.616  18.812  0.00  0.00    +0.000 A 
ATOM     17  C   UNL     1       2.374   8.781  17.877  0.00  0.00    +0.000 A 
ATOM     18  C   UNL     1       2.440   7.495  18.471  0.00  0.00    +0.000 A 
ATOM     19  C   UNL     1       2.959   6.245  18.124  0.00  0.00    +0.000 A 
ATOM     20  C   UNL     1       2.839   5.211  19.066  0.00  0.00    +0.000 A 
ATOM     21  C   UNL     1       3.341   3.931  18.790  0.00  0.00    +0.000 A 
BRANCH   9  23
ATOM     22  C   UNL     1       3.675   1.425  17.929  0.00  0.00    +0.000 C 
ATOM     23  O   UNL     1       3.733   1.698  19.325  0.00  0.00    +0.000 OA
ENDBRANCH   9  23
ENDBRANCH   1  16
BRANCH   6  24
ATOM     24  C   UNL     1      -2.006  13.062  22.461  0.00  0.00    +0.000 A 
ATOM     25  C   UNL     1      -1.417  13.977  23.348  0.00  0.00    +0.000 A 
ATOM     26  C   UNL     1      -2.140  14.591  24.374  0.00  0.00    +0.000 A 
ATOM     27  C   UNL     1      -3.488  14.302  24.542  0.00  0.00    +0.000 A 
ATOM     28  C   UNL     1      -4.119  13.398  23.681  0.00  0.00    +0.000 A 
ATOM     29  C   UNL     1      -3.370  12.797  22.650  0.00  0.00    +0.000 A 
BRANCH  28  30
ATOM     30  C   UNL     1      -5.576  13.053  23.846  0.00  0.00    +0.000 C 
ATOM     31  F   UNL     1      -6.358  14.124  24.167  0.00  0.00    +0.000 F 
ATOM     32  F   UNL     1      -6.119  12.524  22.715  0.00  0.00    +0.000 F 
ATOM     33  F   UNL     1      -5.788  12.133  24.829  0.00  0.00    +0.000 F 
ENDBRANCH  28  30
ENDBRANCH   6  24
TORSDOF 4
ENDMDL
MODEL 6
REMARK VINA RESULT:      -8.1      1.052      1.731
REMARK  Name = 
REMARK  5 active torsions:
REMARK  status: ('A' for Active; 'I' for Inactive)
REMARK    1  A    between atoms: C_1  and  O_2
REMARK    2  A    between atoms: O_2  and  C_3
REMARK    3  A    between atoms: C_10  and  C_11
REMARK    4  A    between atoms: N_16  and  C_17
REMARK    5  A    between atoms: C_21  and  C_22
REMARK                            x       y       z     vdW  Elec       q    Type
REMARK                         _______ _______ _______ _____ _____    ______ ____
ROOT
ATOM      1  C   UNL     1       2.118   5.789  20.206  0.00  0.00    +0.000 C 
ATOM      2  O   UNL     1       1.631   4.829  20.811  0.00  0.00    +0.000 OA
ATOM      3  N   UNL     1       3.204   5.618  19.350  0.00  0.00    +0.000 N 
ATOM      4  C   UNL     1       3.637   4.268  18.981  0.00  0.00    +0.000 C 
ATOM      5  C   UNL     1       3.635   4.085  17.447  0.00  0.00    +0.000 C 
ATOM      6  N   UNL     1       4.401   5.175  16.811  0.00  0.00    +0.000 N 
ATOM      7  C   UNL     1       3.968   6.538  17.184  0.00  0.00    +0.000 C 
ATOM      8  C   UNL     1       4.009   6.677  18.715  0.00  0.00    +0.000 C 
ENDROOT
BRANCH   1  16
ATOM      9  C   UNL     1      -0.321  13.760  20.927  0.00  0.00    +0.000 A 
ATOM     10  C   UNL     1       0.226  13.797  19.649  0.00  0.00    +0.000 A 
ATOM     11  C   UNL     1       0.742  12.628  19.077  0.00  0.00    +0.000 A 
ATOM     12  C   UNL     1       0.727  11.414  19.747  0.00  0.00    +0.000 A 
ATOM     13  N   UNL     1       1.217  10.343  19.115  0.00  0.00    +0.000 NA
ATOM     14  C   UNL     1       1.183   9.213  19.836  0.00  0.00    +0.000 A 
ATOM     15  O   UNL     1       1.657   8.032  19.369  0.00  0.00    +0.000 OA
ATOM     16  C   UNL     1       1.589   7.124  20.388  0.00  0.00    +0.000 A 
ATOM     17  C   UNL     1       0.936   7.692  21.468  0.00  0.00    +0.000 A 
ATOM     18  C   UNL     1       0.713   9.052  21.134  0.00  0.00    +0.000 A 
ATOM     19  C   UNL     1       0.184  10.178  21.770  0.00  0.00    +0.000 A 
ATOM     20  C   UNL     1       0.194  11.388  21.058  0.00  0.00    +0.000 A 
ATOM     21  C   UNL     1      -0.315  12.560  21.635  0.00  0.00    +0.000 A 
BRANCH   9  23
ATOM     22  C   UNL     1      -2.048  14.569  22.319  0.00  0.00    +0.000 C 
ATOM     23  O   UNL     1      -0.850  14.828  21.595  0.00  0.00    +0.000 OA
ENDBRANCH   9  23
ENDBRANCH   1  16
BRANCH   6  24
ATOM     24  C   UNL     1       5.365   4.952  15.850  0.00  0.00    +0.000 A 
ATOM     25  C   UNL     1       6.704   5.320  16.058  0.00  0.00    +0.000 A 
ATOM     26  C   UNL     1       7.697   5.094  15.102  0.00  0.00    +0.000 A 
ATOM     27  C   UNL     1       7.372   4.486  13.896  0.00  0.00    +0.000 A 
ATOM     28  C   UNL     1       6.053   4.099  13.644  0.00  0.00    +0.000 A 
ATOM     29  C   UNL     1       5.071   4.332  14.627  0.00  0.00    +0.000 A 
BRANCH  28  30
ATOM     30  C   UNL     1       5.667   3.450  12.340  0.00  0.00    +0.000 C 
ATOM     31  F   UNL     1       5.845   2.098  12.330  0.00  0.00    +0.000 F 
ATOM     32  F   UNL     1       4.359   3.654  12.022  0.00  0.00    +0.000 F 
ATOM     33  F   UNL     1       6.387   3.926  11.286  0.00  0.00    +0.000 F 
ENDBRANCH  28  30
ENDBRANCH   6  24
TORSDOF 4
ENDMDL
MODEL 7
REMARK VINA RESULT:      -8.0      1.254      1.763
REMARK  Name = 
REMARK  5 active torsions:
REMARK  status: ('A' for Active; 'I' for Inactive)
REMARK    1  A    between atoms: C_1  and  O_2
REMARK    2  A    between atoms: O_2  and  C_3
REMARK    3  A    between atoms: C_10  and  C_11
REMARK    4  A    between atoms: N_16  and  C_17
REMARK    5  A    between atoms: C_21  and  C_22
REMARK                            x       y       z     vdW  Elec       q    Type
REMARK                         _______ _______ _______ _____ _____    ______ ____
ROOT
ATOM      1  C   UNL     1       2.938   5.188  19.923  0.00  0.00    +0.000 C 
ATOM      2  O   UNL     1       2.688   4.186  20.600  0.00  0.00    +0.000 OA
ATOM      3  N   UNL     1       3.922   5.157  18.937  0.00  0.00    +0.000 N 
ATOM      4  C   UNL     1       4.512   3.877  18.536  0.00  0.00    +0.000 C 
ATOM      5  C   UNL     1       4.348   3.643  17.018  0.00  0.00    +0.000 C 
ATOM      6  N   UNL     1       4.848   4.815  16.272  0.00  0.00    +0.000 N 
ATOM      7  C   UNL     1       4.255   6.107  16.678  0.00  0.00    +0.000 C 
ATOM      8  C   UNL     1       4.465   6.305  18.189  0.00  0.00    +0.000 C 
ENDROOT
BRANCH   1  16
ATOM      9  C   UNL     1      -0.558  12.722  20.936  0.00  0.00    +0.000 A 
ATOM     10  C   UNL     1      -0.005  12.889  19.671  0.00  0.00    +0.000 A 
ATOM     11  C   UNL     1       0.671  11.825  19.060  0.00  0.00    +0.000 A 
ATOM     12  C   UNL     1       0.810  10.591  19.677  0.00  0.00    +0.000 A 
ATOM     13  N   UNL     1       1.448   9.624  19.010  0.00  0.00    +0.000 NA
ATOM     14  C   UNL     1       1.556   8.469  19.682  0.00  0.00    +0.000 A 
ATOM     15  O   UNL     1       2.190   7.384  19.174  0.00  0.00    +0.000 OA
ATOM     16  C   UNL     1       2.232   6.431  20.152  0.00  0.00    +0.000 A 
ATOM     17  C   UNL     1       1.495   6.858  21.243  0.00  0.00    +0.000 A 
ATOM     18  C   UNL     1       1.096   8.190  20.962  0.00  0.00    +0.000 A 
ATOM     19  C   UNL     1       0.413   9.206  21.636  0.00  0.00    +0.000 A 
ATOM     20  C   UNL     1       0.269  10.436  20.976  0.00  0.00    +0.000 A 
ATOM     21  C   UNL     1      -0.400  11.503  21.593  0.00  0.00    +0.000 A 
BRANCH   9  23
ATOM     22  C   UNL     1      -1.008  13.684  23.045  0.00  0.00    +0.000 C 
ATOM     23  O   UNL     1      -1.233  13.678  21.639  0.00  0.00    +0.000 OA
ENDBRANCH   9  23
ENDBRANCH   1  16
BRANCH   6  24
ATOM     24  C   UNL     1       5.708   4.711  15.199  0.00  0.00    +0.000 A 
ATOM     25  C   UNL     1       6.928   5.404  15.169  0.00  0.00    +0.000 A 
ATOM     26  C   UNL     1       7.817   5.303  14.096  0.00  0.00    +0.000 A 
ATOM     27  C   UNL     1       7.504   4.496  13.010  0.00  0.00    +0.000 A 
ATOM     28  C   UNL     1       6.301   3.784  12.995  0.00  0.00    +0.000 A 
ATOM     29  C   UNL     1       5.424   3.897  14.092  0.00  0.00    +0.000 A 
BRANCH  28  30
ATOM     30  C   UNL     1       5.927   2.911  11.826  0.00  0.00    +0.000 C 
ATOM     31  F   UNL     1       4.898   3.407  11.082  0.00  0.00    +0.000 F 
ATOM     32  F   UNL     1       6.960   2.731  10.956  0.00  0.00    +0.000 F 
ATOM     33  F   UNL     1       5.539   1.662  12.208  0.00  0.00    +0.000 F 
ENDBRANCH  28  30
ENDBRANCH   6  24
TORSDOF 4
ENDMDL
MODEL 8
REMARK VINA RESULT:      -8.0      5.375     10.944
REMARK  Name = 
REMARK  5 active torsions:
REMARK  status: ('A' for Active; 'I' for Inactive)
REMARK    1  A    between atoms: C_1  and  O_2
REMARK    2  A    between atoms: O_2  and  C_3
REMARK    3  A    between atoms: C_10  and  C_11
REMARK    4  A    between atoms: N_16  and  C_17
REMARK    5  A    between atoms: C_21  and  C_22
REMARK                            x       y       z     vdW  Elec       q    Type
REMARK                         _______ _______ _______ _____ _____    ______ ____
ROOT
ATOM      1  C   UNL     1       0.950   8.924  20.601  0.00  0.00    +0.000 C 
ATOM      2  O   UNL     1       0.785   8.410  21.712  0.00  0.00    +0.000 OA
ATOM      3  N   UNL     1       0.353  10.141  20.280  0.00  0.00    +0.000 N 
ATOM      4  C   UNL     1      -0.286  10.938  21.330  0.00  0.00    +0.000 C 
ATOM      5  C   UNL     1       0.323  12.356  21.398  0.00  0.00    +0.000 C 
ATOM      6  N   UNL     1       0.307  12.974  20.057  0.00  0.00    +0.000 N 
ATOM      7  C   UNL     1       0.950  12.170  18.996  0.00  0.00    +0.000 C 
ATOM      8  C   UNL     1       0.295  10.779  18.953  0.00  0.00    +0.000 C 
ENDROOT
BRANCH   1  16
ATOM      9  C   UNL     1       5.883   4.707  15.318  0.00  0.00    +0.000 A 
ATOM     10  C   UNL     1       5.549   3.681  16.197  0.00  0.00    +0.000 A 
ATOM     11  C   UNL     1       4.674   3.932  17.261  0.00  0.00    +0.000 A 
ATOM     12  C   UNL     1       4.116   5.183  17.475  0.00  0.00    +0.000 A 
ATOM     13  N   UNL     1       3.271   5.326  18.500  0.00  0.00    +0.000 NA
ATOM     14  C   UNL     1       2.790   6.570  18.650  0.00  0.00    +0.000 A 
ATOM     15  O   UNL     1       1.938   6.909  19.648  0.00  0.00    +0.000 OA
ATOM     16  C   UNL     1       1.748   8.261  19.590  0.00  0.00    +0.000 A 
ATOM     17  C   UNL     1       2.370   8.766  18.462  0.00  0.00    +0.000 A 
ATOM     18  C   UNL     1       3.082   7.687  17.878  0.00  0.00    +0.000 A 
ATOM     19  C   UNL     1       3.951   7.513  16.798  0.00  0.00    +0.000 A 
ATOM     20  C   UNL     1       4.482   6.230  16.594  0.00  0.00    +0.000 A 
ATOM     21  C   UNL     1       5.365   5.983  15.534  0.00  0.00    +0.000 A 
BRANCH   9  23
ATOM     22  C   UNL     1       6.291   3.717  13.215  0.00  0.00    +0.000 C 
ATOM     23  O   UNL     1       6.725   4.593  14.250  0.00  0.00    +0.000 OA
ENDBRANCH   9  23
ENDBRANCH   1  16
BRANCH   6  24
ATOM     24  C   UNL     1      -0.158  14.251  19.825  0.00  0.00    +0.000 A 
ATOM     25  C   UNL     1      -1.390  14.686  20.337  0.00  0.00    +0.000 A 
ATOM     26  C   UNL     1      -1.873  15.979  20.121  0.00  0.00    +0.000 A 
ATOM     27  C   UNL     1      -1.126  16.883  19.377  0.00  0.00    +0.000 A 
ATOM     28  C   UNL     1       0.109  16.497  18.848  0.00  0.00    +0.000 A 
ATOM     29  C   UNL     1       0.578  15.190  19.085  0.00  0.00    +0.000 A 
BRANCH  28  30
ATOM     30  C   UNL     1       0.936  17.450  18.025  0.00  0.00    +0.000 C 
ATOM     31  F   UNL     1       2.116  16.918  17.596  0.00  0.00    +0.000 F 
ATOM     32  F   UNL     1       0.288  17.869  16.903  0.00  0.00    +0.000 F 
ATOM     33  F   UNL     1       1.267  18.581  18.710  0.00  0.00    +0.000 F 
ENDBRANCH  28  30
ENDBRANCH   6  24
TORSDOF 4
ENDMDL
MODEL 9
REMARK VINA RESULT:      -8.0      6.300     12.129
REMARK  Name = 
REMARK  5 active torsions:
REMARK  status: ('A' for Active; 'I' for Inactive)
REMARK    1  A    between atoms: C_1  and  O_2
REMARK    2  A    between atoms: O_2  and  C_3
REMARK    3  A    between atoms: C_10  and  C_11
REMARK    4  A    between atoms: N_16  and  C_17
REMARK    5  A    between atoms: C_21  and  C_22
REMARK                            x       y       z     vdW  Elec       q    Type
REMARK                         _______ _______ _______ _____ _____    ______ ____
ROOT
ATOM      1  C   UNL     1      -0.551  11.109  18.788  0.00  0.00    +0.000 C 
ATOM      2  O   UNL     1      -1.254  11.210  17.778  0.00  0.00    +0.000 OA
ATOM      3  N   UNL     1      -0.620  12.058  19.806  0.00  0.00    +0.000 N 
ATOM      4  C   UNL     1      -1.689  13.060  19.797  0.00  0.00    +0.000 C 
ATOM      5  C   UNL     1      -2.506  13.010  21.106  0.00  0.00    +0.000 C 
ATOM      6  N   UNL     1      -1.598  13.085  22.268  0.00  0.00    +0.000 N 
ATOM      7  C   UNL     1      -0.518  12.076  22.277  0.00  0.00    +0.000 C 
ATOM      8  C   UNL     1       0.280  12.181  20.967  0.00  0.00    +0.000 C 
ENDROOT
BRANCH   1  16
ATOM      9  C   UNL     1       4.708   4.601  18.898  0.00  0.00    +0.000 A 
ATOM     10  C   UNL     1       4.990   5.109  17.634  0.00  0.00    +0.000 A 
ATOM     11  C   UNL     1       4.344   6.269  17.189  0.00  0.00    +0.000 A 
ATOM     12  C   UNL     1       3.420   6.943  17.973  0.00  0.00    +0.000 A 
ATOM     13  N   UNL     1       2.870   8.056  17.478  0.00  0.00    +0.000 NA
ATOM     14  C   UNL     1       1.974   8.637  18.290  0.00  0.00    +0.000 A 
ATOM     15  O   UNL     1       1.299   9.762  17.948  0.00  0.00    +0.000 OA
ATOM     16  C   UNL     1       0.384  10.012  18.931  0.00  0.00    +0.000 A 
ATOM     17  C   UNL     1       0.574   9.123  19.974  0.00  0.00    +0.000 A 
ATOM     18  C   UNL     1       1.567   8.206  19.546  0.00  0.00    +0.000 A 
ATOM     19  C   UNL     1       2.168   7.052  20.056  0.00  0.00    +0.000 A 
ATOM     20  C   UNL     1       3.116   6.405  19.247  0.00  0.00    +0.000 A 
ATOM     21  C   UNL     1       3.755   5.239  19.691  0.00  0.00    +0.000 A 
BRANCH   9  23
ATOM     22  C   UNL     1       4.344   2.473  19.853  0.00  0.00    +0.000 C 
ATOM     23  O   UNL     1       5.264   3.480  19.445  0.00  0.00    +0.000 OA
ENDBRANCH   9  23
ENDBRANCH   1  16
BRANCH   6  24
ATOM     24  C   UNL     1      -1.804  13.944  23.328  0.00  0.00    +0.000 A 
ATOM     25  C   UNL     1      -2.944  13.843  24.141  0.00  0.00    +0.000 A 
ATOM     26  C   UNL     1      -3.165  14.697  25.225  0.00  0.00    +0.000 A 
ATOM     27  C   UNL     1      -2.239  15.688  25.527  0.00  0.00    +0.000 A 
ATOM     28  C   UNL     1      -1.088  15.826  24.747  0.00  0.00    +0.000 A 
ATOM     29  C   UNL     1      -0.884  14.948  23.663  0.00  0.00    +0.000 A 
BRANCH  28  30
ATOM     30  C   UNL     1      -0.072  16.900  25.040  0.00  0.00    +0.000 C 
ATOM     31  F   UNL     1       1.028  16.845  24.237  0.00  0.00    +0.000 F 
ATOM     32  F   UNL     1      -0.580  18.154  24.888  0.00  0.00    +0.000 F 
ATOM     33  F   UNL     1       0.399  16.839  26.317  0.00  0.00    +0.000 F 
ENDBRANCH  28  30
ENDBRANCH   6  24
TORSDOF 4
ENDMDL
