MODEL 1
REMARK VINA RESULT:      -7.7      0.000      0.000
REMARK  Name = 
REMARK  7 active torsions:
REMARK  status: ('A' for Active; 'I' for Inactive)
REMARK    1  A    between atoms: C_1  and  C_2
REMARK    2  A    between atoms: C_8  and  C_9
REMARK    3  A    between atoms: C_9  and  N_10
REMARK    4  A    between atoms: N_10  and  C_11
REMARK    5  A    between atoms: C_11  and  C_12
REMARK    6  A    between atoms: C_12  and  N_13
REMARK    7  A    between atoms: C_14  and  C_16
REMARK                            x       y       z     vdW  Elec       q    Type
REMARK                         _______ _______ _______ _____ _____    ______ ____
ROOT
ATOM      1  N   UNL     1       1.009   3.736  19.140  0.00  0.00    +0.000 NA
ATOM      2  H   UNL     1       0.003   3.782  18.969  0.00  0.00    +0.000 HD
ENDROOT
BRANCH   1   3
ATOM      3  C   UNL     1       1.473   2.349  19.013  0.00  0.00    +0.000 C 
BRANCH   3  11
ATOM      4  C   UNL     1       6.261   7.113  17.168  0.00  0.00    +0.000 C 
ATOM      5  C   UNL     1       5.618   5.875  17.665  0.00  0.00    +0.000 A 
ATOM      6  C   UNL     1       6.055   5.038  18.720  0.00  0.00    +0.000 A 
ATOM      7  C   UNL     1       5.165   3.997  18.736  0.00  0.00    +0.000 A 
ATOM      8  N   UNL     1       4.248   4.275  17.771  0.00  0.00    +0.000 N 
ATOM      9  N   UNL     1       4.498   5.413  17.092  0.00  0.00    +0.000 NA
ATOM     10  C   UNL     1       3.109   3.458  17.453  0.00  0.00    +0.000 C 
ATOM     11  C   UNL     1       2.879   2.262  18.396  0.00  0.00    +0.000 C 
ATOM     12  C   UNL     1       3.899   2.070  19.540  0.00  0.00    +0.000 C 
ATOM     13  N   UNL     1       5.109   2.866  19.464  0.00  0.00    +0.000 N 
ATOM     14  H   UNL     1       5.726   2.777  20.269  0.00  0.00    +0.000 HD
ENDBRANCH   3  11
ENDBRANCH   1   3
BRANCH   1  15
ATOM     15  C   UNL     1       1.281   4.264  20.485  0.00  0.00    +0.000 C 
BRANCH  15  16
ATOM     16  C   UNL     1       2.158   5.527  20.455  0.00  0.00    +0.000 C 
BRANCH  16  17
ATOM     17  N   UNL     1       1.503   6.666  21.048  0.00  0.00    +0.000 N 
ATOM     18  C   UNL     1       1.511   7.887  20.409  0.00  0.00    +0.000 C 
ATOM     19  O   UNL     1       2.088   8.105  19.349  0.00  0.00    +0.000 OA
ATOM     20  H   UNL     1       0.888   6.498  21.830  0.00  0.00    +0.000 HD
BRANCH  18  21
ATOM     21  C   UNL     1       0.727   8.953  21.069  0.00  0.00    +0.000 A 
ATOM     22  C   UNL     1       0.208  10.039  20.340  0.00  0.00    +0.000 A 
ATOM     23  C   UNL     1      -0.506  11.032  20.992  0.00  0.00    +0.000 A 
ATOM     24  C   UNL     1      -0.720  10.937  22.364  0.00  0.00    +0.000 A 
ATOM     25  F   UNL     1      -1.413  11.897  22.989  0.00  0.00    +0.000 F 
ATOM     26  C   UNL     1      -0.233   9.859  23.099  0.00  0.00    +0.000 A 
ATOM     27  C   UNL     1       0.492   8.857  22.451  0.00  0.00    +0.000 A 
ENDBRANCH  18  21
ENDBRANCH  16  17
ENDBRANCH  15  16
ENDBRANCH   1  15
TORSDOF 6
ENDMDL
MODEL 2
REMARK VINA RESULT:      -7.5      1.235      1.926
REMARK  Name = 
REMARK  7 active torsions:
REMARK  status: ('A' for Active; 'I' for Inactive)
REMARK    1  A    between atoms: C_1  and  C_2
REMARK    2  A    between atoms: C_8  and  C_9
REMARK    3  A    between atoms: C_9  and  N_10
REMARK    4  A    between atoms: N_10  and  C_11
REMARK    5  A    between atoms: C_11  and  C_12
REMARK    6  A    between atoms: C_12  and  N_13
REMARK    7  A    between atoms: C_14  and  C_16
REMARK                            x       y       z     vdW  Elec       q    Type
REMARK                         _______ _______ _______ _____ _____    ______ ____
ROOT
ATOM      1  N   UNL     1       2.269   3.727  18.819  0.00  0.00    +0.000 NA
ATOM      2  H   UNL     1       3.096   3.264  19.199  0.00  0.00    +0.000 HD
ENDROOT
BRANCH   1   3
ATOM      3  C   UNL     1       2.625   4.459  17.598  0.00  0.00    +0.000 C 
BRANCH   3  11
ATOM      4  C   UNL     1       8.347   8.486  17.866  0.00  0.00    +0.000 C 
ATOM      5  C   UNL     1       7.439   7.317  17.905  0.00  0.00    +0.000 A 
ATOM      6  C   UNL     1       7.526   6.181  18.747  0.00  0.00    +0.000 A 
ATOM      7  C   UNL     1       6.504   5.363  18.344  0.00  0.00    +0.000 A 
ATOM      8  N   UNL     1       5.849   6.040  17.363  0.00  0.00    +0.000 N 
ATOM      9  N   UNL     1       6.397   7.235  17.064  0.00  0.00    +0.000 NA
ATOM     10  C   UNL     1       4.686   5.564  16.665  0.00  0.00    +0.000 C 
ATOM     11  C   UNL     1       4.095   4.247  17.202  0.00  0.00    +0.000 C 
ATOM     12  C   UNL     1       4.827   3.589  18.392  0.00  0.00    +0.000 C 
ATOM     13  N   UNL     1       6.135   4.125  18.721  0.00  0.00    +0.000 N 
ATOM     14  H   UNL     1       6.559   3.725  19.556  0.00  0.00    +0.000 HD
ENDBRANCH   3  11
ENDBRANCH   1   3
BRANCH   1  15
ATOM     15  C   UNL     1       1.727   4.633  19.842  0.00  0.00    +0.000 C 
BRANCH  15  16
ATOM     16  C   UNL     1       2.525   5.944  19.949  0.00  0.00    +0.000 C 
BRANCH  16  17
ATOM     17  N   UNL     1       1.837   6.944  20.727  0.00  0.00    +0.000 N 
ATOM     18  C   UNL     1       1.494   8.153  20.162  0.00  0.00    +0.000 C 
ATOM     19  O   UNL     1       1.770   8.479  19.012  0.00  0.00    +0.000 OA
ATOM     20  H   UNL     1       1.453   6.663  21.616  0.00  0.00    +0.000 HD
BRANCH  18  21
ATOM     21  C   UNL     1       0.710   9.058  21.030  0.00  0.00    +0.000 A 
ATOM     22  C   UNL     1       0.189   8.623  22.262  0.00  0.00    +0.000 A 
ATOM     23  C   UNL     1      -0.559   9.491  23.042  0.00  0.00    +0.000 A 
ATOM     24  C   UNL     1      -0.773  10.796  22.607  0.00  0.00    +0.000 A 
ATOM     25  F   UNL     1      -1.494  11.631  23.365  0.00  0.00    +0.000 F 
ATOM     26  C   UNL     1      -0.248  11.250  21.400  0.00  0.00    +0.000 A 
ATOM     27  C   UNL     1       0.501  10.381  20.605  0.00  0.00    +0.000 A 
ENDBRANCH  18  21
ENDBRANCH  16  17
ENDBRANCH  15  16
ENDBRANCH   1  15
TORSDOF 6
ENDMDL
MODEL 3
REMARK VINA RESULT:      -7.5      1.896      2.464
REMARK  Name = 
REMARK  7 active torsions:
REMARK  status: ('A' for Active; 'I' for Inactive)
REMARK    1  A    between atoms: C_1  and  C_2
REMARK    2  A    between atoms: C_8  and  C_9
REMARK    3  A    between atoms: C_9  and  N_10
REMARK    4  A    between atoms: N_10  and  C_11
REMARK    5  A    between atoms: C_11  and  C_12
REMARK    6  A    between atoms: C_12  and  N_13
REMARK    7  A    between atoms: C_14  and  C_16
REMARK                            x       y       z     vdW  Elec       q    Type
REMARK                         _______ _______ _______ _____ _____    ______ ____
ROOT
ATOM      1  N   UNL     1       1.618   2.506  18.240  0.00  0.00    +0.000 NA
ATOM      2  H   UNL     1       2.355   1.906  18.615  0.00  0.00    +0.000 HD
ENDROOT
BRANCH   1   3
ATOM      3  C   UNL     1       2.215   3.629  17.508  0.00  0.00    +0.000 C 
BRANCH   3  11
ATOM      4  C   UNL     1       7.779   7.879  17.612  0.00  0.00    +0.000 C 
ATOM      5  C   UNL     1       6.905   6.692  17.752  0.00  0.00    +0.000 A 
ATOM      6  C   UNL     1       6.961   5.689  18.751  0.00  0.00    +0.000 A 
ATOM      7  C   UNL     1       5.997   4.783  18.396  0.00  0.00    +0.000 A 
ATOM      8  N   UNL     1       5.400   5.290  17.284  0.00  0.00    +0.000 N 
ATOM      9  N   UNL     1       5.934   6.452  16.858  0.00  0.00    +0.000 NA
ATOM     10  C   UNL     1       4.309   4.675  16.578  0.00  0.00    +0.000 C 
ATOM     11  C   UNL     1       3.717   3.423  17.253  0.00  0.00    +0.000 C 
ATOM     12  C   UNL     1       4.375   2.967  18.575  0.00  0.00    +0.000 C 
ATOM     13  N   UNL     1       5.637   3.596  18.917  0.00  0.00    +0.000 N 
ATOM     14  H   UNL     1       6.007   3.334  19.829  0.00  0.00    +0.000 HD
ENDBRANCH   3  11
ENDBRANCH   1   3
BRANCH   1  15
ATOM     15  C   UNL     1       0.786   2.981  19.355  0.00  0.00    +0.000 C 
BRANCH  15  16
ATOM     16  C   UNL     1       1.555   3.913  20.307  0.00  0.00    +0.000 C 
BRANCH  16  17
ATOM     17  N   UNL     1       1.310   5.306  20.029  0.00  0.00    +0.000 N 
ATOM     18  C   UNL     1       2.362   6.185  19.887  0.00  0.00    +0.000 C 
ATOM     19  O   UNL     1       3.541   5.875  20.020  0.00  0.00    +0.000 OA
ATOM     20  H   UNL     1       0.376   5.572  19.756  0.00  0.00    +0.000 HD
BRANCH  18  21
ATOM     21  C   UNL     1       1.988   7.566  19.511  0.00  0.00    +0.000 A 
ATOM     22  C   UNL     1       2.272   8.079  18.232  0.00  0.00    +0.000 A 
ATOM     23  C   UNL     1       1.926   9.384  17.918  0.00  0.00    +0.000 A 
ATOM     24  C   UNL     1       1.282  10.172  18.868  0.00  0.00    +0.000 A 
ATOM     25  F   UNL     1       0.947  11.431  18.559  0.00  0.00    +0.000 F 
ATOM     26  C   UNL     1       0.974   9.674  20.131  0.00  0.00    +0.000 A 
ATOM     27  C   UNL     1       1.324   8.363  20.458  0.00  0.00    +0.000 A 
ENDBRANCH  18  21
ENDBRANCH  16  17
ENDBRANCH  15  16
ENDBRANCH   1  15
TORSDOF 6
ENDMDL
MODEL 4
REMARK VINA RESULT:      -7.4      3.131      6.388
REMARK  Name = 
REMARK  7 active torsions:
REMARK  status: ('A' for Active; 'I' for Inactive)
REMARK    1  A    between atoms: C_1  and  C_2
REMARK    2  A    between atoms: C_8  and  C_9
REMARK    3  A    between atoms: C_9  and  N_10
REMARK    4  A    between atoms: N_10  and  C_11
REMARK    5  A    between atoms: C_11  and  C_12
REMARK    6  A    between atoms: C_12  and  N_13
REMARK    7  A    between atoms: C_14  and  C_16
REMARK                            x       y       z     vdW  Elec       q    Type
REMARK                         _______ _______ _______ _____ _____    ______ ____
ROOT
ATOM      1  N   UNL     1       2.215   2.866  18.359  0.00  0.00    +0.000 NA
ATOM      2  H   UNL     1       2.840   2.965  17.557  0.00  0.00    +0.000 HD
ENDROOT
BRANCH   1   3
ATOM      3  C   UNL     1       1.473   4.114  18.569  0.00  0.00    +0.000 C 
BRANCH   3  11
ATOM      4  C   UNL     1       1.353  11.115  18.514  0.00  0.00    +0.000 C 
ATOM      5  C   UNL     1       1.510   9.708  18.948  0.00  0.00    +0.000 A 
ATOM      6  C   UNL     1       1.253   9.165  20.231  0.00  0.00    +0.000 A 
ATOM      7  C   UNL     1       1.621   7.848  20.137  0.00  0.00    +0.000 A 
ATOM      8  N   UNL     1       2.012   7.662  18.847  0.00  0.00    +0.000 N 
ATOM      9  N   UNL     1       1.963   8.779  18.094  0.00  0.00    +0.000 NA
ATOM     10  C   UNL     1       2.460   6.414  18.292  0.00  0.00    +0.000 C 
ATOM     11  C   UNL     1       2.338   5.199  19.231  0.00  0.00    +0.000 C 
ATOM     12  C   UNL     1       1.781   5.466  20.647  0.00  0.00    +0.000 C 
ATOM     13  N   UNL     1       1.674   6.857  21.045  0.00  0.00    +0.000 N 
ATOM     14  H   UNL     1       1.232   7.006  21.951  0.00  0.00    +0.000 HD
ENDBRANCH   3  11
ENDBRANCH   1   3
BRANCH   1  15
ATOM     15  C   UNL     1       3.019   2.521  19.540  0.00  0.00    +0.000 C 
BRANCH  15  16
ATOM     16  C   UNL     1       4.469   2.157  19.179  0.00  0.00    +0.000 C 
BRANCH  16  17
ATOM     17  N   UNL     1       5.317   3.318  19.075  0.00  0.00    +0.000 N 
ATOM     18  C   UNL     1       5.389   4.027  17.896  0.00  0.00    +0.000 C 
ATOM     19  O   UNL     1       4.794   3.717  16.869  0.00  0.00    +0.000 OA
ATOM     20  H   UNL     1       5.697   3.699  19.929  0.00  0.00    +0.000 HD
BRANCH  18  21
ATOM     21  C   UNL     1       6.219   5.251  17.941  0.00  0.00    +0.000 A 
ATOM     22  C   UNL     1       5.994   6.321  17.056  0.00  0.00    +0.000 A 
ATOM     23  C   UNL     1       6.803   7.446  17.111  0.00  0.00    +0.000 A 
ATOM     24  C   UNL     1       7.822   7.514  18.057  0.00  0.00    +0.000 A 
ATOM     25  F   UNL     1       8.599   8.603  18.108  0.00  0.00    +0.000 F 
ATOM     26  C   UNL     1       8.046   6.473  18.954  0.00  0.00    +0.000 A 
ATOM     27  C   UNL     1       7.240   5.335  18.902  0.00  0.00    +0.000 A 
ENDBRANCH  18  21
ENDBRANCH  16  17
ENDBRANCH  15  16
ENDBRANCH   1  15
TORSDOF 6
ENDMDL
MODEL 5
REMARK VINA RESULT:      -7.4      2.817      6.762
REMARK  Name = 
REMARK  7 active torsions:
REMARK  status: ('A' for Active; 'I' for Inactive)
REMARK    1  A    between atoms: C_1  and  C_2
REMARK    2  A    between atoms: C_8  and  C_9
REMARK    3  A    between atoms: C_9  and  N_10
REMARK    4  A    between atoms: N_10  and  C_11
REMARK    5  A    between atoms: C_11  and  C_12
REMARK    6  A    between atoms: C_12  and  N_13
REMARK    7  A    between atoms: C_14  and  C_16
REMARK                            x       y       z     vdW  Elec       q    Type
REMARK                         _______ _______ _______ _____ _____    ______ ____
ROOT
ATOM      1  N   UNL     1       4.585   6.582  16.713  0.00  0.00    +0.000 NA
ATOM      2  H   UNL     1       4.596   7.120  15.845  0.00  0.00    +0.000 HD
ENDROOT
BRANCH   1   3
ATOM      3  C   UNL     1       4.202   7.451  17.831  0.00  0.00    +0.000 C 
BRANCH   3  11
ATOM      4  C   UNL     1       0.117   9.470  23.148  0.00  0.00    +0.000 C 
ATOM      5  C   UNL     1       0.637   9.206  21.787  0.00  0.00    +0.000 A 
ATOM      6  C   UNL     1       0.450   9.990  20.622  0.00  0.00    +0.000 A 
ATOM      7  C   UNL     1       1.061   9.284  19.619  0.00  0.00    +0.000 A 
ATOM      8  N   UNL     1       1.608   8.190  20.214  0.00  0.00    +0.000 N 
ATOM      9  N   UNL     1       1.362   8.106  21.537  0.00  0.00    +0.000 NA
ATOM     10  C   UNL     1       2.370   7.176  19.537  0.00  0.00    +0.000 C 
ATOM     11  C   UNL     1       2.682   7.471  18.058  0.00  0.00    +0.000 C 
ATOM     12  C   UNL     1       2.123   8.789  17.477  0.00  0.00    +0.000 C 
ATOM     13  N   UNL     1       1.149   9.490  18.293  0.00  0.00    +0.000 N 
ATOM     14  H   UNL     1       0.856  10.393  17.922  0.00  0.00    +0.000 HD
ENDBRANCH   3  11
ENDBRANCH   1   3
BRANCH   1  15
ATOM     15  C   UNL     1       5.919   6.003  16.923  0.00  0.00    +0.000 C 
BRANCH  15  16
ATOM     16  C   UNL     1       5.866   4.493  17.216  0.00  0.00    +0.000 C 
BRANCH  16  17
ATOM     17  N   UNL     1       4.962   4.174  18.292  0.00  0.00    +0.000 N 
ATOM     18  C   UNL     1       3.662   3.803  18.025  0.00  0.00    +0.000 C 
ATOM     19  O   UNL     1       3.177   3.756  16.899  0.00  0.00    +0.000 OA
ATOM     20  H   UNL     1       5.356   4.045  19.212  0.00  0.00    +0.000 HD
BRANCH  18  21
ATOM     21  C   UNL     1       2.860   3.409  19.203  0.00  0.00    +0.000 A 
ATOM     22  C   UNL     1       1.457   3.516  19.204  0.00  0.00    +0.000 A 
ATOM     23  C   UNL     1       0.737   3.157  20.332  0.00  0.00    +0.000 A 
ATOM     24  C   UNL     1       1.408   2.675  21.452  0.00  0.00    +0.000 A 
ATOM     25  F   UNL     1       0.707   2.327  22.539  0.00  0.00    +0.000 F 
ATOM     26  C   UNL     1       2.794   2.544  21.463  0.00  0.00    +0.000 A 
ATOM     27  C   UNL     1       3.528   2.908  20.333  0.00  0.00    +0.000 A 
ENDBRANCH  18  21
ENDBRANCH  16  17
ENDBRANCH  15  16
ENDBRANCH   1  15
TORSDOF 6
ENDMDL
MODEL 6
REMARK VINA RESULT:      -7.4      3.957      6.139
REMARK  Name = 
REMARK  7 active torsions:
REMARK  status: ('A' for Active; 'I' for Inactive)
REMARK    1  A    between atoms: C_1  and  C_2
REMARK    2  A    between atoms: C_8  and  C_9
REMARK    3  A    between atoms: C_9  and  N_10
REMARK    4  A    between atoms: N_10  and  C_11
REMARK    5  A    between atoms: C_11  and  C_12
REMARK    6  A    between atoms: C_12  and  N_13
REMARK    7  A    between atoms: C_14  and  C_16
REMARK                            x       y       z     vdW  Elec       q    Type
REMARK                         _______ _______ _______ _____ _____    ______ ____
ROOT
ATOM      1  N   UNL     1       3.148   2.603  21.838  0.00  0.00    +0.000 NA
ATOM      2  H   UNL     1       3.233   2.523  22.853  0.00  0.00    +0.000 HD
ENDROOT
BRANCH   1   3
ATOM      3  C   UNL     1       1.889   1.992  21.396  0.00  0.00    +0.000 C 
BRANCH   3  11
ATOM      4  C   UNL     1       3.118   8.035  18.079  0.00  0.00    +0.000 C 
ATOM      5  C   UNL     1       2.564   6.712  18.445  0.00  0.00    +0.000 A 
ATOM      6  C   UNL     1       2.128   5.685  17.572  0.00  0.00    +0.000 A 
ATOM      7  C   UNL     1       1.639   4.705  18.396  0.00  0.00    +0.000 A 
ATOM      8  N   UNL     1       1.847   5.148  19.665  0.00  0.00    +0.000 N 
ATOM      9  N   UNL     1       2.404   6.374  19.733  0.00  0.00    +0.000 NA
ATOM     10  C   UNL     1       1.506   4.423  20.859  0.00  0.00    +0.000 C 
ATOM     11  C   UNL     1       1.000   2.986  20.629  0.00  0.00    +0.000 C 
ATOM     12  C   UNL     1       0.895   2.510  19.163  0.00  0.00    +0.000 C 
ATOM     13  N   UNL     1       1.029   3.533  18.143  0.00  0.00    +0.000 N 
ATOM     14  H   UNL     1       1.034   3.180  17.187  0.00  0.00    +0.000 HD
ENDBRANCH   3  11
ENDBRANCH   1   3
BRANCH   1  15
ATOM     15  C   UNL     1       4.305   1.942  21.217  0.00  0.00    +0.000 C 
BRANCH  15  16
ATOM     16  C   UNL     1       4.404   2.226  19.708  0.00  0.00    +0.000 C 
BRANCH  16  17
ATOM     17  N   UNL     1       5.249   3.356  19.416  0.00  0.00    +0.000 N 
ATOM     18  C   UNL     1       5.321   3.861  18.136  0.00  0.00    +0.000 C 
ATOM     19  O   UNL     1       4.728   3.385  17.173  0.00  0.00    +0.000 OA
ATOM     20  H   UNL     1       5.626   3.873  20.196  0.00  0.00    +0.000 HD
BRANCH  18  21
ATOM     21  C   UNL     1       6.147   5.078  17.980  0.00  0.00    +0.000 A 
ATOM     22  C   UNL     1       7.163   5.397  18.899  0.00  0.00    +0.000 A 
ATOM     23  C   UNL     1       7.906   6.556  18.735  0.00  0.00    +0.000 A 
ATOM     24  C   UNL     1       7.651   7.388  17.649  0.00  0.00    +0.000 A 
ATOM     25  F   UNL     1       8.373   8.504  17.493  0.00  0.00    +0.000 F 
ATOM     26  C   UNL     1       6.664   7.078  16.717  0.00  0.00    +0.000 A 
ATOM     27  C   UNL     1       5.907   5.916  16.878  0.00  0.00    +0.000 A 
ENDBRANCH  18  21
ENDBRANCH  16  17
ENDBRANCH  15  16
ENDBRANCH   1  15
TORSDOF 6
ENDMDL
MODEL 7
REMARK VINA RESULT:      -7.4      3.221      6.979
REMARK  Name = 
REMARK  7 active torsions:
REMARK  status: ('A' for Active; 'I' for Inactive)
REMARK    1  A    between atoms: C_1  and  C_2
REMARK    2  A    between atoms: C_8  and  C_9
REMARK    3  A    between atoms: C_9  and  N_10
REMARK    4  A    between atoms: N_10  and  C_11
REMARK    5  A    between atoms: C_11  and  C_12
REMARK    6  A    between atoms: C_12  and  N_13
REMARK    7  A    between atoms: C_14  and  C_16
REMARK                            x       y       z     vdW  Elec       q    Type
REMARK                         _______ _______ _______ _____ _____    ______ ____
ROOT
ATOM      1  N   UNL     1       2.118   4.332  18.676  0.00  0.00    +0.000 NA
ATOM      2  H   UNL     1       1.231   4.295  19.180  0.00  0.00    +0.000 HD
ENDROOT
BRANCH   1   3
ATOM      3  C   UNL     1       2.194   5.572  17.894  0.00  0.00    +0.000 C 
BRANCH   3  11
ATOM      4  C   UNL     1      -0.172  12.048  19.117  0.00  0.00    +0.000 C 
ATOM      5  C   UNL     1       0.460  10.719  19.285  0.00  0.00    +0.000 A 
ATOM      6  C   UNL     1       0.485   9.915  20.451  0.00  0.00    +0.000 A 
ATOM      7  C   UNL     1       1.249   8.829  20.113  0.00  0.00    +0.000 A 
ATOM      8  N   UNL     1       1.584   9.000  18.806  0.00  0.00    +0.000 N 
ATOM      9  N   UNL     1       1.124  10.148  18.270  0.00  0.00    +0.000 NA
ATOM     10  C   UNL     1       2.368   8.081  18.027  0.00  0.00    +0.000 C 
ATOM     11  C   UNL     1       2.711   6.754  18.731  0.00  0.00    +0.000 C 
ATOM     12  C   UNL     1       2.203   6.582  20.179  0.00  0.00    +0.000 C 
ATOM     13  N   UNL     1       1.683   7.773  20.825  0.00  0.00    +0.000 N 
ATOM     14  H   UNL     1       1.284   7.614  21.749  0.00  0.00    +0.000 HD
ENDBRANCH   3  11
ENDBRANCH   1   3
BRANCH   1  15
ATOM     15  C   UNL     1       2.214   3.151  17.806  0.00  0.00    +0.000 C 
BRANCH  15  16
ATOM     16  C   UNL     1       3.627   2.544  17.790  0.00  0.00    +0.000 C 
BRANCH  16  17
ATOM     17  N   UNL     1       4.645   3.514  18.111  0.00  0.00    +0.000 N 
ATOM     18  C   UNL     1       5.251   4.245  17.113  0.00  0.00    +0.000 C 
ATOM     19  O   UNL     1       5.013   4.108  15.918  0.00  0.00    +0.000 OA
ATOM     20  H   UNL     1       4.757   3.772  19.080  0.00  0.00    +0.000 HD
BRANCH  18  21
ATOM     21  C   UNL     1       6.209   5.274  17.574  0.00  0.00    +0.000 A 
ATOM     22  C   UNL     1       7.087   5.030  18.646  0.00  0.00    +0.000 A 
ATOM     23  C   UNL     1       7.959   6.022  19.066  0.00  0.00    +0.000 A 
ATOM     24  C   UNL     1       7.972   7.249  18.408  0.00  0.00    +0.000 A 
ATOM     25  F   UNL     1       8.818   8.203  18.816  0.00  0.00    +0.000 F 
ATOM     26  C   UNL     1       7.126   7.501  17.332  0.00  0.00    +0.000 A 
ATOM     27  C   UNL     1       6.241   6.509  16.906  0.00  0.00    +0.000 A 
ENDBRANCH  18  21
ENDBRANCH  16  17
ENDBRANCH  15  16
ENDBRANCH   1  15
TORSDOF 6
ENDMDL
MODEL 8
REMARK VINA RESULT:      -7.2      5.617      8.281
REMARK  Name = 
REMARK  7 active torsions:
REMARK  status: ('A' for Active; 'I' for Inactive)
REMARK    1  A    between atoms: C_1  and  C_2
REMARK    2  A    between atoms: C_8  and  C_9
REMARK    3  A    between atoms: C_9  and  N_10
REMARK    4  A    between atoms: N_10  and  C_11
REMARK    5  A    between atoms: C_11  and  C_12
REMARK    6  A    between atoms: C_12  and  N_13
REMARK    7  A    between atoms: C_14  and  C_16
REMARK                            x       y       z     vdW  Elec       q    Type
REMARK                         _______ _______ _______ _____ _____    ______ ____
ROOT
ATOM      1  N   UNL     1       7.589   6.969  16.848  0.00  0.00    +0.000 NA
ATOM      2  H   UNL     1       8.021   7.086  15.929  0.00  0.00    +0.000 HD
ENDROOT
BRANCH   1   3
ATOM      3  C   UNL     1       6.354   6.187  16.721  0.00  0.00    +0.000 C 
BRANCH   3  11
ATOM      4  C   UNL     1       0.756   2.494  18.735  0.00  0.00    +0.000 C 
ATOM      5  C   UNL     1       2.110   3.090  18.681  0.00  0.00    +0.000 A 
ATOM      6  C   UNL     1       3.333   2.500  19.085  0.00  0.00    +0.000 A 
ATOM      7  C   UNL     1       4.275   3.477  18.902  0.00  0.00    +0.000 A 
ATOM      8  N   UNL     1       3.612   4.539  18.370  0.00  0.00    +0.000 N 
ATOM      9  N   UNL     1       2.286   4.340  18.227  0.00  0.00    +0.000 NA
ATOM     10  C   UNL     1       4.218   5.787  17.993  0.00  0.00    +0.000 C 
ATOM     11  C   UNL     1       5.755   5.823  18.089  0.00  0.00    +0.000 C 
ATOM     12  C   UNL     1       6.451   4.541  18.598  0.00  0.00    +0.000 C 
ATOM     13  N   UNL     1       5.591   3.528  19.178  0.00  0.00    +0.000 N 
ATOM     14  H   UNL     1       6.066   2.663  19.433  0.00  0.00    +0.000 HD
ENDBRANCH   3  11
ENDBRANCH   1   3
BRANCH   1  15
ATOM     15  C   UNL     1       7.319   8.299  17.412  0.00  0.00    +0.000 C 
BRANCH  15  16
ATOM     16  C   UNL     1       8.345   8.702  18.485  0.00  0.00    +0.000 C 
BRANCH  16  17
ATOM     17  N   UNL     1       8.987   9.959  18.187  0.00  0.00    +0.000 N 
ATOM     18  C   UNL     1       9.493  10.741  19.201  0.00  0.00    +0.000 C 
ATOM     19  O   UNL     1       9.408  10.464  20.393  0.00  0.00    +0.000 OA
ATOM     20  H   UNL     1       9.220  10.149  17.224  0.00  0.00    +0.000 HD
BRANCH  18  21
ATOM     21  C   UNL     1      10.210  11.959  18.765  0.00  0.00    +0.000 A 
ATOM     22  C   UNL     1      10.534  12.174  17.413  0.00  0.00    +0.000 A 
ATOM     23  C   UNL     1      11.224  13.317  17.040  0.00  0.00    +0.000 A 
ATOM     24  C   UNL     1      11.576  14.254  18.007  0.00  0.00    +0.000 A 
ATOM     25  F   UNL     1      12.241  15.357  17.642  0.00  0.00    +0.000 F 
ATOM     26  C   UNL     1      11.247  14.068  19.347  0.00  0.00    +0.000 A 
ATOM     27  C   UNL     1      10.556  12.917  19.732  0.00  0.00    +0.000 A 
ENDBRANCH  18  21
ENDBRANCH  16  17
ENDBRANCH  15  16
ENDBRANCH   1  15
TORSDOF 6
ENDMDL
MODEL 9
REMARK VINA RESULT:      -7.1      5.639      8.312
REMARK  Name = 
REMARK  7 active torsions:
REMARK  status: ('A' for Active; 'I' for Inactive)
REMARK    1  A    between atoms: C_1  and  C_2
REMARK    2  A    between atoms: C_8  and  C_9
REMARK    3  A    between atoms: C_9  and  N_10
REMARK    4  A    between atoms: N_10  and  C_11
REMARK    5  A    between atoms: C_11  and  C_12
REMARK    6  A    between atoms: C_12  and  N_13
REMARK    7  A    between atoms: C_14  and  C_16
REMARK                            x       y       z     vdW  Elec       q    Type
REMARK                         _______ _______ _______ _____ _____    ______ ____
ROOT
ATOM      1  N   UNL     1       7.625   6.923  17.035  0.00  0.00    +0.000 NA
ATOM      2  H   UNL     1       8.229   6.989  16.214  0.00  0.00    +0.000 HD
ENDROOT
BRANCH   1   3
ATOM      3  C   UNL     1       6.379   6.231  16.682  0.00  0.00    +0.000 C 
BRANCH   3  11
ATOM      4  C   UNL     1       1.181   3.789  20.687  0.00  0.00    +0.000 C 
ATOM      5  C   UNL     1       2.318   3.869  19.742  0.00  0.00    +0.000 A 
ATOM      6  C   UNL     1       2.545   3.075  18.592  0.00  0.00    +0.000 A 
ATOM      7  C   UNL     1       3.758   3.490  18.109  0.00  0.00    +0.000 A 
ATOM      8  N   UNL     1       4.156   4.504  18.924  0.00  0.00    +0.000 N 
ATOM      9  N   UNL     1       3.303   4.758  19.937  0.00  0.00    +0.000 NA
ATOM     10  C   UNL     1       5.372   5.255  18.774  0.00  0.00    +0.000 C 
ATOM     11  C   UNL     1       6.180   4.944  17.500  0.00  0.00    +0.000 C 
ATOM     12  C   UNL     1       5.610   3.858  16.562  0.00  0.00    +0.000 C 
ATOM     13  N   UNL     1       4.521   3.057  17.089  0.00  0.00    +0.000 N 
ATOM     14  H   UNL     1       4.115   2.402  16.423  0.00  0.00    +0.000 HD
ENDBRANCH   3  11
ENDBRANCH   1   3
BRANCH   1  15
ATOM     15  C   UNL     1       7.355   8.282  17.528  0.00  0.00    +0.000 C 
BRANCH  15  16
ATOM     16  C   UNL     1       8.486   8.818  18.421  0.00  0.00    +0.000 C 
BRANCH  16  17
ATOM     17  N   UNL     1       8.958  10.111  17.993  0.00  0.00    +0.000 N 
ATOM     18  C   UNL     1       9.458  11.011  18.910  0.00  0.00    +0.000 C 
ATOM     19  O   UNL     1       9.503  10.808  20.119  0.00  0.00    +0.000 OA
ATOM     20  H   UNL     1       9.088  10.259  17.004  0.00  0.00    +0.000 HD
BRANCH  18  21
ATOM     21  C   UNL     1       9.997  12.264  18.339  0.00  0.00    +0.000 A 
ATOM     22  C   UNL     1       9.445  13.516  18.667  0.00  0.00    +0.000 A 
ATOM     23  C   UNL     1       9.961  14.670  18.099  0.00  0.00    +0.000 A 
ATOM     24  C   UNL     1      11.037  14.582  17.221  0.00  0.00    +0.000 A 
ATOM     25  F   UNL     1      11.534  15.700  16.677  0.00  0.00    +0.000 F 
ATOM     26  C   UNL     1      11.610  13.354  16.901  0.00  0.00    +0.000 A 
ATOM     27  C   UNL     1      11.093  12.186  17.464  0.00  0.00    +0.000 A 
ENDBRANCH  18  21
ENDBRANCH  16  17
ENDBRANCH  15  16
ENDBRANCH   1  15
TORSDOF 6
ENDMDL
