MODEL 1
REMARK VINA RESULT:      -8.0      0.000      0.000
REMARK  Name = 
REMARK  6 active torsions:
REMARK  status: ('A' for Active; 'I' for Inactive)
REMARK    1  A    between atoms: C_1  and  C_2
REMARK    2  A    between atoms: N_5  and  C_6
REMARK    3  A    between atoms: C_6  and  C_7
REMARK    4  A    between atoms: C_7  and  C_8
REMARK    5  A    between atoms: N_10  and  S_11
REMARK    6  A    between atoms: S_11  and  N_14
REMARK                            x       y       z     vdW  Elec       q    Type
REMARK                         _______ _______ _______ _____ _____    ______ ____
ROOT
ATOM      1  S   UNL     1       6.313   5.713  16.522  0.00  0.00    +0.000 S 
ATOM      2  O   UNL     1       5.652   5.606  15.242  0.00  0.00    +0.000 OA
ATOM      3  O   UNL     1       7.377   4.815  16.919  0.00  0.00    +0.000 OA
ENDROOT
BRANCH   1   4
ATOM      4  N   UNL     1       5.089   5.755  17.723  0.00  0.00    +0.000 N 
ATOM      5  C   UNL     1       4.643   7.136  18.093  0.00  0.00    +0.000 C 
ATOM      6  C   UNL     1       3.250   7.458  17.591  0.00  0.00    +0.000 C 
ATOM      7  C   UNL     1       2.258   6.471  18.164  0.00  0.00    +0.000 C 
ATOM      8  C   UNL     1       2.706   5.051  17.953  0.00  0.00    +0.000 A 
ATOM      9  C   UNL     1       1.735   4.039  18.076  0.00  0.00    +0.000 A 
ATOM     10  C   UNL     1       2.079   2.702  17.913  0.00  0.00    +0.000 A 
ATOM     11  C   UNL     1       3.395   2.367  17.632  0.00  0.00    +0.000 A 
ATOM     12  C   UNL     1       4.372   3.367  17.536  0.00  0.00    +0.000 A 
ATOM     13  C   UNL     1       4.051   4.723  17.683  0.00  0.00    +0.000 A 
ENDBRANCH   1   4
BRANCH   1  16
ATOM     14  C   UNL     1       7.782   7.609  17.789  0.00  0.00    +0.000 C 
ATOM     15  O   UNL     1       8.129   6.845  18.680  0.00  0.00    +0.000 OA
ATOM     16  N   UNL     1       6.933   7.240  16.735  0.00  0.00    +0.000 N 
ATOM     17  H   UNL     1       6.382   7.951  16.266  0.00  0.00    +0.000 HD
BRANCH  14  18
ATOM     18  C   UNL     1       8.192   9.061  17.785  0.00  0.00    +0.000 C 
BRANCH  18  19
ATOM     19  C   UNL     1       8.937   9.408  19.069  0.00  0.00    +0.000 C 
BRANCH  19  24
ATOM     20  C   UNL     1      10.981  13.817  20.307  0.00  0.00    +0.000 C 
ATOM     21  C   UNL     1      10.467  12.645  19.565  0.00  0.00    +0.000 A 
ATOM     22  C   UNL     1      10.456  12.424  18.170  0.00  0.00    +0.000 A 
ATOM     23  N   UNL     1       9.930  11.240  17.836  0.00  0.00    +0.000 NA
ATOM     24  N   UNL     1       9.580  10.709  19.023  0.00  0.00    +0.000 N 
ATOM     25  C   UNL     1       9.889  11.507  20.085  0.00  0.00    +0.000 A 
ENDBRANCH  19  24
ENDBRANCH  18  19
ENDBRANCH  14  18
ENDBRANCH   1  16
TORSDOF 5
ENDMDL
MODEL 2
REMARK VINA RESULT:      -7.9      0.682      1.028
REMARK  Name = 
REMARK  6 active torsions:
REMARK  status: ('A' for Active; 'I' for Inactive)
REMARK    1  A    between atoms: C_1  and  C_2
REMARK    2  A    between atoms: N_5  and  C_6
REMARK    3  A    between atoms: C_6  and  C_7
REMARK    4  A    between atoms: C_7  and  C_8
REMARK    5  A    between atoms: N_10  and  S_11
REMARK    6  A    between atoms: S_11  and  N_14
REMARK                            x       y       z     vdW  Elec       q    Type
REMARK                         _______ _______ _______ _____ _____    ______ ____
ROOT
ATOM      1  S   UNL     1       6.089   5.461  16.467  0.00  0.00    +0.000 S 
ATOM      2  O   UNL     1       5.391   5.382  15.204  0.00  0.00    +0.000 OA
ATOM      3  O   UNL     1       7.120   4.516  16.840  0.00  0.00    +0.000 OA
ENDROOT
BRANCH   1   4
ATOM      4  N   UNL     1       4.900   5.565  17.698  0.00  0.00    +0.000 N 
ATOM      5  C   UNL     1       4.479   6.965  18.025  0.00  0.00    +0.000 C 
ATOM      6  C   UNL     1       3.076   7.282  17.549  0.00  0.00    +0.000 C 
ATOM      7  C   UNL     1       2.090   6.330  18.190  0.00  0.00    +0.000 C 
ATOM      8  C   UNL     1       2.518   4.898  18.023  0.00  0.00    +0.000 A 
ATOM      9  C   UNL     1       1.540   3.902  18.214  0.00  0.00    +0.000 A 
ATOM     10  C   UNL     1       1.865   2.556  18.094  0.00  0.00    +0.000 A 
ATOM     11  C   UNL     1       3.170   2.196  17.791  0.00  0.00    +0.000 A 
ATOM     12  C   UNL     1       4.154   3.180  17.627  0.00  0.00    +0.000 A 
ATOM     13  C   UNL     1       3.851   4.544  17.729  0.00  0.00    +0.000 A 
ENDBRANCH   1   4
BRANCH   1  16
ATOM     14  C   UNL     1       7.672   7.292  17.691  0.00  0.00    +0.000 C 
ATOM     15  O   UNL     1       8.000   6.518  18.580  0.00  0.00    +0.000 OA
ATOM     16  N   UNL     1       6.786   6.958  16.657  0.00  0.00    +0.000 N 
ATOM     17  H   UNL     1       6.261   7.692  16.193  0.00  0.00    +0.000 HD
BRANCH  14  18
ATOM     18  C   UNL     1       8.151   8.722  17.669  0.00  0.00    +0.000 C 
BRANCH  18  19
ATOM     19  C   UNL     1       8.811   9.084  18.995  0.00  0.00    +0.000 C 
BRANCH  19  24
ATOM     20  C   UNL     1       9.742  13.903  17.965  0.00  0.00    +0.000 C 
ATOM     21  C   UNL     1       9.569  12.601  18.645  0.00  0.00    +0.000 A 
ATOM     22  C   UNL     1       9.764  12.290  20.009  0.00  0.00    +0.000 A 
ATOM     23  N   UNL     1       9.496  11.010  20.293  0.00  0.00    +0.000 NA
ATOM     24  N   UNL     1       9.151  10.492  19.099  0.00  0.00    +0.000 N 
ATOM     25  C   UNL     1       9.171  11.405  18.087  0.00  0.00    +0.000 A 
ENDBRANCH  19  24
ENDBRANCH  18  19
ENDBRANCH  14  18
ENDBRANCH   1  16
TORSDOF 5
ENDMDL
MODEL 3
REMARK VINA RESULT:      -7.8      1.460      1.739
REMARK  Name = 
REMARK  6 active torsions:
REMARK  status: ('A' for Active; 'I' for Inactive)
REMARK    1  A    between atoms: C_1  and  C_2
REMARK    2  A    between atoms: N_5  and  C_6
REMARK    3  A    between atoms: C_6  and  C_7
REMARK    4  A    between atoms: C_7  and  C_8
REMARK    5  A    between atoms: N_10  and  S_11
REMARK    6  A    between atoms: S_11  and  N_14
REMARK                            x       y       z     vdW  Elec       q    Type
REMARK                         _______ _______ _______ _____ _____    ______ ____
ROOT
ATOM      1  S   UNL     1       5.344   5.192  17.484  0.00  0.00    +0.000 S 
ATOM      2  O   UNL     1       4.512   5.837  16.494  0.00  0.00    +0.000 OA
ATOM      3  O   UNL     1       6.167   4.043  17.172  0.00  0.00    +0.000 OA
ENDROOT
BRANCH   1   4
ATOM      4  N   UNL     1       4.350   4.863  18.843  0.00  0.00    +0.000 N 
ATOM      5  C   UNL     1       4.106   6.049  19.724  0.00  0.00    +0.000 C 
ATOM      6  C   UNL     1       2.686   6.567  19.632  0.00  0.00    +0.000 C 
ATOM      7  C   UNL     1       1.716   5.475  20.029  0.00  0.00    +0.000 C 
ATOM      8  C   UNL     1       1.986   4.199  19.281  0.00  0.00    +0.000 A 
ATOM      9  C   UNL     1       0.958   3.236  19.249  0.00  0.00    +0.000 A 
ATOM     10  C   UNL     1       1.141   2.024  18.593  0.00  0.00    +0.000 A 
ATOM     11  C   UNL     1       2.353   1.763  17.972  0.00  0.00    +0.000 A 
ATOM     12  C   UNL     1       3.390   2.704  18.023  0.00  0.00    +0.000 A 
ATOM     13  C   UNL     1       3.228   3.939  18.666  0.00  0.00    +0.000 A 
ENDBRANCH   1   4
BRANCH   1  16
ATOM     14  C   UNL     1       7.424   6.932  17.506  0.00  0.00    +0.000 C 
ATOM     15  O   UNL     1       7.700   6.727  16.332  0.00  0.00    +0.000 OA
ATOM     16  N   UNL     1       6.378   6.288  18.183  0.00  0.00    +0.000 N 
ATOM     17  H   UNL     1       6.423   6.191  19.192  0.00  0.00    +0.000 HD
BRANCH  14  18
ATOM     18  C   UNL     1       8.245   7.865  18.362  0.00  0.00    +0.000 C 
BRANCH  18  19
ATOM     19  C   UNL     1       8.128   9.297  17.853  0.00  0.00    +0.000 C 
BRANCH  19  24
ATOM     20  C   UNL     1      11.636  12.770  18.738  0.00  0.00    +0.000 C 
ATOM     21  C   UNL     1      10.600  11.725  18.885  0.00  0.00    +0.000 A 
ATOM     22  C   UNL     1      10.088  11.155  20.072  0.00  0.00    +0.000 A 
ATOM     23  N   UNL     1       9.137  10.243  19.841  0.00  0.00    +0.000 NA
ATOM     24  N   UNL     1       9.055  10.210  18.497  0.00  0.00    +0.000 N 
ATOM     25  C   UNL     1       9.902  11.084  17.883  0.00  0.00    +0.000 A 
ENDBRANCH  19  24
ENDBRANCH  18  19
ENDBRANCH  14  18
ENDBRANCH   1  16
TORSDOF 5
ENDMDL
MODEL 4
REMARK VINA RESULT:      -7.7      1.296      1.499
REMARK  Name = 
REMARK  6 active torsions:
REMARK  status: ('A' for Active; 'I' for Inactive)
REMARK    1  A    between atoms: C_1  and  C_2
REMARK    2  A    between atoms: N_5  and  C_6
REMARK    3  A    between atoms: C_6  and  C_7
REMARK    4  A    between atoms: C_7  and  C_8
REMARK    5  A    between atoms: N_10  and  S_11
REMARK    6  A    between atoms: S_11  and  N_14
REMARK                            x       y       z     vdW  Elec       q    Type
REMARK                         _______ _______ _______ _____ _____    ______ ____
ROOT
ATOM      1  S   UNL     1       6.098   5.017  17.926  0.00  0.00    +0.000 S 
ATOM      2  O   UNL     1       5.797   4.685  16.552  0.00  0.00    +0.000 OA
ATOM      3  O   UNL     1       7.077   4.286  18.701  0.00  0.00    +0.000 OA
ENDROOT
BRANCH   1   4
ATOM      4  N   UNL     1       4.606   5.094  18.768  0.00  0.00    +0.000 N 
ATOM      5  C   UNL     1       4.038   6.475  18.882  0.00  0.00    +0.000 C 
ATOM      6  C   UNL     1       2.812   6.679  18.015  0.00  0.00    +0.000 C 
ATOM      7  C   UNL     1       1.736   5.691  18.409  0.00  0.00    +0.000 C 
ATOM      8  C   UNL     1       2.267   4.285  18.452  0.00  0.00    +0.000 A 
ATOM      9  C   UNL     1       1.328   3.236  18.420  0.00  0.00    +0.000 A 
ATOM     10  C   UNL     1       1.743   1.910  18.475  0.00  0.00    +0.000 A 
ATOM     11  C   UNL     1       3.097   1.624  18.570  0.00  0.00    +0.000 A 
ATOM     12  C   UNL     1       4.035   2.663  18.631  0.00  0.00    +0.000 A 
ATOM     13  C   UNL     1       3.646   4.008  18.563  0.00  0.00    +0.000 A 
ENDBRANCH   1   4
BRANCH   1  16
ATOM     14  C   UNL     1       7.432   7.259  17.181  0.00  0.00    +0.000 C 
ATOM     15  O   UNL     1       7.989   6.701  16.245  0.00  0.00    +0.000 OA
ATOM     16  N   UNL     1       6.547   6.612  18.056  0.00  0.00    +0.000 N 
ATOM     17  H   UNL     1       6.420   6.976  18.995  0.00  0.00    +0.000 HD
BRANCH  14  18
ATOM     18  C   UNL     1       7.708   8.703  17.521  0.00  0.00    +0.000 C 
BRANCH  18  19
ATOM     19  C   UNL     1       8.672   8.799  18.699  0.00  0.00    +0.000 C 
BRANCH  19  24
ATOM     20  C   UNL     1      10.350  13.492  18.143  0.00  0.00    +0.000 C 
ATOM     21  C   UNL     1       9.884  12.205  18.702  0.00  0.00    +0.000 A 
ATOM     22  C   UNL     1       9.735  11.838  20.058  0.00  0.00    +0.000 A 
ATOM     23  N   UNL     1       9.268  10.594  20.211  0.00  0.00    +0.000 NA
ATOM     24  N   UNL     1       9.139  10.151  18.946  0.00  0.00    +0.000 N 
ATOM     25  C   UNL     1       9.486  11.081  18.010  0.00  0.00    +0.000 A 
ENDBRANCH  19  24
ENDBRANCH  18  19
ENDBRANCH  14  18
ENDBRANCH   1  16
TORSDOF 5
ENDMDL
MODEL 5
REMARK VINA RESULT:      -7.7      4.943      6.376
REMARK  Name = 
REMARK  6 active torsions:
REMARK  status: ('A' for Active; 'I' for Inactive)
REMARK    1  A    between atoms: C_1  and  C_2
REMARK    2  A    between atoms: N_5  and  C_6
REMARK    3  A    between atoms: C_6  and  C_7
REMARK    4  A    between atoms: C_7  and  C_8
REMARK    5  A    between atoms: N_10  and  S_11
REMARK    6  A    between atoms: S_11  and  N_14
REMARK                            x       y       z     vdW  Elec       q    Type
REMARK                         _______ _______ _______ _____ _____    ______ ____
ROOT
ATOM      1  S   UNL     1       2.944   2.432  17.857  0.00  0.00    +0.000 S 
ATOM      2  O   UNL     1       2.167   2.300  16.646  0.00  0.00    +0.000 OA
ATOM      3  O   UNL     1       3.594   1.302  18.485  0.00  0.00    +0.000 OA
ENDROOT
BRANCH   1   4
ATOM      4  N   UNL     1       1.970   3.268  18.995  0.00  0.00    +0.000 N 
ATOM      5  C   UNL     1       1.729   2.513  20.266  0.00  0.00    +0.000 C 
ATOM      6  C   UNL     1       2.470   3.101  21.449  0.00  0.00    +0.000 C 
ATOM      7  C   UNL     1       2.039   4.536  21.662  0.00  0.00    +0.000 C 
ATOM      8  C   UNL     1       2.122   5.332  20.389  0.00  0.00    +0.000 A 
ATOM      9  C   UNL     1       2.130   6.736  20.502  0.00  0.00    +0.000 A 
ATOM     10  C   UNL     1       2.187   7.539  19.368  0.00  0.00    +0.000 A 
ATOM     11  C   UNL     1       2.228   6.944  18.115  0.00  0.00    +0.000 A 
ATOM     12  C   UNL     1       2.192   5.549  17.995  0.00  0.00    +0.000 A 
ATOM     13  C   UNL     1       2.149   4.716  19.121  0.00  0.00    +0.000 A 
ENDBRANCH   1   4
BRANCH   1  16
ATOM     14  C   UNL     1       5.183   3.782  18.577  0.00  0.00    +0.000 C 
ATOM     15  O   UNL     1       5.299   3.170  19.631  0.00  0.00    +0.000 OA
ATOM     16  N   UNL     1       4.141   3.568  17.664  0.00  0.00    +0.000 N 
ATOM     17  H   UNL     1       3.869   4.315  17.033  0.00  0.00    +0.000 HD
BRANCH  14  18
ATOM     18  C   UNL     1       6.135   4.889  18.196  0.00  0.00    +0.000 C 
BRANCH  18  19
ATOM     19  C   UNL     1       5.589   5.677  17.010  0.00  0.00    +0.000 C 
BRANCH  19  24
ATOM     20  C   UNL     1       6.007   3.438  12.542  0.00  0.00    +0.000 C 
ATOM     21  C   UNL     1       6.268   4.209  13.777  0.00  0.00    +0.000 A 
ATOM     22  C   UNL     1       7.446   4.890  14.157  0.00  0.00    +0.000 A 
ATOM     23  N   UNL     1       7.332   5.506  15.338  0.00  0.00    +0.000 NA
ATOM     24  N   UNL     1       6.081   5.199  15.731  0.00  0.00    +0.000 N 
ATOM     25  C   UNL     1       5.404   4.435  14.827  0.00  0.00    +0.000 A 
ENDBRANCH  19  24
ENDBRANCH  18  19
ENDBRANCH  14  18
ENDBRANCH   1  16
TORSDOF 5
ENDMDL
MODEL 6
REMARK VINA RESULT:      -7.7      1.115      1.206
REMARK  Name = 
REMARK  6 active torsions:
REMARK  status: ('A' for Active; 'I' for Inactive)
REMARK    1  A    between atoms: C_1  and  C_2
REMARK    2  A    between atoms: N_5  and  C_6
REMARK    3  A    between atoms: C_6  and  C_7
REMARK    4  A    between atoms: C_7  and  C_8
REMARK    5  A    between atoms: N_10  and  S_11
REMARK    6  A    between atoms: S_11  and  N_14
REMARK                            x       y       z     vdW  Elec       q    Type
REMARK                         _______ _______ _______ _____ _____    ______ ____
ROOT
ATOM      1  S   UNL     1       6.448   5.059  17.226  0.00  0.00    +0.000 S 
ATOM      2  O   UNL     1       6.052   4.513  15.949  0.00  0.00    +0.000 OA
ATOM      3  O   UNL     1       7.483   4.455  18.038  0.00  0.00    +0.000 OA
ENDROOT
BRANCH   1   4
ATOM      4  N   UNL     1       5.019   5.279  18.149  0.00  0.00    +0.000 N 
ATOM      5  C   UNL     1       4.555   6.701  18.229  0.00  0.00    +0.000 C 
ATOM      6  C   UNL     1       3.296   6.955  17.426  0.00  0.00    +0.000 C 
ATOM      7  C   UNL     1       2.180   6.064  17.928  0.00  0.00    +0.000 C 
ATOM      8  C   UNL     1       2.615   4.627  18.008  0.00  0.00    +0.000 A 
ATOM      9  C   UNL     1       1.606   3.647  18.080  0.00  0.00    +0.000 A 
ATOM     10  C   UNL     1       1.931   2.299  18.175  0.00  0.00    +0.000 A 
ATOM     11  C   UNL     1       3.265   1.921  18.204  0.00  0.00    +0.000 A 
ATOM     12  C   UNL     1       4.274   2.892  18.161  0.00  0.00    +0.000 A 
ATOM     13  C   UNL     1       3.975   4.257  18.052  0.00  0.00    +0.000 A 
ENDBRANCH   1   4
BRANCH   1  16
ATOM     14  C   UNL     1       7.803   7.306  17.915  0.00  0.00    +0.000 C 
ATOM     15  O   UNL     1       8.334   6.775  18.881  0.00  0.00    +0.000 OA
ATOM     16  N   UNL     1       6.897   6.652  17.068  0.00  0.00    +0.000 N 
ATOM     17  H   UNL     1       6.217   7.197  16.548  0.00  0.00    +0.000 HD
BRANCH  14  18
ATOM     18  C   UNL     1       8.031   8.761  17.586  0.00  0.00    +0.000 C 
BRANCH  18  19
ATOM     19  C   UNL     1       8.901   9.418  18.651  0.00  0.00    +0.000 C 
BRANCH  19  24
ATOM     20  C   UNL     1      11.942  13.071  17.049  0.00  0.00    +0.000 C 
ATOM     21  C   UNL     1      10.779  12.302  17.543  0.00  0.00    +0.000 A 
ATOM     22  C   UNL     1       9.480  12.769  17.845  0.00  0.00    +0.000 A 
ATOM     23  N   UNL     1       8.660  11.795  18.253  0.00  0.00    +0.000 NA
ATOM     24  N   UNL     1       9.443  10.700  18.235  0.00  0.00    +0.000 N 
ATOM     25  C   UNL     1      10.714  10.951  17.810  0.00  0.00    +0.000 A 
ENDBRANCH  19  24
ENDBRANCH  18  19
ENDBRANCH  14  18
ENDBRANCH   1  16
TORSDOF 5
ENDMDL
MODEL 7
REMARK VINA RESULT:      -7.7      1.295      1.353
REMARK  Name = 
REMARK  6 active torsions:
REMARK  status: ('A' for Active; 'I' for Inactive)
REMARK    1  A    between atoms: C_1  and  C_2
REMARK    2  A    between atoms: N_5  and  C_6
REMARK    3  A    between atoms: C_6  and  C_7
REMARK    4  A    between atoms: C_7  and  C_8
REMARK    5  A    between atoms: N_10  and  S_11
REMARK    6  A    between atoms: S_11  and  N_14
REMARK                            x       y       z     vdW  Elec       q    Type
REMARK                         _______ _______ _______ _____ _____    ______ ____
ROOT
ATOM      1  S   UNL     1       5.861   5.039  17.772  0.00  0.00    +0.000 S 
ATOM      2  O   UNL     1       5.283   4.861  16.460  0.00  0.00    +0.000 OA
ATOM      3  O   UNL     1       6.983   4.251  18.236  0.00  0.00    +0.000 OA
ENDROOT
BRANCH   1   4
ATOM      4  N   UNL     1       4.575   4.971  18.906  0.00  0.00    +0.000 N 
ATOM      5  C   UNL     1       4.077   6.313  19.347  0.00  0.00    +0.000 C 
ATOM      6  C   UNL     1       2.705   6.640  18.794  0.00  0.00    +0.000 C 
ATOM      7  C   UNL     1       1.708   5.594  19.244  0.00  0.00    +0.000 C 
ATOM      8  C   UNL     1       2.202   4.203  18.959  0.00  0.00    +0.000 A 
ATOM      9  C   UNL     1       1.251   3.164  18.961  0.00  0.00    +0.000 A 
ATOM     10  C   UNL     1       1.635   1.849  18.723  0.00  0.00    +0.000 A 
ATOM     11  C   UNL     1       2.972   1.563  18.491  0.00  0.00    +0.000 A 
ATOM     12  C   UNL     1       3.928   2.587  18.516  0.00  0.00    +0.000 A 
ATOM     13  C   UNL     1       3.567   3.923  18.739  0.00  0.00    +0.000 A 
ENDBRANCH   1   4
BRANCH   1  16
ATOM     14  C   UNL     1       7.283   7.283  17.227  0.00  0.00    +0.000 C 
ATOM     15  O   UNL     1       7.909   6.751  16.320  0.00  0.00    +0.000 OA
ATOM     16  N   UNL     1       6.319   6.620  18.000  0.00  0.00    +0.000 N 
ATOM     17  H   UNL     1       6.118   6.951  18.938  0.00  0.00    +0.000 HD
BRANCH  14  18
ATOM     18  C   UNL     1       7.549   8.709  17.643  0.00  0.00    +0.000 C 
BRANCH  18  19
ATOM     19  C   UNL     1       8.702   8.768  18.639  0.00  0.00    +0.000 C 
BRANCH  19  24
ATOM     20  C   UNL     1      10.036  12.908  21.135  0.00  0.00    +0.000 C 
ATOM     21  C   UNL     1       9.665  11.940  20.080  0.00  0.00    +0.000 A 
ATOM     22  C   UNL     1       9.542  12.159  18.690  0.00  0.00    +0.000 A 
ATOM     23  N   UNL     1       9.206  11.053  18.017  0.00  0.00    +0.000 NA
ATOM     24  N   UNL     1       9.090  10.123  18.985  0.00  0.00    +0.000 N 
ATOM     25  C   UNL     1       9.363  10.603  20.231  0.00  0.00    +0.000 A 
ENDBRANCH  19  24
ENDBRANCH  18  19
ENDBRANCH  14  18
ENDBRANCH   1  16
TORSDOF 5
ENDMDL
MODEL 8
REMARK VINA RESULT:      -7.6      4.625      7.099
REMARK  Name = 
REMARK  6 active torsions:
REMARK  status: ('A' for Active; 'I' for Inactive)
REMARK    1  A    between atoms: C_1  and  C_2
REMARK    2  A    between atoms: N_5  and  C_6
REMARK    3  A    between atoms: C_6  and  C_7
REMARK    4  A    between atoms: C_7  and  C_8
REMARK    5  A    between atoms: N_10  and  S_11
REMARK    6  A    between atoms: S_11  and  N_14
REMARK                            x       y       z     vdW  Elec       q    Type
REMARK                         _______ _______ _______ _____ _____    ______ ____
ROOT
ATOM      1  S   UNL     1       6.487   5.571  18.760  0.00  0.00    +0.000 S 
ATOM      2  O   UNL     1       7.208   5.033  19.890  0.00  0.00    +0.000 OA
ATOM      3  O   UNL     1       6.836   6.837  18.151  0.00  0.00    +0.000 OA
ENDROOT
BRANCH   1   4
ATOM      4  N   UNL     1       4.820   5.543  19.163  0.00  0.00    +0.000 N 
ATOM      5  C   UNL     1       4.082   6.797  18.807  0.00  0.00    +0.000 C 
ATOM      6  C   UNL     1       3.134   6.610  17.640  0.00  0.00    +0.000 C 
ATOM      7  C   UNL     1       2.116   5.541  17.974  0.00  0.00    +0.000 C 
ATOM      8  C   UNL     1       2.777   4.287  18.474  0.00  0.00    +0.000 A 
ATOM      9  C   UNL     1       2.016   3.101  18.456  0.00  0.00    +0.000 A 
ATOM     10  C   UNL     1       2.553   1.906  18.920  0.00  0.00    +0.000 A 
ATOM     11  C   UNL     1       3.850   1.889  19.412  0.00  0.00    +0.000 A 
ATOM     12  C   UNL     1       4.603   3.070  19.460  0.00  0.00    +0.000 A 
ATOM     13  C   UNL     1       4.091   4.285  18.986  0.00  0.00    +0.000 A 
ENDBRANCH   1   4
BRANCH   1  16
ATOM     14  C   UNL     1       6.228   4.819  16.167  0.00  0.00    +0.000 C 
ATOM     15  O   UNL     1       5.982   5.957  15.788  0.00  0.00    +0.000 OA
ATOM     16  N   UNL     1       6.464   4.480  17.507  0.00  0.00    +0.000 N 
ATOM     17  H   UNL     1       6.284   3.532  17.821  0.00  0.00    +0.000 HD
BRANCH  14  18
ATOM     18  C   UNL     1       6.230   3.650  15.214  0.00  0.00    +0.000 C 
BRANCH  18  19
ATOM     19  C   UNL     1       6.716   4.086  13.836  0.00  0.00    +0.000 C 
BRANCH  19  24
ATOM     20  C   UNL     1       3.156   3.133  10.434  0.00  0.00    +0.000 C 
ATOM     21  C   UNL     1       4.379   3.087  11.265  0.00  0.00    +0.000 A 
ATOM     22  C   UNL     1       5.451   2.169  11.202  0.00  0.00    +0.000 A 
ATOM     23  N   UNL     1       6.412   2.432  12.093  0.00  0.00    +0.000 NA
ATOM     24  N   UNL     1       5.944   3.511  12.749  0.00  0.00    +0.000 N 
ATOM     25  C   UNL     1       4.737   3.944  12.284  0.00  0.00    +0.000 A 
ENDBRANCH  19  24
ENDBRANCH  18  19
ENDBRANCH  14  18
ENDBRANCH   1  16
TORSDOF 5
ENDMDL
MODEL 9
REMARK VINA RESULT:      -7.6      3.575      5.708
REMARK  Name = 
REMARK  6 active torsions:
REMARK  status: ('A' for Active; 'I' for Inactive)
REMARK    1  A    between atoms: C_1  and  C_2
REMARK    2  A    between atoms: N_5  and  C_6
REMARK    3  A    between atoms: C_6  and  C_7
REMARK    4  A    between atoms: C_7  and  C_8
REMARK    5  A    between atoms: N_10  and  S_11
REMARK    6  A    between atoms: S_11  and  N_14
REMARK                            x       y       z     vdW  Elec       q    Type
REMARK                         _______ _______ _______ _____ _____    ______ ____
ROOT
ATOM      1  S   UNL     1       2.681   5.686  19.201  0.00  0.00    +0.000 S 
ATOM      2  O   UNL     1       1.323   5.266  18.942  0.00  0.00    +0.000 OA
ATOM      3  O   UNL     1       3.464   5.142  20.290  0.00  0.00    +0.000 OA
ENDROOT
BRANCH   1   4
ATOM      4  N   UNL     1       2.678   7.400  19.266  0.00  0.00    +0.000 N 
ATOM      5  C   UNL     1       3.093   8.062  17.988  0.00  0.00    +0.000 C 
ATOM      6  C   UNL     1       1.939   8.737  17.275  0.00  0.00    +0.000 C 
ATOM      7  C   UNL     1       1.326   9.788  18.175  0.00  0.00    +0.000 C 
ATOM      8  C   UNL     1       1.006   9.232  19.535  0.00  0.00    +0.000 A 
ATOM      9  C   UNL     1       0.100   9.956  20.335  0.00  0.00    +0.000 A 
ATOM     10  C   UNL     1      -0.231   9.513  21.610  0.00  0.00    +0.000 A 
ATOM     11  C   UNL     1       0.348   8.351  22.098  0.00  0.00    +0.000 A 
ATOM     12  C   UNL     1       1.272   7.641  21.319  0.00  0.00    +0.000 A 
ATOM     13  C   UNL     1       1.612   8.057  20.025  0.00  0.00    +0.000 A 
ENDBRANCH   1   4
BRANCH   1  16
ATOM     14  C   UNL     1       4.045   4.240  17.356  0.00  0.00    +0.000 C 
ATOM     15  O   UNL     1       3.784   3.173  17.896  0.00  0.00    +0.000 OA
ATOM     16  N   UNL     1       3.624   5.484  17.847  0.00  0.00    +0.000 N 
ATOM     17  H   UNL     1       4.154   6.317  17.616  0.00  0.00    +0.000 HD
BRANCH  14  18
ATOM     18  C   UNL     1       4.918   4.313  16.127  0.00  0.00    +0.000 C 
BRANCH  18  19
ATOM     19  C   UNL     1       6.377   4.066  16.494  0.00  0.00    +0.000 C 
BRANCH  19  24
ATOM     20  C   UNL     1       8.088   8.543  17.969  0.00  0.00    +0.000 C 
ATOM     21  C   UNL     1       7.725   7.111  17.900  0.00  0.00    +0.000 A 
ATOM     22  C   UNL     1       7.935   6.103  18.868  0.00  0.00    +0.000 A 
ATOM     23  N   UNL     1       7.462   4.911  18.487  0.00  0.00    +0.000 NA
ATOM     24  N   UNL     1       6.966   5.151  17.258  0.00  0.00    +0.000 N 
ATOM     25  C   UNL     1       7.092   6.451  16.868  0.00  0.00    +0.000 A 
ENDBRANCH  19  24
ENDBRANCH  18  19
ENDBRANCH  14  18
ENDBRANCH   1  16
TORSDOF 5
ENDMDL
