MODEL 1
REMARK VINA RESULT:      -5.9      0.000      0.000
REMARK  Name = 
REMARK  23 active torsions:
REMARK  status: ('A' for Active; 'I' for Inactive)
REMARK    1  A    between atoms: C_1  and  C_2
REMARK    2  A    between atoms: C_2  and  C_33
REMARK    3  A    between atoms: C_3  and  C_4
REMARK    4  A    between atoms: C_4  and  C_5
REMARK    5  A    between atoms: C_4  and  N_8
REMARK    6  A    between atoms: C_5  and  C_6
REMARK    7  A    between atoms: C_5  and  C_7
REMARK    8  A    between atoms: N_8  and  C_9
REMARK    9  A    between atoms: C_10  and  C_12
REMARK   10  A    between atoms: C_12  and  N_13
REMARK   11  A    between atoms: C_12  and  C_29
REMARK   12  A    between atoms: C_14  and  C_16
REMARK   13  A    between atoms: C_16  and  N_17
REMARK   14  A    between atoms: C_16  and  C_20
REMARK   15  A    between atoms: N_17  and  C_18
REMARK   16  A    between atoms: N_17  and  C_19
REMARK   17  A    between atoms: C_20  and  C_21
REMARK   18  A    between atoms: C_20  and  C_22
REMARK   19  A    between atoms: C_20  and  C_23
REMARK   20  A    between atoms: C_29  and  C_30
REMARK   21  A    between atoms: C_29  and  C_31
REMARK   22  A    between atoms: C_29  and  C_32
REMARK   23  A    between atoms: C_33  and  O_35
REMARK                            x       y       z     vdW  Elec       q    Type
REMARK                         _______ _______ _______ _____ _____    ______ ____
ROOT
ATOM      1  C   UNL     1      -0.318  11.934  20.431  0.00  0.00    +0.000 C 
ENDROOT
BRANCH   1   4
ATOM      2  N   UNL     1       1.095  14.055  19.975  0.00  0.00    +0.000 N 
ATOM      3  C   UNL     1       1.834  13.860  21.209  0.00  0.00    +0.000 C 
ATOM      4  C   UNL     1       0.024  13.225  19.600  0.00  0.00    +0.000 C 
ATOM      5  O   UNL     1      -0.711  13.557  18.664  0.00  0.00    +0.000 OA
BRANCH   2   6
ATOM      6  C   UNL     1       1.323  15.304  19.207  0.00  0.00    +0.000 C 
BRANCH   6   9
ATOM      7  C   UNL     1       3.104  16.713  17.030  0.00  0.00    +0.000 C 
ATOM      8  C   UNL     1       3.554  16.292  18.403  0.00  0.00    +0.000 C 
ATOM      9  C   UNL     1       2.785  15.697  19.342  0.00  0.00    +0.000 C 
BRANCH   8  10
ATOM     10  C   UNL     1       4.967  16.696  18.698  0.00  0.00    +0.000 C 
ATOM     11  O   UNL     1       5.920  15.995  18.422  0.00  0.00    +0.000 OA
BRANCH  10  12
ATOM     12  O   UNL     1       5.089  17.857  19.369  0.00  0.00    +0.000 OA
ATOM     13  H   UNL     1       5.998  18.067  19.640  0.00  0.00    +0.000 HD
ENDBRANCH  10  12
ENDBRANCH   8  10
ENDBRANCH   6   9
BRANCH   6  14
ATOM     14  C   UNL     1       0.342  16.492  19.471  0.00  0.00    +0.000 C 
ATOM     15  C   UNL     1      -0.354  17.119  18.258  0.00  0.00    +0.000 C 
ATOM     16  C   UNL     1       0.998  17.573  20.332  0.00  0.00    +0.000 C 
ENDBRANCH   6  14
ENDBRANCH   2   6
ENDBRANCH   1   4
BRANCH   1  17
ATOM     17  N   UNL     1      -1.710  12.091  20.919  0.00  0.00    +0.000 N 
ATOM     18  C   UNL     1      -2.032  12.664  22.144  0.00  0.00    +0.000 C 
ATOM     19  O   UNL     1      -1.146  13.172  22.828  0.00  0.00    +0.000 OA
ATOM     20  H   UNL     1      -2.456  11.868  20.273  0.00  0.00    +0.000 HD
BRANCH  18  21
ATOM     21  C   UNL     1      -3.560  12.554  22.635  0.00  0.00    +0.000 C 
BRANCH  21  22
ATOM     22  N   UNL     1      -3.616  12.970  24.088  0.00  0.00    +0.000 NA
ATOM     23  C   UNL     1      -3.677  14.393  24.373  0.00  0.00    +0.000 C 
ATOM     24  C   UNL     1      -4.663  12.313  24.854  0.00  0.00    +0.000 C 
ENDBRANCH  21  22
BRANCH  21  25
ATOM     25  C   UNL     1      -4.551  13.335  21.592  0.00  0.00    +0.000 C 
ATOM     26  C   UNL     1      -5.613  14.129  22.420  0.00  0.00    +0.000 C 
ATOM     27  C   UNL     1      -3.795  14.479  20.838  0.00  0.00    +0.000 C 
BRANCH  25  28
ATOM     28  C   UNL     1      -5.245  12.458  20.516  0.00  0.00    +0.000 A 
ATOM     29  C   UNL     1      -4.693  12.250  19.241  0.00  0.00    +0.000 A 
ATOM     30  C   UNL     1      -5.363  11.533  18.245  0.00  0.00    +0.000 A 
ATOM     31  C   UNL     1      -6.620  11.010  18.495  0.00  0.00    +0.000 A 
ATOM     32  C   UNL     1      -7.191  11.171  19.751  0.00  0.00    +0.000 A 
ATOM     33  C   UNL     1      -6.507  11.872  20.752  0.00  0.00    +0.000 A 
ENDBRANCH  25  28
ENDBRANCH  21  25
ENDBRANCH  18  21
ENDBRANCH   1  17
BRANCH   1  34
ATOM     34  C   UNL     1      -0.077  10.575  19.617  0.00  0.00    +0.000 C 
ATOM     35  C   UNL     1       1.216  10.696  18.770  0.00  0.00    +0.000 C 
ATOM     36  C   UNL     1       0.189   9.358  20.540  0.00  0.00    +0.000 C 
ATOM     37  C   UNL     1      -1.245  10.192  18.686  0.00  0.00    +0.000 C 
ENDBRANCH   1  34
TORSDOF 12
ENDMDL
MODEL 2
REMARK VINA RESULT:      -5.7      2.983      9.271
REMARK  Name = 
REMARK  23 active torsions:
REMARK  status: ('A' for Active; 'I' for Inactive)
REMARK    1  A    between atoms: C_1  and  C_2
REMARK    2  A    between atoms: C_2  and  C_33
REMARK    3  A    between atoms: C_3  and  C_4
REMARK    4  A    between atoms: C_4  and  C_5
REMARK    5  A    between atoms: C_4  and  N_8
REMARK    6  A    between atoms: C_5  and  C_6
REMARK    7  A    between atoms: C_5  and  C_7
REMARK    8  A    between atoms: N_8  and  C_9
REMARK    9  A    between atoms: C_10  and  C_12
REMARK   10  A    between atoms: C_12  and  N_13
REMARK   11  A    between atoms: C_12  and  C_29
REMARK   12  A    between atoms: C_14  and  C_16
REMARK   13  A    between atoms: C_16  and  N_17
REMARK   14  A    between atoms: C_16  and  C_20
REMARK   15  A    between atoms: N_17  and  C_18
REMARK   16  A    between atoms: N_17  and  C_19
REMARK   17  A    between atoms: C_20  and  C_21
REMARK   18  A    between atoms: C_20  and  C_22
REMARK   19  A    between atoms: C_20  and  C_23
REMARK   20  A    between atoms: C_29  and  C_30
REMARK   21  A    between atoms: C_29  and  C_31
REMARK   22  A    between atoms: C_29  and  C_32
REMARK   23  A    between atoms: C_33  and  O_35
REMARK                            x       y       z     vdW  Elec       q    Type
REMARK                         _______ _______ _______ _____ _____    ______ ____
ROOT
ATOM      1  C   UNL     1       2.394  15.169  20.647  0.00  0.00    +0.000 C 
ENDROOT
BRANCH   1   4
ATOM      2  N   UNL     1       0.534  13.493  21.305  0.00  0.00    +0.000 N 
ATOM      3  C   UNL     1      -0.030  14.446  22.244  0.00  0.00    +0.000 C 
ATOM      4  C   UNL     1       1.714  13.752  20.586  0.00  0.00    +0.000 C 
ATOM      5  O   UNL     1       2.272  12.837  19.973  0.00  0.00    +0.000 OA
BRANCH   2   6
ATOM      6  C   UNL     1      -0.020  12.117  21.280  0.00  0.00    +0.000 C 
BRANCH   6   9
ATOM      7  C   UNL     1       0.309  10.100  18.887  0.00  0.00    +0.000 C 
ATOM      8  C   UNL     1      -0.784  11.124  19.036  0.00  0.00    +0.000 C 
ATOM      9  C   UNL     1      -0.931  11.982  20.070  0.00  0.00    +0.000 C 
BRANCH   8  10
ATOM     10  C   UNL     1      -1.804  11.044  17.941  0.00  0.00    +0.000 C 
ATOM     11  O   UNL     1      -2.864  11.634  17.989  0.00  0.00    +0.000 OA
BRANCH  10  12
ATOM     12  O   UNL     1      -1.486  10.199  16.941  0.00  0.00    +0.000 OA
ATOM     13  H   UNL     1      -1.084   9.365  17.237  0.00  0.00    +0.000 HD
ENDBRANCH  10  12
ENDBRANCH   8  10
ENDBRANCH   6   9
BRANCH   6  14
ATOM     14  C   UNL     1      -0.671  11.586  22.598  0.00  0.00    +0.000 C 
ATOM     15  C   UNL     1      -0.432  10.117  22.965  0.00  0.00    +0.000 C 
ATOM     16  C   UNL     1      -2.163  11.917  22.654  0.00  0.00    +0.000 C 
ENDBRANCH   6  14
ENDBRANCH   2   6
ENDBRANCH   1   4
BRANCH   1  17
ATOM     17  N   UNL     1       3.830  14.946  20.945  0.00  0.00    +0.000 N 
ATOM     18  C   UNL     1       4.533  15.665  21.905  0.00  0.00    +0.000 C 
ATOM     19  O   UNL     1       3.933  16.452  22.634  0.00  0.00    +0.000 OA
ATOM     20  H   UNL     1       4.279  14.159  20.498  0.00  0.00    +0.000 HD
BRANCH  18  21
ATOM     21  C   UNL     1       6.130  15.473  21.952  0.00  0.00    +0.000 C 
BRANCH  21  22
ATOM     22  N   UNL     1       6.419  14.001  22.140  0.00  0.00    +0.000 NA
ATOM     23  C   UNL     1       7.774  13.628  22.509  0.00  0.00    +0.000 C 
ATOM     24  C   UNL     1       5.505  13.328  23.049  0.00  0.00    +0.000 C 
ENDBRANCH  21  22
BRANCH  21  25
ATOM     25  C   UNL     1       6.830  16.219  20.674  0.00  0.00    +0.000 C 
ATOM     26  C   UNL     1       5.832  17.285  20.116  0.00  0.00    +0.000 C 
ATOM     27  C   UNL     1       8.041  17.101  21.124  0.00  0.00    +0.000 C 
BRANCH  25  28
ATOM     28  C   UNL     1       7.335  15.296  19.533  0.00  0.00    +0.000 A 
ATOM     29  C   UNL     1       6.482  14.790  18.538  0.00  0.00    +0.000 A 
ATOM     30  C   UNL     1       6.922  13.888  17.565  0.00  0.00    +0.000 A 
ATOM     31  C   UNL     1       8.236  13.452  17.568  0.00  0.00    +0.000 A 
ATOM     32  C   UNL     1       9.119  13.947  18.519  0.00  0.00    +0.000 A 
ATOM     33  C   UNL     1       8.678  14.867  19.480  0.00  0.00    +0.000 A 
ENDBRANCH  25  28
ENDBRANCH  21  25
ENDBRANCH  18  21
ENDBRANCH   1  17
BRANCH   1  34
ATOM     34  C   UNL     1       2.145  16.048  19.330  0.00  0.00    +0.000 C 
ATOM     35  C   UNL     1       3.143  15.622  18.222  0.00  0.00    +0.000 C 
ATOM     36  C   UNL     1       0.751  15.805  18.696  0.00  0.00    +0.000 C 
ATOM     37  C   UNL     1       2.280  17.566  19.561  0.00  0.00    +0.000 C 
ENDBRANCH   1  34
TORSDOF 12
ENDMDL
MODEL 3
REMARK VINA RESULT:      -5.6      1.511      2.441
REMARK  Name = 
REMARK  23 active torsions:
REMARK  status: ('A' for Active; 'I' for Inactive)
REMARK    1  A    between atoms: C_1  and  C_2
REMARK    2  A    between atoms: C_2  and  C_33
REMARK    3  A    between atoms: C_3  and  C_4
REMARK    4  A    between atoms: C_4  and  C_5
REMARK    5  A    between atoms: C_4  and  N_8
REMARK    6  A    between atoms: C_5  and  C_6
REMARK    7  A    between atoms: C_5  and  C_7
REMARK    8  A    between atoms: N_8  and  C_9
REMARK    9  A    between atoms: C_10  and  C_12
REMARK   10  A    between atoms: C_12  and  N_13
REMARK   11  A    between atoms: C_12  and  C_29
REMARK   12  A    between atoms: C_14  and  C_16
REMARK   13  A    between atoms: C_16  and  N_17
REMARK   14  A    between atoms: C_16  and  C_20
REMARK   15  A    between atoms: N_17  and  C_18
REMARK   16  A    between atoms: N_17  and  C_19
REMARK   17  A    between atoms: C_20  and  C_21
REMARK   18  A    between atoms: C_20  and  C_22
REMARK   19  A    between atoms: C_20  and  C_23
REMARK   20  A    between atoms: C_29  and  C_30
REMARK   21  A    between atoms: C_29  and  C_31
REMARK   22  A    between atoms: C_29  and  C_32
REMARK   23  A    between atoms: C_33  and  O_35
REMARK                            x       y       z     vdW  Elec       q    Type
REMARK                         _______ _______ _______ _____ _____    ______ ____
ROOT
ATOM      1  C   UNL     1      -0.108  13.562  21.248  0.00  0.00    +0.000 C 
ENDROOT
BRANCH   1   4
ATOM      2  N   UNL     1       1.475  15.498  20.579  0.00  0.00    +0.000 N 
ATOM      3  C   UNL     1       2.229  15.343  21.810  0.00  0.00    +0.000 C 
ATOM      4  C   UNL     1       0.324  14.741  20.300  0.00  0.00    +0.000 C 
ATOM      5  O   UNL     1      -0.405  15.056  19.355  0.00  0.00    +0.000 OA
BRANCH   2   6
ATOM      6  C   UNL     1       1.791  16.650  19.699  0.00  0.00    +0.000 C 
BRANCH   6   9
ATOM      7  C   UNL     1       3.686  15.632  17.403  0.00  0.00    +0.000 C 
ATOM      8  C   UNL     1       4.118  16.360  18.648  0.00  0.00    +0.000 C 
ATOM      9  C   UNL     1       3.302  16.806  19.628  0.00  0.00    +0.000 C 
BRANCH   8  10
ATOM     10  C   UNL     1       5.588  16.652  18.667  0.00  0.00    +0.000 C 
ATOM     11  O   UNL     1       6.035  17.745  18.951  0.00  0.00    +0.000 OA
BRANCH  10  12
ATOM     12  O   UNL     1       6.366  15.630  18.261  0.00  0.00    +0.000 OA
ATOM     13  H   UNL     1       7.163  15.497  18.801  0.00  0.00    +0.000 HD
ENDBRANCH  10  12
ENDBRANCH   8  10
ENDBRANCH   6   9
BRANCH   6  14
ATOM     14  C   UNL     1       1.049  17.994  19.991  0.00  0.00    +0.000 C 
ATOM     15  C   UNL     1       0.233  18.086  21.285  0.00  0.00    +0.000 C 
ATOM     16  C   UNL     1       0.208  18.437  18.793  0.00  0.00    +0.000 C 
ENDBRANCH   6  14
ENDBRANCH   2   6
ENDBRANCH   1   4
BRANCH   1  17
ATOM     17  N   UNL     1      -1.446  13.910  21.787  0.00  0.00    +0.000 N 
ATOM     18  C   UNL     1      -1.660  14.324  23.097  0.00  0.00    +0.000 C 
ATOM     19  O   UNL     1      -0.697  14.525  23.835  0.00  0.00    +0.000 OA
ATOM     20  H   UNL     1      -2.214  13.950  21.131  0.00  0.00    +0.000 HD
BRANCH  18  21
ATOM     21  C   UNL     1      -3.185  14.440  23.598  0.00  0.00    +0.000 C 
BRANCH  21  22
ATOM     22  N   UNL     1      -3.848  15.554  22.820  0.00  0.00    +0.000 NA
ATOM     23  C   UNL     1      -5.065  16.123  23.373  0.00  0.00    +0.000 C 
ATOM     24  C   UNL     1      -2.957  16.651  22.476  0.00  0.00    +0.000 C 
ENDBRANCH  21  22
BRANCH  21  25
ATOM     25  C   UNL     1      -3.907  12.971  23.569  0.00  0.00    +0.000 C 
ATOM     26  C   UNL     1      -2.798  11.877  23.449  0.00  0.00    +0.000 C 
ATOM     27  C   UNL     1      -4.561  12.633  24.950  0.00  0.00    +0.000 C 
BRANCH  25  28
ATOM     28  C   UNL     1      -4.997  12.764  22.484  0.00  0.00    +0.000 A 
ATOM     29  C   UNL     1      -4.688  12.634  21.120  0.00  0.00    +0.000 A 
ATOM     30  C   UNL     1      -5.677  12.537  20.136  0.00  0.00    +0.000 A 
ATOM     31  C   UNL     1      -7.015  12.581  20.491  0.00  0.00    +0.000 A 
ATOM     32  C   UNL     1      -7.363  12.683  21.832  0.00  0.00    +0.000 A 
ATOM     33  C   UNL     1      -6.369  12.760  22.816  0.00  0.00    +0.000 A 
ENDBRANCH  25  28
ENDBRANCH  21  25
ENDBRANCH  18  21
ENDBRANCH   1  17
BRANCH   1  34
ATOM     34  C   UNL     1      -0.061  12.127  20.538  0.00  0.00    +0.000 C 
ATOM     35  C   UNL     1      -1.390  11.878  19.776  0.00  0.00    +0.000 C 
ATOM     36  C   UNL     1       1.027  12.033  19.437  0.00  0.00    +0.000 C 
ATOM     37  C   UNL     1       0.177  10.957  21.513  0.00  0.00    +0.000 C 
ENDBRANCH   1  34
TORSDOF 12
ENDMDL
MODEL 4
REMARK VINA RESULT:      -5.6      2.597      8.842
REMARK  Name = 
REMARK  23 active torsions:
REMARK  status: ('A' for Active; 'I' for Inactive)
REMARK    1  A    between atoms: C_1  and  C_2
REMARK    2  A    between atoms: C_2  and  C_33
REMARK    3  A    between atoms: C_3  and  C_4
REMARK    4  A    between atoms: C_4  and  C_5
REMARK    5  A    between atoms: C_4  and  N_8
REMARK    6  A    between atoms: C_5  and  C_6
REMARK    7  A    between atoms: C_5  and  C_7
REMARK    8  A    between atoms: N_8  and  C_9
REMARK    9  A    between atoms: C_10  and  C_12
REMARK   10  A    between atoms: C_12  and  N_13
REMARK   11  A    between atoms: C_12  and  C_29
REMARK   12  A    between atoms: C_14  and  C_16
REMARK   13  A    between atoms: C_16  and  N_17
REMARK   14  A    between atoms: C_16  and  C_20
REMARK   15  A    between atoms: N_17  and  C_18
REMARK   16  A    between atoms: N_17  and  C_19
REMARK   17  A    between atoms: C_20  and  C_21
REMARK   18  A    between atoms: C_20  and  C_22
REMARK   19  A    between atoms: C_20  and  C_23
REMARK   20  A    between atoms: C_29  and  C_30
REMARK   21  A    between atoms: C_29  and  C_31
REMARK   22  A    between atoms: C_29  and  C_32
REMARK   23  A    between atoms: C_33  and  O_35
REMARK                            x       y       z     vdW  Elec       q    Type
REMARK                         _______ _______ _______ _____ _____    ______ ____
ROOT
ATOM      1  C   UNL     1      -1.376  14.287  20.487  0.00  0.00    +0.000 C 
ENDROOT
BRANCH   1   4
ATOM      2  N   UNL     1      -3.235  15.038  22.124  0.00  0.00    +0.000 N 
ATOM      3  C   UNL     1      -3.875  15.820  21.082  0.00  0.00    +0.000 C 
ATOM      4  C   UNL     1      -2.020  14.362  21.920  0.00  0.00    +0.000 C 
ATOM      5  O   UNL     1      -1.406  13.898  22.886  0.00  0.00    +0.000 OA
BRANCH   2   6
ATOM      6  C   UNL     1      -3.756  15.150  23.509  0.00  0.00    +0.000 C 
BRANCH   6   9
ATOM      7  C   UNL     1      -4.605  12.364  24.701  0.00  0.00    +0.000 C 
ATOM      8  C   UNL     1      -5.523  13.364  24.050  0.00  0.00    +0.000 C 
ATOM      9  C   UNL     1      -5.159  14.565  23.549  0.00  0.00    +0.000 C 
BRANCH   8  10
ATOM     10  C   UNL     1      -6.961  12.943  24.094  0.00  0.00    +0.000 C 
ATOM     11  O   UNL     1      -7.865  13.723  24.311  0.00  0.00    +0.000 OA
BRANCH  10  12
ATOM     12  O   UNL     1      -7.160  11.618  23.960  0.00  0.00    +0.000 OA
ATOM     13  H   UNL     1      -6.940  11.269  23.080  0.00  0.00    +0.000 HD
ENDBRANCH  10  12
ENDBRANCH   8  10
ENDBRANCH   6   9
BRANCH   6  14
ATOM     14  C   UNL     1      -3.657  16.550  24.197  0.00  0.00    +0.000 C 
ATOM     15  C   UNL     1      -2.511  16.771  25.191  0.00  0.00    +0.000 C 
ATOM     16  C   UNL     1      -4.993  16.960  24.819  0.00  0.00    +0.000 C 
ENDBRANCH   6  14
ENDBRANCH   2   6
ENDBRANCH   1   4
BRANCH   1  17
ATOM     17  N   UNL     1      -0.004  14.839  20.601  0.00  0.00    +0.000 N 
ATOM     18  C   UNL     1       0.571  15.664  19.641  0.00  0.00    +0.000 C 
ATOM     19  O   UNL     1      -0.107  16.059  18.695  0.00  0.00    +0.000 OA
ATOM     20  H   UNL     1       0.484  14.691  21.474  0.00  0.00    +0.000 HD
BRANCH  18  21
ATOM     21  C   UNL     1       2.140  15.992  19.790  0.00  0.00    +0.000 C 
BRANCH  21  22
ATOM     22  N   UNL     1       2.333  16.783  21.064  0.00  0.00    +0.000 NA
ATOM     23  C   UNL     1       3.416  17.751  21.092  0.00  0.00    +0.000 C 
ATOM     24  C   UNL     1       1.128  17.444  21.541  0.00  0.00    +0.000 C 
ENDBRANCH  21  22
BRANCH  21  25
ATOM     25  C   UNL     1       3.026  14.627  19.612  0.00  0.00    +0.000 C 
ATOM     26  C   UNL     1       2.852  13.754  20.897  0.00  0.00    +0.000 C 
ATOM     27  C   UNL     1       2.430  13.703  18.499  0.00  0.00    +0.000 C 
BRANCH  25  28
ATOM     28  C   UNL     1       4.531  14.824  19.287  0.00  0.00    +0.000 A 
ATOM     29  C   UNL     1       5.046  14.689  17.987  0.00  0.00    +0.000 A 
ATOM     30  C   UNL     1       6.414  14.779  17.713  0.00  0.00    +0.000 A 
ATOM     31  C   UNL     1       7.315  14.996  18.742  0.00  0.00    +0.000 A 
ATOM     32  C   UNL     1       6.844  15.160  20.039  0.00  0.00    +0.000 A 
ATOM     33  C   UNL     1       5.471  15.089  20.306  0.00  0.00    +0.000 A 
ENDBRANCH  25  28
ENDBRANCH  21  25
ENDBRANCH  18  21
ENDBRANCH   1  17
BRANCH   1  34
ATOM     34  C   UNL     1      -1.421  12.818  19.848  0.00  0.00    +0.000 C 
ATOM     35  C   UNL     1      -2.846  12.225  20.003  0.00  0.00    +0.000 C 
ATOM     36  C   UNL     1      -1.177  12.817  18.317  0.00  0.00    +0.000 C 
ATOM     37  C   UNL     1      -0.407  11.838  20.471  0.00  0.00    +0.000 C 
ENDBRANCH   1  34
TORSDOF 12
ENDMDL
MODEL 5
REMARK VINA RESULT:      -5.5      6.069      8.525
REMARK  Name = 
REMARK  23 active torsions:
REMARK  status: ('A' for Active; 'I' for Inactive)
REMARK    1  A    between atoms: C_1  and  C_2
REMARK    2  A    between atoms: C_2  and  C_33
REMARK    3  A    between atoms: C_3  and  C_4
REMARK    4  A    between atoms: C_4  and  C_5
REMARK    5  A    between atoms: C_4  and  N_8
REMARK    6  A    between atoms: C_5  and  C_6
REMARK    7  A    between atoms: C_5  and  C_7
REMARK    8  A    between atoms: N_8  and  C_9
REMARK    9  A    between atoms: C_10  and  C_12
REMARK   10  A    between atoms: C_12  and  N_13
REMARK   11  A    between atoms: C_12  and  C_29
REMARK   12  A    between atoms: C_14  and  C_16
REMARK   13  A    between atoms: C_16  and  N_17
REMARK   14  A    between atoms: C_16  and  C_20
REMARK   15  A    between atoms: N_17  and  C_18
REMARK   16  A    between atoms: N_17  and  C_19
REMARK   17  A    between atoms: C_20  and  C_21
REMARK   18  A    between atoms: C_20  and  C_22
REMARK   19  A    between atoms: C_20  and  C_23
REMARK   20  A    between atoms: C_29  and  C_30
REMARK   21  A    between atoms: C_29  and  C_31
REMARK   22  A    between atoms: C_29  and  C_32
REMARK   23  A    between atoms: C_33  and  O_35
REMARK                            x       y       z     vdW  Elec       q    Type
REMARK                         _______ _______ _______ _____ _____    ______ ____
ROOT
ATOM      1  C   UNL     1       2.527   6.061  19.397  0.00  0.00    +0.000 C 
ENDROOT
BRANCH   1   4
ATOM      2  N   UNL     1       4.966   5.970  18.533  0.00  0.00    +0.000 N 
ATOM      3  C   UNL     1       5.357   5.124  19.646  0.00  0.00    +0.000 C 
ATOM      4  C   UNL     1       3.670   6.501  18.410  0.00  0.00    +0.000 C 
ATOM      5  O   UNL     1       3.446   7.385  17.577  0.00  0.00    +0.000 OA
BRANCH   2   6
ATOM      6  C   UNL     1       6.026   6.480  17.629  0.00  0.00    +0.000 C 
BRANCH   6   9
ATOM      7  C   UNL     1       5.126   6.363  14.617  0.00  0.00    +0.000 C 
ATOM      8  C   UNL     1       5.971   5.339  15.328  0.00  0.00    +0.000 C 
ATOM      9  C   UNL     1       6.366   5.397  16.619  0.00  0.00    +0.000 C 
BRANCH   8  10
ATOM     10  C   UNL     1       6.444   4.247  14.417  0.00  0.00    +0.000 C 
ATOM     11  O   UNL     1       7.052   4.469  13.390  0.00  0.00    +0.000 OA
BRANCH  10  12
ATOM     12  O   UNL     1       6.066   3.008  14.786  0.00  0.00    +0.000 OA
ATOM     13  H   UNL     1       6.502   2.294  14.291  0.00  0.00    +0.000 HD
ENDBRANCH  10  12
ENDBRANCH   8  10
ENDBRANCH   6   9
BRANCH   6  14
ATOM     14  C   UNL     1       7.290   7.112  18.298  0.00  0.00    +0.000 C 
ATOM     15  C   UNL     1       8.021   8.218  17.529  0.00  0.00    +0.000 C 
ATOM     16  C   UNL     1       8.275   6.034  18.753  0.00  0.00    +0.000 C 
ENDBRANCH   6  14
ENDBRANCH   2   6
ENDBRANCH   1   4
BRANCH   1  17
ATOM     17  N   UNL     1       1.524   7.154  19.409  0.00  0.00    +0.000 N 
ATOM     18  C   UNL     1       1.466   8.130  20.397  0.00  0.00    +0.000 C 
ATOM     19  O   UNL     1       2.345   8.178  21.255  0.00  0.00    +0.000 OA
ATOM     20  H   UNL     1       0.929   7.245  18.597  0.00  0.00    +0.000 HD
BRANCH  18  21
ATOM     21  C   UNL     1       0.186   9.105  20.402  0.00  0.00    +0.000 C 
BRANCH  21  22
ATOM     22  N   UNL     1       0.054   9.697  21.787  0.00  0.00    +0.000 NA
ATOM     23  C   UNL     1      -0.759  10.892  21.928  0.00  0.00    +0.000 C 
ATOM     24  C   UNL     1      -0.368   8.744  22.802  0.00  0.00    +0.000 C 
ENDBRANCH  21  22
BRANCH  21  25
ATOM     25  C   UNL     1       0.262  10.150  19.143  0.00  0.00    +0.000 C 
ATOM     26  C   UNL     1       0.939  11.469  19.637  0.00  0.00    +0.000 C 
ATOM     27  C   UNL     1       1.264   9.651  18.050  0.00  0.00    +0.000 C 
BRANCH  25  28
ATOM     28  C   UNL     1      -1.080  10.461  18.428  0.00  0.00    +0.000 A 
ATOM     29  C   UNL     1      -2.015  11.374  18.941  0.00  0.00    +0.000 A 
ATOM     30  C   UNL     1      -3.261  11.584  18.342  0.00  0.00    +0.000 A 
ATOM     31  C   UNL     1      -3.613  10.871  17.208  0.00  0.00    +0.000 A 
ATOM     32  C   UNL     1      -2.706   9.976  16.653  0.00  0.00    +0.000 A 
ATOM     33  C   UNL     1      -1.452   9.784  17.246  0.00  0.00    +0.000 A 
ENDBRANCH  25  28
ENDBRANCH  21  25
ENDBRANCH  18  21
ENDBRANCH   1  17
BRANCH   1  34
ATOM     34  C   UNL     1       1.904   4.627  19.047  0.00  0.00    +0.000 C 
ATOM     35  C   UNL     1       1.265   4.666  17.634  0.00  0.00    +0.000 C 
ATOM     36  C   UNL     1       2.976   3.511  18.946  0.00  0.00    +0.000 C 
ATOM     37  C   UNL     1       0.842   4.148  20.057  0.00  0.00    +0.000 C 
ENDBRANCH   1  34
TORSDOF 12
ENDMDL
MODEL 6
REMARK VINA RESULT:      -5.5      3.475      5.792
REMARK  Name = 
REMARK  23 active torsions:
REMARK  status: ('A' for Active; 'I' for Inactive)
REMARK    1  A    between atoms: C_1  and  C_2
REMARK    2  A    between atoms: C_2  and  C_33
REMARK    3  A    between atoms: C_3  and  C_4
REMARK    4  A    between atoms: C_4  and  C_5
REMARK    5  A    between atoms: C_4  and  N_8
REMARK    6  A    between atoms: C_5  and  C_6
REMARK    7  A    between atoms: C_5  and  C_7
REMARK    8  A    between atoms: N_8  and  C_9
REMARK    9  A    between atoms: C_10  and  C_12
REMARK   10  A    between atoms: C_12  and  N_13
REMARK   11  A    between atoms: C_12  and  C_29
REMARK   12  A    between atoms: C_14  and  C_16
REMARK   13  A    between atoms: C_16  and  N_17
REMARK   14  A    between atoms: C_16  and  C_20
REMARK   15  A    between atoms: N_17  and  C_18
REMARK   16  A    between atoms: N_17  and  C_19
REMARK   17  A    between atoms: C_20  and  C_21
REMARK   18  A    between atoms: C_20  and  C_22
REMARK   19  A    between atoms: C_20  and  C_23
REMARK   20  A    between atoms: C_29  and  C_30
REMARK   21  A    between atoms: C_29  and  C_31
REMARK   22  A    between atoms: C_29  and  C_32
REMARK   23  A    between atoms: C_33  and  O_35
REMARK                            x       y       z     vdW  Elec       q    Type
REMARK                         _______ _______ _______ _____ _____    ______ ____
ROOT
ATOM      1  C   UNL     1      -2.461  14.355  20.870  0.00  0.00    +0.000 C 
ENDROOT
BRANCH   1   4
ATOM      2  N   UNL     1      -1.785  12.509  19.186  0.00  0.00    +0.000 N 
ATOM      3  C   UNL     1      -0.785  13.379  18.593  0.00  0.00    +0.000 C 
ATOM      4  C   UNL     1      -2.650  12.942  20.205  0.00  0.00    +0.000 C 
ATOM      5  O   UNL     1      -3.621  12.247  20.523  0.00  0.00    +0.000 OA
BRANCH   2   6
ATOM      6  C   UNL     1      -2.057  11.203  18.536  0.00  0.00    +0.000 C 
BRANCH   6   9
ATOM      7  C   UNL     1      -0.074   9.823  20.552  0.00  0.00    +0.000 C 
ATOM      8  C   UNL     1       0.128   9.958  19.066  0.00  0.00    +0.000 C 
ATOM      9  C   UNL     1      -0.730  10.542  18.200  0.00  0.00    +0.000 C 
BRANCH   8  10
ATOM     10  C   UNL     1       1.371   9.273  18.587  0.00  0.00    +0.000 C 
ATOM     11  O   UNL     1       1.883   9.520  17.514  0.00  0.00    +0.000 OA
BRANCH  10  12
ATOM     12  O   UNL     1       1.824   8.302  19.403  0.00  0.00    +0.000 OA
ATOM     13  H   UNL     1       1.979   7.450  18.961  0.00  0.00    +0.000 HD
ENDBRANCH  10  12
ENDBRANCH   8  10
ENDBRANCH   6   9
BRANCH   6  14
ATOM     14  C   UNL     1      -3.064  11.198  17.341  0.00  0.00    +0.000 C 
ATOM     15  C   UNL     1      -4.540  10.933  17.658  0.00  0.00    +0.000 C 
ATOM     16  C   UNL     1      -2.584  10.282  16.213  0.00  0.00    +0.000 C 
ENDBRANCH   6  14
ENDBRANCH   2   6
ENDBRANCH   1   4
BRANCH   1  17
ATOM     17  N   UNL     1      -3.815  14.941  21.028  0.00  0.00    +0.000 N 
ATOM     18  C   UNL     1      -4.105  16.277  20.773  0.00  0.00    +0.000 C 
ATOM     19  O   UNL     1      -3.241  17.004  20.286  0.00  0.00    +0.000 OA
ATOM     20  H   UNL     1      -4.575  14.305  21.225  0.00  0.00    +0.000 HD
BRANCH  18  21
ATOM     21  C   UNL     1      -5.557  16.817  21.210  0.00  0.00    +0.000 C 
BRANCH  21  22
ATOM     22  N   UNL     1      -6.552  16.387  20.157  0.00  0.00    +0.000 NA
ATOM     23  C   UNL     1      -7.789  17.143  20.058  0.00  0.00    +0.000 C 
ATOM     24  C   UNL     1      -5.990  16.270  18.820  0.00  0.00    +0.000 C 
ENDBRANCH  21  22
BRANCH  21  25
ATOM     25  C   UNL     1      -5.876  16.398  22.760  0.00  0.00    +0.000 C 
ATOM     26  C   UNL     1      -4.592  16.651  23.615  0.00  0.00    +0.000 C 
ATOM     27  C   UNL     1      -6.908  17.377  23.412  0.00  0.00    +0.000 C 
BRANCH  25  28
ATOM     28  C   UNL     1      -6.407  14.957  22.987  0.00  0.00    +0.000 A 
ATOM     29  C   UNL     1      -5.800  14.061  23.882  0.00  0.00    +0.000 A 
ATOM     30  C   UNL     1      -6.225  12.736  24.017  0.00  0.00    +0.000 A 
ATOM     31  C   UNL     1      -7.272  12.263  23.243  0.00  0.00    +0.000 A 
ATOM     32  C   UNL     1      -7.916  13.123  22.363  0.00  0.00    +0.000 A 
ATOM     33  C   UNL     1      -7.499  14.455  22.247  0.00  0.00    +0.000 A 
ENDBRANCH  25  28
ENDBRANCH  21  25
ENDBRANCH  18  21
ENDBRANCH   1  17
BRANCH   1  34
ATOM     34  C   UNL     1      -1.625  14.307  22.235  0.00  0.00    +0.000 C 
ATOM     35  C   UNL     1      -2.504  13.710  23.366  0.00  0.00    +0.000 C 
ATOM     36  C   UNL     1      -0.405  13.352  22.163  0.00  0.00    +0.000 C 
ATOM     37  C   UNL     1      -1.099  15.682  22.692  0.00  0.00    +0.000 C 
ENDBRANCH   1  34
TORSDOF 12
ENDMDL
MODEL 7
REMARK VINA RESULT:      -5.5      3.388      5.871
REMARK  Name = 
REMARK  23 active torsions:
REMARK  status: ('A' for Active; 'I' for Inactive)
REMARK    1  A    between atoms: C_1  and  C_2
REMARK    2  A    between atoms: C_2  and  C_33
REMARK    3  A    between atoms: C_3  and  C_4
REMARK    4  A    between atoms: C_4  and  C_5
REMARK    5  A    between atoms: C_4  and  N_8
REMARK    6  A    between atoms: C_5  and  C_6
REMARK    7  A    between atoms: C_5  and  C_7
REMARK    8  A    between atoms: N_8  and  C_9
REMARK    9  A    between atoms: C_10  and  C_12
REMARK   10  A    between atoms: C_12  and  N_13
REMARK   11  A    between atoms: C_12  and  C_29
REMARK   12  A    between atoms: C_14  and  C_16
REMARK   13  A    between atoms: C_16  and  N_17
REMARK   14  A    between atoms: C_16  and  C_20
REMARK   15  A    between atoms: N_17  and  C_18
REMARK   16  A    between atoms: N_17  and  C_19
REMARK   17  A    between atoms: C_20  and  C_21
REMARK   18  A    between atoms: C_20  and  C_22
REMARK   19  A    between atoms: C_20  and  C_23
REMARK   20  A    between atoms: C_29  and  C_30
REMARK   21  A    between atoms: C_29  and  C_31
REMARK   22  A    between atoms: C_29  and  C_32
REMARK   23  A    between atoms: C_33  and  O_35
REMARK                            x       y       z     vdW  Elec       q    Type
REMARK                         _______ _______ _______ _____ _____    ______ ____
ROOT
ATOM      1  C   UNL     1      -4.409  12.003  19.281  0.00  0.00    +0.000 C 
ENDROOT
BRANCH   1   4
ATOM      2  N   UNL     1      -1.984  11.893  20.179  0.00  0.00    +0.000 N 
ATOM      3  C   UNL     1      -2.444  12.152  21.532  0.00  0.00    +0.000 C 
ATOM      4  C   UNL     1      -2.853  11.889  19.076  0.00  0.00    +0.000 C 
ATOM      5  O   UNL     1      -2.392  11.886  17.930  0.00  0.00    +0.000 OA
BRANCH   2   6
ATOM      6  C   UNL     1      -0.522  11.867  19.926  0.00  0.00    +0.000 C 
BRANCH   6   9
ATOM      7  C   UNL     1       1.115   9.383  18.899  0.00  0.00    +0.000 C 
ATOM      8  C   UNL     1       0.793   9.697  20.336  0.00  0.00    +0.000 C 
ATOM      9  C   UNL     1       0.099  10.770  20.776  0.00  0.00    +0.000 C 
BRANCH   8  10
ATOM     10  C   UNL     1       1.418   8.729  21.294  0.00  0.00    +0.000 C 
ATOM     11  O   UNL     1       1.535   7.546  21.046  0.00  0.00    +0.000 OA
BRANCH  10  12
ATOM     12  O   UNL     1       1.761   9.261  22.483  0.00  0.00    +0.000 OA
ATOM     13  H   UNL     1       1.254  10.054  22.726  0.00  0.00    +0.000 HD
ENDBRANCH  10  12
ENDBRANCH   8  10
ENDBRANCH   6   9
BRANCH   6  14
ATOM     14  C   UNL     1       0.243  13.226  20.025  0.00  0.00    +0.000 C 
ATOM     15  C   UNL     1       1.005  13.517  21.323  0.00  0.00    +0.000 C 
ATOM     16  C   UNL     1      -0.663  14.403  19.660  0.00  0.00    +0.000 C 
ENDBRANCH   6  14
ENDBRANCH   2   6
ENDBRANCH   1   4
BRANCH   1  17
ATOM     17  N   UNL     1      -4.702  13.428  19.574  0.00  0.00    +0.000 N 
ATOM     18  C   UNL     1      -5.577  13.840  20.572  0.00  0.00    +0.000 C 
ATOM     19  O   UNL     1      -6.062  13.007  21.336  0.00  0.00    +0.000 OA
ATOM     20  H   UNL     1      -4.150  14.123  19.091  0.00  0.00    +0.000 HD
BRANCH  18  21
ATOM     21  C   UNL     1      -5.970  15.399  20.617  0.00  0.00    +0.000 C 
BRANCH  21  22
ATOM     22  N   UNL     1      -7.395  15.537  20.133  0.00  0.00    +0.000 NA
ATOM     23  C   UNL     1      -7.711  16.686  19.302  0.00  0.00    +0.000 C 
ATOM     24  C   UNL     1      -7.915  14.350  19.472  0.00  0.00    +0.000 C 
ENDBRANCH  21  22
BRANCH  21  25
ATOM     25  C   UNL     1      -5.610  16.036  22.082  0.00  0.00    +0.000 C 
ATOM     26  C   UNL     1      -5.551  17.591  21.944  0.00  0.00    +0.000 C 
ATOM     27  C   UNL     1      -6.787  15.836  23.093  0.00  0.00    +0.000 C 
BRANCH  25  28
ATOM     28  C   UNL     1      -4.324  15.500  22.765  0.00  0.00    +0.000 A 
ATOM     29  C   UNL     1      -4.360  14.668  23.896  0.00  0.00    +0.000 A 
ATOM     30  C   UNL     1      -3.200  14.260  24.562  0.00  0.00    +0.000 A 
ATOM     31  C   UNL     1      -1.960  14.689  24.119  0.00  0.00    +0.000 A 
ATOM     32  C   UNL     1      -1.878  15.493  22.989  0.00  0.00    +0.000 A 
ATOM     33  C   UNL     1      -3.042  15.882  22.313  0.00  0.00    +0.000 A 
ENDBRANCH  25  28
ENDBRANCH  21  25
ENDBRANCH  18  21
ENDBRANCH   1  17
BRANCH   1  34
ATOM     34  C   UNL     1      -5.255  11.418  18.053  0.00  0.00    +0.000 C 
ATOM     35  C   UNL     1      -6.563  10.772  18.582  0.00  0.00    +0.000 C 
ATOM     36  C   UNL     1      -5.746  12.520  17.078  0.00  0.00    +0.000 C 
ATOM     37  C   UNL     1      -4.492  10.375  17.213  0.00  0.00    +0.000 C 
ENDBRANCH   1  34
TORSDOF 12
ENDMDL
MODEL 8
REMARK VINA RESULT:      -5.4      0.983      1.334
REMARK  Name = 
REMARK  23 active torsions:
REMARK  status: ('A' for Active; 'I' for Inactive)
REMARK    1  A    between atoms: C_1  and  C_2
REMARK    2  A    between atoms: C_2  and  C_33
REMARK    3  A    between atoms: C_3  and  C_4
REMARK    4  A    between atoms: C_4  and  C_5
REMARK    5  A    between atoms: C_4  and  N_8
REMARK    6  A    between atoms: C_5  and  C_6
REMARK    7  A    between atoms: C_5  and  C_7
REMARK    8  A    between atoms: N_8  and  C_9
REMARK    9  A    between atoms: C_10  and  C_12
REMARK   10  A    between atoms: C_12  and  N_13
REMARK   11  A    between atoms: C_12  and  C_29
REMARK   12  A    between atoms: C_14  and  C_16
REMARK   13  A    between atoms: C_16  and  N_17
REMARK   14  A    between atoms: C_16  and  C_20
REMARK   15  A    between atoms: N_17  and  C_18
REMARK   16  A    between atoms: N_17  and  C_19
REMARK   17  A    between atoms: C_20  and  C_21
REMARK   18  A    between atoms: C_20  and  C_22
REMARK   19  A    between atoms: C_20  and  C_23
REMARK   20  A    between atoms: C_29  and  C_30
REMARK   21  A    between atoms: C_29  and  C_31
REMARK   22  A    between atoms: C_29  and  C_32
REMARK   23  A    between atoms: C_33  and  O_35
REMARK                            x       y       z     vdW  Elec       q    Type
REMARK                         _______ _______ _______ _____ _____    ______ ____
ROOT
ATOM      1  C   UNL     1      -0.654  12.442  20.610  0.00  0.00    +0.000 C 
ENDROOT
BRANCH   1   4
ATOM      2  N   UNL     1       0.788  14.534  20.119  0.00  0.00    +0.000 N 
ATOM      3  C   UNL     1       1.322  14.517  21.469  0.00  0.00    +0.000 C 
ATOM      4  C   UNL     1      -0.198  13.631  19.687  0.00  0.00    +0.000 C 
ATOM      5  O   UNL     1      -0.776  13.821  18.612  0.00  0.00    +0.000 OA
BRANCH   2   6
ATOM      6  C   UNL     1       1.122  15.685  19.244  0.00  0.00    +0.000 C 
BRANCH   6   9
ATOM      7  C   UNL     1       3.400  15.897  17.084  0.00  0.00    +0.000 C 
ATOM      8  C   UNL     1       3.555  16.154  18.559  0.00  0.00    +0.000 C 
ATOM      9  C   UNL     1       2.572  16.074  19.484  0.00  0.00    +0.000 C 
BRANCH   8  10
ATOM     10  C   UNL     1       4.929  16.626  18.923  0.00  0.00    +0.000 C 
ATOM     11  O   UNL     1       5.151  17.750  19.325  0.00  0.00    +0.000 OA
BRANCH  10  12
ATOM     12  O   UNL     1       5.908  15.732  18.687  0.00  0.00    +0.000 OA
ATOM     13  H   UNL     1       6.750  15.935  19.129  0.00  0.00    +0.000 HD
ENDBRANCH  10  12
ENDBRANCH   8  10
ENDBRANCH   6   9
BRANCH   6  14
ATOM     14  C   UNL     1       0.149  16.908  19.272  0.00  0.00    +0.000 C 
ATOM     15  C   UNL     1      -0.511  17.318  17.951  0.00  0.00    +0.000 C 
ATOM     16  C   UNL     1       0.795  18.118  19.948  0.00  0.00    +0.000 C 
ENDBRANCH   6  14
ENDBRANCH   2   6
ENDBRANCH   1   4
BRANCH   1  17
ATOM     17  N   UNL     1      -2.108  12.613  20.847  0.00  0.00    +0.000 N 
ATOM     18  C   UNL     1      -2.630  13.352  21.902  0.00  0.00    +0.000 C 
ATOM     19  O   UNL     1      -1.873  13.996  22.625  0.00  0.00    +0.000 OA
ATOM     20  H   UNL     1      -2.738  12.262  20.138  0.00  0.00    +0.000 HD
BRANCH  18  21
ATOM     21  C   UNL     1      -4.215  13.254  22.163  0.00  0.00    +0.000 C 
BRANCH  21  22
ATOM     22  N   UNL     1      -4.457  13.432  23.645  0.00  0.00    +0.000 NA
ATOM     23  C   UNL     1      -4.197  12.291  24.506  0.00  0.00    +0.000 C 
ATOM     24  C   UNL     1      -3.791  14.589  24.221  0.00  0.00    +0.000 C 
ENDBRANCH  21  22
BRANCH  21  25
ATOM     25  C   UNL     1      -5.023  14.251  21.146  0.00  0.00    +0.000 C 
ATOM     26  C   UNL     1      -6.199  14.913  21.934  0.00  0.00    +0.000 C 
ATOM     27  C   UNL     1      -4.150  15.488  20.751  0.00  0.00    +0.000 C 
BRANCH  25  28
ATOM     28  C   UNL     1      -5.539  13.615  19.828  0.00  0.00    +0.000 A 
ATOM     29  C   UNL     1      -5.175  12.321  19.421  0.00  0.00    +0.000 A 
ATOM     30  C   UNL     1      -5.570  11.786  18.191  0.00  0.00    +0.000 A 
ATOM     31  C   UNL     1      -6.337  12.542  17.321  0.00  0.00    +0.000 A 
ATOM     32  C   UNL     1      -6.740  13.818  17.696  0.00  0.00    +0.000 A 
ATOM     33  C   UNL     1      -6.359  14.341  18.938  0.00  0.00    +0.000 A 
ENDBRANCH  25  28
ENDBRANCH  21  25
ENDBRANCH  18  21
ENDBRANCH   1  17
BRANCH   1  34
ATOM     34  C   UNL     1      -0.269  11.001  20.025  0.00  0.00    +0.000 C 
ATOM     35  C   UNL     1       1.116  11.074  19.328  0.00  0.00    +0.000 C 
ATOM     36  C   UNL     1      -0.078   9.931  21.130  0.00  0.00    +0.000 C 
ATOM     37  C   UNL     1      -1.297  10.441  19.022  0.00  0.00    +0.000 C 
ENDBRANCH   1  34
TORSDOF 12
ENDMDL
MODEL 9
REMARK VINA RESULT:      -5.4      2.544      8.953
REMARK  Name = 
REMARK  23 active torsions:
REMARK  status: ('A' for Active; 'I' for Inactive)
REMARK    1  A    between atoms: C_1  and  C_2
REMARK    2  A    between atoms: C_2  and  C_33
REMARK    3  A    between atoms: C_3  and  C_4
REMARK    4  A    between atoms: C_4  and  C_5
REMARK    5  A    between atoms: C_4  and  N_8
REMARK    6  A    between atoms: C_5  and  C_6
REMARK    7  A    between atoms: C_5  and  C_7
REMARK    8  A    between atoms: N_8  and  C_9
REMARK    9  A    between atoms: C_10  and  C_12
REMARK   10  A    between atoms: C_12  and  N_13
REMARK   11  A    between atoms: C_12  and  C_29
REMARK   12  A    between atoms: C_14  and  C_16
REMARK   13  A    between atoms: C_16  and  N_17
REMARK   14  A    between atoms: C_16  and  C_20
REMARK   15  A    between atoms: N_17  and  C_18
REMARK   16  A    between atoms: N_17  and  C_19
REMARK   17  A    between atoms: C_20  and  C_21
REMARK   18  A    between atoms: C_20  and  C_22
REMARK   19  A    between atoms: C_20  and  C_23
REMARK   20  A    between atoms: C_29  and  C_30
REMARK   21  A    between atoms: C_29  and  C_31
REMARK   22  A    between atoms: C_29  and  C_32
REMARK   23  A    between atoms: C_33  and  O_35
REMARK                            x       y       z     vdW  Elec       q    Type
REMARK                         _______ _______ _______ _____ _____    ______ ____
ROOT
ATOM      1  C   UNL     1      -1.066  14.313  20.471  0.00  0.00    +0.000 C 
ENDROOT
BRANCH   1   4
ATOM      2  N   UNL     1      -2.898  15.044  22.146  0.00  0.00    +0.000 N 
ATOM      3  C   UNL     1      -3.492  15.924  21.155  0.00  0.00    +0.000 C 
ATOM      4  C   UNL     1      -1.716  14.324  21.903  0.00  0.00    +0.000 C 
ATOM      5  O   UNL     1      -1.132  13.768  22.839  0.00  0.00    +0.000 OA
BRANCH   2   6
ATOM      6  C   UNL     1      -3.424  15.089  23.533  0.00  0.00    +0.000 C 
BRANCH   6   9
ATOM      7  C   UNL     1      -4.347  12.285  24.621  0.00  0.00    +0.000 C 
ATOM      8  C   UNL     1      -5.235  13.324  23.991  0.00  0.00    +0.000 C 
ATOM      9  C   UNL     1      -4.839  14.533  23.535  0.00  0.00    +0.000 C 
BRANCH   8  10
ATOM     10  C   UNL     1      -6.681  12.932  24.002  0.00  0.00    +0.000 C 
ATOM     11  O   UNL     1      -7.046  11.778  24.106  0.00  0.00    +0.000 OA
BRANCH  10  12
ATOM     12  O   UNL     1      -7.538  13.951  23.801  0.00  0.00    +0.000 OA
ATOM     13  H   UNL     1      -8.148  13.818  23.056  0.00  0.00    +0.000 HD
ENDBRANCH  10  12
ENDBRANCH   8  10
ENDBRANCH   6   9
BRANCH   6  14
ATOM     14  C   UNL     1      -3.299  16.446  24.299  0.00  0.00    +0.000 C 
ATOM     15  C   UNL     1      -2.206  16.558  25.368  0.00  0.00    +0.000 C 
ATOM     16  C   UNL     1      -4.649  16.892  24.864  0.00  0.00    +0.000 C 
ENDBRANCH   6  14
ENDBRANCH   2   6
ENDBRANCH   1   4
BRANCH   1  17
ATOM     17  N   UNL     1       0.330  14.792  20.627  0.00  0.00    +0.000 N 
ATOM     18  C   UNL     1       0.837  15.903  19.963  0.00  0.00    +0.000 C 
ATOM     19  O   UNL     1       0.083  16.605  19.292  0.00  0.00    +0.000 OA
ATOM     20  H   UNL     1       0.896  14.346  21.336  0.00  0.00    +0.000 HD
BRANCH  18  21
ATOM     21  C   UNL     1       2.422  16.160  20.052  0.00  0.00    +0.000 C 
BRANCH  21  22
ATOM     22  N   UNL     1       2.947  15.428  21.266  0.00  0.00    +0.000 NA
ATOM     23  C   UNL     1       3.739  14.232  21.035  0.00  0.00    +0.000 C 
ATOM     24  C   UNL     1       3.672  16.273  22.202  0.00  0.00    +0.000 C 
ENDBRANCH  21  22
BRANCH  21  25
ATOM     25  C   UNL     1       3.134  15.835  18.614  0.00  0.00    +0.000 C 
ATOM     26  C   UNL     1       2.662  14.423  18.137  0.00  0.00    +0.000 C 
ATOM     27  C   UNL     1       2.585  16.768  17.484  0.00  0.00    +0.000 C 
BRANCH  25  28
ATOM     28  C   UNL     1       4.683  15.933  18.577  0.00  0.00    +0.000 A 
ATOM     29  C   UNL     1       5.492  14.901  18.073  0.00  0.00    +0.000 A 
ATOM     30  C   UNL     1       6.889  14.955  18.124  0.00  0.00    +0.000 A 
ATOM     31  C   UNL     1       7.519  16.047  18.696  0.00  0.00    +0.000 A 
ATOM     32  C   UNL     1       6.756  17.101  19.184  0.00  0.00    +0.000 A 
ATOM     33  C   UNL     1       5.358  17.051  19.112  0.00  0.00    +0.000 A 
ENDBRANCH  25  28
ENDBRANCH  21  25
ENDBRANCH  18  21
ENDBRANCH   1  17
BRANCH   1  34
ATOM     34  C   UNL     1      -1.174  12.893  19.737  0.00  0.00    +0.000 C 
ATOM     35  C   UNL     1      -2.635  12.378  19.810  0.00  0.00    +0.000 C 
ATOM     36  C   UNL     1      -0.879  12.975  18.216  0.00  0.00    +0.000 C 
ATOM     37  C   UNL     1      -0.240  11.816  20.324  0.00  0.00    +0.000 C 
ENDBRANCH   1  34
TORSDOF 12
ENDMDL
