MODEL 1
REMARK VINA RESULT:      -8.2      0.000      0.000
REMARK  Name = 
REMARK  9 active torsions:
REMARK  status: ('A' for Active; 'I' for Inactive)
REMARK    1  A    between atoms: C_1  and  N_2
REMARK    2  A    between atoms: N_2  and  C_3
REMARK    3  A    between atoms: N_2  and  C_4
REMARK    4  A    between atoms: C_4  and  C_5
REMARK    5  A    between atoms: C_5  and  C_6
REMARK    6  A    between atoms: C_6  and  C_7
REMARK    7  A    between atoms: C_7  and  C_8
REMARK    8  A    between atoms: C_8  and  N_9
REMARK    9  A    between atoms: C_10  and  C_12
REMARK                            x       y       z     vdW  Elec       q    Type
REMARK                         _______ _______ _______ _____ _____    ______ ____
ROOT
ATOM      1  C   UNL     1       6.545   5.128  17.271  0.00  0.00    +0.000 A 
ATOM      2  C   UNL     1       7.110   4.768  16.034  0.00  0.00    +0.000 A 
ATOM      3  C   UNL     1       6.366   4.055  15.105  0.00  0.00    +0.000 A 
ATOM      4  C   UNL     1       5.065   3.683  15.417  0.00  0.00    +0.000 A 
ATOM      5  C   UNL     1       4.503   4.016  16.663  0.00  0.00    +0.000 A 
ATOM      6  C   UNL     1       3.205   3.605  16.994  0.00  0.00    +0.000 A 
ATOM      7  C   UNL     1       2.666   3.902  18.251  0.00  0.00    +0.000 A 
ATOM      8  C   UNL     1       1.388   3.463  18.641  0.00  0.00    +0.000 A 
ATOM      9  C   UNL     1       0.901   3.759  19.913  0.00  0.00    +0.000 A 
ATOM     10  C   UNL     1       1.680   4.505  20.790  0.00  0.00    +0.000 A 
ATOM     11  C   UNL     1       2.943   4.948  20.392  0.00  0.00    +0.000 A 
ATOM     12  C   UNL     1       3.456   4.652  19.136  0.00  0.00    +0.000 A 
ATOM     13  N   UNL     1       4.688   5.078  18.815  0.00  0.00    +0.000 NA
ATOM     14  C   UNL     1       5.236   4.757  17.614  0.00  0.00    +0.000 A 
ENDROOT
BRANCH   1  16
ATOM     15  N   UNL     1       7.710   7.207  17.822  0.00  0.00    +0.000 N 
ATOM     16  C   UNL     1       7.418   5.913  18.193  0.00  0.00    +0.000 C 
ATOM     17  O   UNL     1       7.865   5.392  19.210  0.00  0.00    +0.000 OA
ATOM     18  H   UNL     1       7.105   7.615  17.109  0.00  0.00    +0.000 HD
BRANCH  15  19
ATOM     19  C   UNL     1       8.460   8.081  18.693  0.00  0.00    +0.000 C 
BRANCH  19  20
ATOM     20  C   UNL     1       8.477   9.511  18.167  0.00  0.00    +0.000 C 
BRANCH  20  21
ATOM     21  C   UNL     1       9.334  10.417  19.051  0.00  0.00    +0.000 C 
BRANCH  21  22
ATOM     22  C   UNL     1       9.277  11.865  18.562  0.00  0.00    +0.000 C 
BRANCH  22  23
ATOM     23  C   UNL     1      10.476  12.679  19.068  0.00  0.00    +0.000 C 
BRANCH  23  25
ATOM     24  C   UNL     1      11.320  13.249  16.889  0.00  0.00    +0.000 C 
ATOM     25  N   UNL     1      10.854  13.787  18.171  0.00  0.00    +0.000 NA
ATOM     26  C   UNL     1       9.749  14.719  17.937  0.00  0.00    +0.000 C 
ENDBRANCH  23  25
ENDBRANCH  22  23
ENDBRANCH  21  22
ENDBRANCH  20  21
ENDBRANCH  19  20
ENDBRANCH  15  19
ENDBRANCH   1  16
TORSDOF 7
ENDMDL
MODEL 2
REMARK VINA RESULT:      -8.1      0.795      1.043
REMARK  Name = 
REMARK  9 active torsions:
REMARK  status: ('A' for Active; 'I' for Inactive)
REMARK    1  A    between atoms: C_1  and  N_2
REMARK    2  A    between atoms: N_2  and  C_3
REMARK    3  A    between atoms: N_2  and  C_4
REMARK    4  A    between atoms: C_4  and  C_5
REMARK    5  A    between atoms: C_5  and  C_6
REMARK    6  A    between atoms: C_6  and  C_7
REMARK    7  A    between atoms: C_7  and  C_8
REMARK    8  A    between atoms: C_8  and  N_9
REMARK    9  A    between atoms: C_10  and  C_12
REMARK                            x       y       z     vdW  Elec       q    Type
REMARK                         _______ _______ _______ _____ _____    ______ ____
ROOT
ATOM      1  C   UNL     1       6.585   5.358  17.232  0.00  0.00    +0.000 A 
ATOM      2  C   UNL     1       7.173   4.971  16.014  0.00  0.00    +0.000 A 
ATOM      3  C   UNL     1       6.466   4.191  15.111  0.00  0.00    +0.000 A 
ATOM      4  C   UNL     1       5.179   3.779  15.430  0.00  0.00    +0.000 A 
ATOM      5  C   UNL     1       4.595   4.140  16.659  0.00  0.00    +0.000 A 
ATOM      6  C   UNL     1       3.312   3.690  16.999  0.00  0.00    +0.000 A 
ATOM      7  C   UNL     1       2.752   4.015  18.239  0.00  0.00    +0.000 A 
ATOM      8  C   UNL     1       1.490   3.541  18.640  0.00  0.00    +0.000 A 
ATOM      9  C   UNL     1       0.981   3.868  19.895  0.00  0.00    +0.000 A 
ATOM     10  C   UNL     1       1.723   4.681  20.745  0.00  0.00    +0.000 A 
ATOM     11  C   UNL     1       2.970   5.158  20.336  0.00  0.00    +0.000 A 
ATOM     12  C   UNL     1       3.504   4.833  19.097  0.00  0.00    +0.000 A 
ATOM     13  N   UNL     1       4.720   5.295  18.766  0.00  0.00    +0.000 NA
ATOM     14  C   UNL     1       5.289   4.948  17.582  0.00  0.00    +0.000 A 
ENDROOT
BRANCH   1  16
ATOM     15  N   UNL     1       7.703   7.488  17.680  0.00  0.00    +0.000 N 
ATOM     16  C   UNL     1       7.418   6.216  18.126  0.00  0.00    +0.000 C 
ATOM     17  O   UNL     1       7.841   5.769  19.188  0.00  0.00    +0.000 OA
ATOM     18  H   UNL     1       7.114   7.838  16.924  0.00  0.00    +0.000 HD
BRANCH  15  19
ATOM     19  C   UNL     1       8.413   8.428  18.514  0.00  0.00    +0.000 C 
BRANCH  19  20
ATOM     20  C   UNL     1       8.228   9.859  18.022  0.00  0.00    +0.000 C 
BRANCH  20  21
ATOM     21  C   UNL     1       9.435  10.727  18.378  0.00  0.00    +0.000 C 
BRANCH  21  22
ATOM     22  C   UNL     1       9.623  10.799  19.895  0.00  0.00    +0.000 C 
BRANCH  22  23
ATOM     23  C   UNL     1      10.194  12.157  20.327  0.00  0.00    +0.000 C 
BRANCH  23  25
ATOM     24  C   UNL     1       9.113  14.220  19.723  0.00  0.00    +0.000 C 
ATOM     25  N   UNL     1      10.074  13.200  19.291  0.00  0.00    +0.000 NA
ATOM     26  C   UNL     1      11.358  13.837  18.987  0.00  0.00    +0.000 C 
ENDBRANCH  23  25
ENDBRANCH  22  23
ENDBRANCH  21  22
ENDBRANCH  20  21
ENDBRANCH  19  20
ENDBRANCH  15  19
ENDBRANCH   1  16
TORSDOF 7
ENDMDL
MODEL 3
REMARK VINA RESULT:      -8.0      5.351      8.482
REMARK  Name = 
REMARK  9 active torsions:
REMARK  status: ('A' for Active; 'I' for Inactive)
REMARK    1  A    between atoms: C_1  and  N_2
REMARK    2  A    between atoms: N_2  and  C_3
REMARK    3  A    between atoms: N_2  and  C_4
REMARK    4  A    between atoms: C_4  and  C_5
REMARK    5  A    between atoms: C_5  and  C_6
REMARK    6  A    between atoms: C_6  and  C_7
REMARK    7  A    between atoms: C_7  and  C_8
REMARK    8  A    between atoms: C_8  and  N_9
REMARK    9  A    between atoms: C_10  and  C_12
REMARK                            x       y       z     vdW  Elec       q    Type
REMARK                         _______ _______ _______ _____ _____    ______ ____
ROOT
ATOM      1  C   UNL     1       2.645   6.887  19.309  0.00  0.00    +0.000 A 
ATOM      2  C   UNL     1       3.088   6.861  17.973  0.00  0.00    +0.000 A 
ATOM      3  C   UNL     1       2.816   7.923  17.124  0.00  0.00    +0.000 A 
ATOM      4  C   UNL     1       2.085   9.005  17.599  0.00  0.00    +0.000 A 
ATOM      5  C   UNL     1       1.616   9.025  18.926  0.00  0.00    +0.000 A 
ATOM      6  C   UNL     1       0.843  10.096  19.393  0.00  0.00    +0.000 A 
ATOM      7  C   UNL     1       0.342  10.092  20.700  0.00  0.00    +0.000 A 
ATOM      8  C   UNL     1      -0.480  11.122  21.191  0.00  0.00    +0.000 A 
ATOM      9  C   UNL     1      -0.979  11.065  22.491  0.00  0.00    +0.000 A 
ATOM     10  C   UNL     1      -0.645   9.990  23.307  0.00  0.00    +0.000 A 
ATOM     11  C   UNL     1       0.181   8.977  22.817  0.00  0.00    +0.000 A 
ATOM     12  C   UNL     1       0.677   9.004  21.520  0.00  0.00    +0.000 A 
ATOM     13  N   UNL     1       1.444   7.989  21.091  0.00  0.00    +0.000 NA
ATOM     14  C   UNL     1       1.898   7.963  19.811  0.00  0.00    +0.000 A 
ENDROOT
BRANCH   1  16
ATOM     15  N   UNL     1       2.007   5.164  20.924  0.00  0.00    +0.000 N 
ATOM     16  C   UNL     1       3.007   5.708  20.149  0.00  0.00    +0.000 C 
ATOM     17  O   UNL     1       4.159   5.285  20.151  0.00  0.00    +0.000 OA
ATOM     18  H   UNL     1       1.053   5.424  20.669  0.00  0.00    +0.000 HD
BRANCH  15  19
ATOM     19  C   UNL     1       2.228   3.962  21.691  0.00  0.00    +0.000 C 
BRANCH  19  20
ATOM     20  C   UNL     1       1.391   2.802  21.164  0.00  0.00    +0.000 C 
BRANCH  20  21
ATOM     21  C   UNL     1       0.576   3.219  19.940  0.00  0.00    +0.000 C 
BRANCH  21  22
ATOM     22  C   UNL     1       0.996   2.415  18.707  0.00  0.00    +0.000 C 
BRANCH  22  23
ATOM     23  C   UNL     1       1.939   3.222  17.803  0.00  0.00    +0.000 C 
BRANCH  23  25
ATOM     24  C   UNL     1       4.263   3.451  17.228  0.00  0.00    +0.000 C 
ATOM     25  N   UNL     1       3.172   2.496  17.446  0.00  0.00    +0.000 NA
ATOM     26  C   UNL     1       3.568   1.528  18.471  0.00  0.00    +0.000 C 
ENDBRANCH  23  25
ENDBRANCH  22  23
ENDBRANCH  21  22
ENDBRANCH  20  21
ENDBRANCH  19  20
ENDBRANCH  15  19
ENDBRANCH   1  16
TORSDOF 7
ENDMDL
MODEL 4
REMARK VINA RESULT:      -8.0      4.948      7.479
REMARK  Name = 
REMARK  9 active torsions:
REMARK  status: ('A' for Active; 'I' for Inactive)
REMARK    1  A    between atoms: C_1  and  N_2
REMARK    2  A    between atoms: N_2  and  C_3
REMARK    3  A    between atoms: N_2  and  C_4
REMARK    4  A    between atoms: C_4  and  C_5
REMARK    5  A    between atoms: C_5  and  C_6
REMARK    6  A    between atoms: C_6  and  C_7
REMARK    7  A    between atoms: C_7  and  C_8
REMARK    8  A    between atoms: C_8  and  N_9
REMARK    9  A    between atoms: C_10  and  C_12
REMARK                            x       y       z     vdW  Elec       q    Type
REMARK                         _______ _______ _______ _____ _____    ______ ____
ROOT
ATOM      1  C   UNL     1       2.276   6.045  19.649  0.00  0.00    +0.000 A 
ATOM      2  C   UNL     1       1.553   5.326  20.619  0.00  0.00    +0.000 A 
ATOM      3  C   UNL     1       1.697   3.950  20.722  0.00  0.00    +0.000 A 
ATOM      4  C   UNL     1       2.547   3.287  19.846  0.00  0.00    +0.000 A 
ATOM      5  C   UNL     1       3.251   3.997  18.856  0.00  0.00    +0.000 A 
ATOM      6  C   UNL     1       4.076   3.324  17.945  0.00  0.00    +0.000 A 
ATOM      7  C   UNL     1       4.742   4.028  16.936  0.00  0.00    +0.000 A 
ATOM      8  C   UNL     1       5.537   3.384  15.971  0.00  0.00    +0.000 A 
ATOM      9  C   UNL     1       6.160   4.122  14.967  0.00  0.00    +0.000 A 
ATOM     10  C   UNL     1       6.005   5.504  14.933  0.00  0.00    +0.000 A 
ATOM     11  C   UNL     1       5.224   6.138  15.901  0.00  0.00    +0.000 A 
ATOM     12  C   UNL     1       4.580   5.422  16.902  0.00  0.00    +0.000 A 
ATOM     13  N   UNL     1       3.818   6.079  17.790  0.00  0.00    +0.000 NA
ATOM     14  C   UNL     1       3.134   5.399  18.746  0.00  0.00    +0.000 A 
ENDROOT
BRANCH   1  16
ATOM     15  N   UNL     1       2.010   8.131  18.398  0.00  0.00    +0.000 N 
ATOM     16  C   UNL     1       2.069   7.523  19.632  0.00  0.00    +0.000 C 
ATOM     17  O   UNL     1       1.991   8.145  20.688  0.00  0.00    +0.000 OA
ATOM     18  H   UNL     1       1.839   7.512  17.604  0.00  0.00    +0.000 HD
BRANCH  15  19
ATOM     19  C   UNL     1       1.711   9.537  18.272  0.00  0.00    +0.000 C 
BRANCH  19  20
ATOM     20  C   UNL     1       0.218   9.774  18.080  0.00  0.00    +0.000 C 
BRANCH  20  21
ATOM     21  C   UNL     1      -0.289  10.884  19.001  0.00  0.00    +0.000 C 
BRANCH  21  22
ATOM     22  C   UNL     1      -0.471  10.364  20.428  0.00  0.00    +0.000 C 
BRANCH  22  23
ATOM     23  C   UNL     1       0.067  11.362  21.464  0.00  0.00    +0.000 C 
BRANCH  23  25
ATOM     24  C   UNL     1      -1.691  11.494  23.100  0.00  0.00    +0.000 C 
ATOM     25  N   UNL     1      -0.321  11.035  22.849  0.00  0.00    +0.000 NA
ATOM     26  C   UNL     1      -0.225   9.602  23.135  0.00  0.00    +0.000 C 
ENDBRANCH  23  25
ENDBRANCH  22  23
ENDBRANCH  21  22
ENDBRANCH  20  21
ENDBRANCH  19  20
ENDBRANCH  15  19
ENDBRANCH   1  16
TORSDOF 7
ENDMDL
MODEL 5
REMARK VINA RESULT:      -7.7      4.906      7.434
REMARK  Name = 
REMARK  9 active torsions:
REMARK  status: ('A' for Active; 'I' for Inactive)
REMARK    1  A    between atoms: C_1  and  N_2
REMARK    2  A    between atoms: N_2  and  C_3
REMARK    3  A    between atoms: N_2  and  C_4
REMARK    4  A    between atoms: C_4  and  C_5
REMARK    5  A    between atoms: C_5  and  C_6
REMARK    6  A    between atoms: C_6  and  C_7
REMARK    7  A    between atoms: C_7  and  C_8
REMARK    8  A    between atoms: C_8  and  N_9
REMARK    9  A    between atoms: C_10  and  C_12
REMARK                            x       y       z     vdW  Elec       q    Type
REMARK                         _______ _______ _______ _____ _____    ______ ____
ROOT
ATOM      1  C   UNL     1       3.634   3.946  19.127  0.00  0.00    +0.000 A 
ATOM      2  C   UNL     1       3.568   2.872  20.034  0.00  0.00    +0.000 A 
ATOM      3  C   UNL     1       2.790   2.968  21.178  0.00  0.00    +0.000 A 
ATOM      4  C   UNL     1       2.091   4.141  21.430  0.00  0.00    +0.000 A 
ATOM      5  C   UNL     1       2.174   5.229  20.540  0.00  0.00    +0.000 A 
ATOM      6  C   UNL     1       1.502   6.427  20.814  0.00  0.00    +0.000 A 
ATOM      7  C   UNL     1       1.621   7.521  19.949  0.00  0.00    +0.000 A 
ATOM      8  C   UNL     1       1.005   8.758  20.214  0.00  0.00    +0.000 A 
ATOM      9  C   UNL     1       1.172   9.828  19.338  0.00  0.00    +0.000 A 
ATOM     10  C   UNL     1       1.939   9.663  18.190  0.00  0.00    +0.000 A 
ATOM     11  C   UNL     1       2.537   8.429  17.927  0.00  0.00    +0.000 A 
ATOM     12  C   UNL     1       2.398   7.352  18.793  0.00  0.00    +0.000 A 
ATOM     13  N   UNL     1       3.019   6.197  18.505  0.00  0.00    +0.000 NA
ATOM     14  C   UNL     1       2.944   5.145  19.361  0.00  0.00    +0.000 A 
ENDROOT
BRANCH   1  16
ATOM     15  N   UNL     1       5.538   4.601  17.738  0.00  0.00    +0.000 N 
ATOM     16  C   UNL     1       4.480   3.737  17.916  0.00  0.00    +0.000 C 
ATOM     17  O   UNL     1       4.202   2.848  17.116  0.00  0.00    +0.000 OA
ATOM     18  H   UNL     1       5.825   5.129  18.562  0.00  0.00    +0.000 HD
BRANCH  15  19
ATOM     19  C   UNL     1       6.476   4.419  16.656  0.00  0.00    +0.000 C 
BRANCH  19  20
ATOM     20  C   UNL     1       6.113   5.282  15.453  0.00  0.00    +0.000 C 
BRANCH  20  21
ATOM     21  C   UNL     1       5.651   4.424  14.276  0.00  0.00    +0.000 C 
BRANCH  21  22
ATOM     22  C   UNL     1       6.841   3.995  13.416  0.00  0.00    +0.000 C 
BRANCH  22  23
ATOM     23  C   UNL     1       6.408   3.655  11.983  0.00  0.00    +0.000 C 
BRANCH  23  25
ATOM     24  C   UNL     1       4.208   3.059  11.214  0.00  0.00    +0.000 C 
ATOM     25  N   UNL     1       5.403   2.577  11.914  0.00  0.00    +0.000 NA
ATOM     26  C   UNL     1       5.912   1.379  11.245  0.00  0.00    +0.000 C 
ENDBRANCH  23  25
ENDBRANCH  22  23
ENDBRANCH  21  22
ENDBRANCH  20  21
ENDBRANCH  19  20
ENDBRANCH  15  19
ENDBRANCH   1  16
TORSDOF 7
ENDMDL
MODEL 6
REMARK VINA RESULT:      -7.7      1.169      1.453
REMARK  Name = 
REMARK  9 active torsions:
REMARK  status: ('A' for Active; 'I' for Inactive)
REMARK    1  A    between atoms: C_1  and  N_2
REMARK    2  A    between atoms: N_2  and  C_3
REMARK    3  A    between atoms: N_2  and  C_4
REMARK    4  A    between atoms: C_4  and  C_5
REMARK    5  A    between atoms: C_5  and  C_6
REMARK    6  A    between atoms: C_6  and  C_7
REMARK    7  A    between atoms: C_7  and  C_8
REMARK    8  A    between atoms: C_8  and  N_9
REMARK    9  A    between atoms: C_10  and  C_12
REMARK                            x       y       z     vdW  Elec       q    Type
REMARK                         _______ _______ _______ _____ _____    ______ ____
ROOT
ATOM      1  C   UNL     1       6.671   5.625  17.065  0.00  0.00    +0.000 A 
ATOM      2  C   UNL     1       7.274   5.224  15.858  0.00  0.00    +0.000 A 
ATOM      3  C   UNL     1       6.592   4.401  14.975  0.00  0.00    +0.000 A 
ATOM      4  C   UNL     1       5.316   3.960  15.302  0.00  0.00    +0.000 A 
ATOM      5  C   UNL     1       4.719   4.336  16.519  0.00  0.00    +0.000 A 
ATOM      6  C   UNL     1       3.449   3.858  16.868  0.00  0.00    +0.000 A 
ATOM      7  C   UNL     1       2.876   4.199  18.099  0.00  0.00    +0.000 A 
ATOM      8  C   UNL     1       1.627   3.699  18.509  0.00  0.00    +0.000 A 
ATOM      9  C   UNL     1       1.106   4.044  19.755  0.00  0.00    +0.000 A 
ATOM     10  C   UNL     1       1.821   4.900  20.585  0.00  0.00    +0.000 A 
ATOM     11  C   UNL     1       3.055   5.402  20.166  0.00  0.00    +0.000 A 
ATOM     12  C   UNL     1       3.602   5.060  18.936  0.00  0.00    +0.000 A 
ATOM     13  N   UNL     1       4.805   5.549  18.596  0.00  0.00    +0.000 NA
ATOM     14  C   UNL     1       5.387   5.188  17.423  0.00  0.00    +0.000 A 
ENDROOT
BRANCH   1  16
ATOM     15  N   UNL     1       7.595   7.842  17.535  0.00  0.00    +0.000 N 
ATOM     16  C   UNL     1       7.477   6.529  17.938  0.00  0.00    +0.000 C 
ATOM     17  O   UNL     1       8.023   6.087  18.944  0.00  0.00    +0.000 OA
ATOM     18  H   UNL     1       6.917   8.158  16.841  0.00  0.00    +0.000 HD
BRANCH  15  19
ATOM     19  C   UNL     1       8.265   8.818  18.361  0.00  0.00    +0.000 C 
BRANCH  19  20
ATOM     20  C   UNL     1       8.554  10.098  17.588  0.00  0.00    +0.000 C 
BRANCH  20  21
ATOM     21  C   UNL     1       9.685  10.895  18.238  0.00  0.00    +0.000 C 
BRANCH  21  22
ATOM     22  C   UNL     1       9.173  12.239  18.758  0.00  0.00    +0.000 C 
BRANCH  22  23
ATOM     23  C   UNL     1       8.385  12.998  17.681  0.00  0.00    +0.000 C 
BRANCH  23  25
ATOM     24  C   UNL     1       6.537  14.536  17.753  0.00  0.00    +0.000 C 
ATOM     25  N   UNL     1       7.945  14.338  18.111  0.00  0.00    +0.000 NA
ATOM     26  C   UNL     1       8.117  14.550  19.549  0.00  0.00    +0.000 C 
ENDBRANCH  23  25
ENDBRANCH  22  23
ENDBRANCH  21  22
ENDBRANCH  20  21
ENDBRANCH  19  20
ENDBRANCH  15  19
ENDBRANCH   1  16
TORSDOF 7
ENDMDL
MODEL 7
REMARK VINA RESULT:      -7.7      4.265      6.980
REMARK  Name = 
REMARK  9 active torsions:
REMARK  status: ('A' for Active; 'I' for Inactive)
REMARK    1  A    between atoms: C_1  and  N_2
REMARK    2  A    between atoms: N_2  and  C_3
REMARK    3  A    between atoms: N_2  and  C_4
REMARK    4  A    between atoms: C_4  and  C_5
REMARK    5  A    between atoms: C_5  and  C_6
REMARK    6  A    between atoms: C_6  and  C_7
REMARK    7  A    between atoms: C_7  and  C_8
REMARK    8  A    between atoms: C_8  and  N_9
REMARK    9  A    between atoms: C_10  and  C_12
REMARK                            x       y       z     vdW  Elec       q    Type
REMARK                         _______ _______ _______ _____ _____    ______ ____
ROOT
ATOM      1  C   UNL     1       3.802   7.235  17.687  0.00  0.00    +0.000 A 
ATOM      2  C   UNL     1       3.166   8.472  17.473  0.00  0.00    +0.000 A 
ATOM      3  C   UNL     1       2.093   8.854  18.266  0.00  0.00    +0.000 A 
ATOM      4  C   UNL     1       1.641   7.995  19.260  0.00  0.00    +0.000 A 
ATOM      5  C   UNL     1       2.257   6.745  19.460  0.00  0.00    +0.000 A 
ATOM      6  C   UNL     1       1.776   5.861  20.435  0.00  0.00    +0.000 A 
ATOM      7  C   UNL     1       2.363   4.602  20.602  0.00  0.00    +0.000 A 
ATOM      8  C   UNL     1       1.877   3.665  21.533  0.00  0.00    +0.000 A 
ATOM      9  C   UNL     1       2.476   2.413  21.648  0.00  0.00    +0.000 A 
ATOM     10  C   UNL     1       3.569   2.098  20.848  0.00  0.00    +0.000 A 
ATOM     11  C   UNL     1       4.053   3.037  19.935  0.00  0.00    +0.000 A 
ATOM     12  C   UNL     1       3.463   4.286  19.791  0.00  0.00    +0.000 A 
ATOM     13  N   UNL     1       3.952   5.139  18.878  0.00  0.00    +0.000 NA
ATOM     14  C   UNL     1       3.361   6.346  18.678  0.00  0.00    +0.000 A 
ENDROOT
BRANCH   1  16
ATOM     15  N   UNL     1       6.119   6.500  17.408  0.00  0.00    +0.000 N 
ATOM     16  C   UNL     1       4.960   6.926  16.797  0.00  0.00    +0.000 C 
ATOM     17  O   UNL     1       4.863   7.083  15.584  0.00  0.00    +0.000 OA
ATOM     18  H   UNL     1       6.022   6.172  18.369  0.00  0.00    +0.000 HD
BRANCH  15  19
ATOM     19  C   UNL     1       7.260   6.078  16.631  0.00  0.00    +0.000 C 
BRANCH  19  20
ATOM     20  C   UNL     1       7.058   4.680  16.059  0.00  0.00    +0.000 C 
BRANCH  20  21
ATOM     21  C   UNL     1       7.114   4.693  14.532  0.00  0.00    +0.000 C 
BRANCH  21  22
ATOM     22  C   UNL     1       5.947   3.900  13.939  0.00  0.00    +0.000 C 
BRANCH  22  23
ATOM     23  C   UNL     1       6.201   3.536  12.470  0.00  0.00    +0.000 C 
BRANCH  23  25
ATOM     24  C   UNL     1       4.216   3.115  11.178  0.00  0.00    +0.000 C 
ATOM     25  N   UNL     1       5.292   2.494  11.958  0.00  0.00    +0.000 NA
ATOM     26  C   UNL     1       5.984   1.503  11.132  0.00  0.00    +0.000 C 
ENDBRANCH  23  25
ENDBRANCH  22  23
ENDBRANCH  21  22
ENDBRANCH  20  21
ENDBRANCH  19  20
ENDBRANCH  15  19
ENDBRANCH   1  16
TORSDOF 7
ENDMDL
MODEL 8
REMARK VINA RESULT:      -7.6      4.364      7.764
REMARK  Name = 
REMARK  9 active torsions:
REMARK  status: ('A' for Active; 'I' for Inactive)
REMARK    1  A    between atoms: C_1  and  N_2
REMARK    2  A    between atoms: N_2  and  C_3
REMARK    3  A    between atoms: N_2  and  C_4
REMARK    4  A    between atoms: C_4  and  C_5
REMARK    5  A    between atoms: C_5  and  C_6
REMARK    6  A    between atoms: C_6  and  C_7
REMARK    7  A    between atoms: C_7  and  C_8
REMARK    8  A    between atoms: C_8  and  N_9
REMARK    9  A    between atoms: C_10  and  C_12
REMARK                            x       y       z     vdW  Elec       q    Type
REMARK                         _______ _______ _______ _____ _____    ______ ____
ROOT
ATOM      1  C   UNL     1       5.392   4.252  18.155  0.00  0.00    +0.000 A 
ATOM      2  C   UNL     1       5.875   4.911  19.301  0.00  0.00    +0.000 A 
ATOM      3  C   UNL     1       6.887   5.853  19.192  0.00  0.00    +0.000 A 
ATOM      4  C   UNL     1       7.432   6.126  17.944  0.00  0.00    +0.000 A 
ATOM      5  C   UNL     1       6.972   5.450  16.799  0.00  0.00    +0.000 A 
ATOM      6  C   UNL     1       7.550   5.695  15.546  0.00  0.00    +0.000 A 
ATOM      7  C   UNL     1       7.119   4.990  14.416  0.00  0.00    +0.000 A 
ATOM      8  C   UNL     1       7.708   5.168  13.151  0.00  0.00    +0.000 A 
ATOM      9  C   UNL     1       7.265   4.426  12.059  0.00  0.00    +0.000 A 
ATOM     10  C   UNL     1       6.225   3.518  12.222  0.00  0.00    +0.000 A 
ATOM     11  C   UNL     1       5.637   3.355  13.478  0.00  0.00    +0.000 A 
ATOM     12  C   UNL     1       6.071   4.072  14.585  0.00  0.00    +0.000 A 
ATOM     13  N   UNL     1       5.489   3.855  15.775  0.00  0.00    +0.000 NA
ATOM     14  C   UNL     1       5.931   4.502  16.884  0.00  0.00    +0.000 A 
ENDROOT
BRANCH   1  16
ATOM     15  N   UNL     1       3.095   3.524  17.731  0.00  0.00    +0.000 N 
ATOM     16  C   UNL     1       4.287   3.272  18.373  0.00  0.00    +0.000 C 
ATOM     17  O   UNL     1       4.454   2.313  19.121  0.00  0.00    +0.000 OA
ATOM     18  H   UNL     1       3.137   4.188  16.958  0.00  0.00    +0.000 HD
BRANCH  15  19
ATOM     19  C   UNL     1       2.001   2.584  17.794  0.00  0.00    +0.000 C 
BRANCH  19  20
ATOM     20  C   UNL     1       0.898   3.075  18.723  0.00  0.00    +0.000 C 
BRANCH  20  21
ATOM     21  C   UNL     1       1.291   2.901  20.190  0.00  0.00    +0.000 C 
BRANCH  21  22
ATOM     22  C   UNL     1       1.188   4.230  20.941  0.00  0.00    +0.000 C 
BRANCH  22  23
ATOM     23  C   UNL     1       2.306   5.198  20.530  0.00  0.00    +0.000 C 
BRANCH  23  25
ATOM     24  C   UNL     1       1.545   7.456  20.859  0.00  0.00    +0.000 C 
ATOM     25  N   UNL     1       1.811   6.416  19.861  0.00  0.00    +0.000 NA
ATOM     26  C   UNL     1       2.750   6.927  18.860  0.00  0.00    +0.000 C 
ENDBRANCH  23  25
ENDBRANCH  22  23
ENDBRANCH  21  22
ENDBRANCH  20  21
ENDBRANCH  19  20
ENDBRANCH  15  19
ENDBRANCH   1  16
TORSDOF 7
ENDMDL
MODEL 9
REMARK VINA RESULT:      -7.6      4.501      7.659
REMARK  Name = 
REMARK  9 active torsions:
REMARK  status: ('A' for Active; 'I' for Inactive)
REMARK    1  A    between atoms: C_1  and  N_2
REMARK    2  A    between atoms: N_2  and  C_3
REMARK    3  A    between atoms: N_2  and  C_4
REMARK    4  A    between atoms: C_4  and  C_5
REMARK    5  A    between atoms: C_5  and  C_6
REMARK    6  A    between atoms: C_6  and  C_7
REMARK    7  A    between atoms: C_7  and  C_8
REMARK    8  A    between atoms: C_8  and  N_9
REMARK    9  A    between atoms: C_10  and  C_12
REMARK                            x       y       z     vdW  Elec       q    Type
REMARK                         _______ _______ _______ _____ _____    ______ ____
ROOT
ATOM      1  C   UNL     1       4.977   4.455  17.954  0.00  0.00    +0.000 A 
ATOM      2  C   UNL     1       5.553   4.975  19.128  0.00  0.00    +0.000 A 
ATOM      3  C   UNL     1       6.766   5.645  19.076  0.00  0.00    +0.000 A 
ATOM      4  C   UNL     1       7.416   5.782  17.856  0.00  0.00    +0.000 A 
ATOM      5  C   UNL     1       6.858   5.241  16.682  0.00  0.00    +0.000 A 
ATOM      6  C   UNL     1       7.534   5.342  15.459  0.00  0.00    +0.000 A 
ATOM      7  C   UNL     1       6.996   4.766  14.302  0.00  0.00    +0.000 A 
ATOM      8  C   UNL     1       7.667   4.800  13.066  0.00  0.00    +0.000 A 
ATOM      9  C   UNL     1       7.107   4.191  11.945  0.00  0.00    +0.000 A 
ATOM     10  C   UNL     1       5.873   3.561  12.052  0.00  0.00    +0.000 A 
ATOM     11  C   UNL     1       5.207   3.541  13.279  0.00  0.00    +0.000 A 
ATOM     12  C   UNL     1       5.752   4.128  14.413  0.00  0.00    +0.000 A 
ATOM     13  N   UNL     1       5.082   4.054  15.574  0.00  0.00    +0.000 NA
ATOM     14  C   UNL     1       5.617   4.572  16.710  0.00  0.00    +0.000 A 
ENDROOT
BRANCH   1  16
ATOM     15  N   UNL     1       3.631   2.650  18.911  0.00  0.00    +0.000 N 
ATOM     16  C   UNL     1       3.660   3.771  18.110  0.00  0.00    +0.000 C 
ATOM     17  O   UNL     1       2.672   4.193  17.515  0.00  0.00    +0.000 OA
ATOM     18  H   UNL     1       4.425   2.532  19.541  0.00  0.00    +0.000 HD
BRANCH  15  19
ATOM     19  C   UNL     1       2.389   1.978  19.209  0.00  0.00    +0.000 C 
BRANCH  19  20
ATOM     20  C   UNL     1       1.873   2.348  20.595  0.00  0.00    +0.000 C 
BRANCH  20  21
ATOM     21  C   UNL     1       1.016   3.613  20.548  0.00  0.00    +0.000 C 
BRANCH  21  22
ATOM     22  C   UNL     1       1.841   4.843  20.932  0.00  0.00    +0.000 C 
BRANCH  22  23
ATOM     23  C   UNL     1       1.112   6.145  20.571  0.00  0.00    +0.000 C 
BRANCH  23  25
ATOM     24  C   UNL     1       2.417   7.379  18.971  0.00  0.00    +0.000 C 
ATOM     25  N   UNL     1       2.020   7.292  20.380  0.00  0.00    +0.000 NA
ATOM     26  C   UNL     1       1.417   8.559  20.797  0.00  0.00    +0.000 C 
ENDBRANCH  23  25
ENDBRANCH  22  23
ENDBRANCH  21  22
ENDBRANCH  20  21
ENDBRANCH  19  20
ENDBRANCH  15  19
ENDBRANCH   1  16
TORSDOF 7
ENDMDL
