MODEL 1
REMARK VINA RESULT:      -8.3      0.000      0.000
REMARK  Name = 
REMARK  4 active torsions:
REMARK  status: ('A' for Active; 'I' for Inactive)
REMARK    1  A    between atoms: C_2  and  C_14
REMARK    2  A    between atoms: N_3  and  C_4
REMARK    3  A    between atoms: C_8  and  O_9
REMARK    4  A    between atoms: O_9  and  C_10
REMARK                            x       y       z     vdW  Elec       q    Type
REMARK                         _______ _______ _______ _____ _____    ______ ____
ROOT
ATOM      1  O   UNL     1       3.144   7.570  17.332  0.00  0.00    +0.000 OA
ATOM      2  C   UNL     1       3.582   6.600  17.935  0.00  0.00    +0.000 C 
ATOM      3  N   UNL     1       4.859   6.094  17.761  0.00  0.00    +0.000 N 
ATOM      4  H   UNL     1       5.213   5.450  18.457  0.00  0.00    +0.000 HD
ENDROOT
BRANCH   2   5
ATOM      5  C   UNL     1       2.752   5.877  18.926  0.00  0.00    +0.000 A 
ATOM      6  C   UNL     1       2.283   6.592  20.014  0.00  0.00    +0.000 A 
ATOM      7  N   UNL     1       1.409   6.076  20.890  0.00  0.00    +0.000 NA
ATOM      8  N   UNL     1       0.965   4.802  20.703  0.00  0.00    +0.000 NA
ATOM      9  C   UNL     1       1.431   4.040  19.699  0.00  0.00    +0.000 A 
ATOM     10  C   UNL     1       0.944   2.745  19.553  0.00  0.00    +0.000 A 
ATOM     11  C   UNL     1       1.406   1.892  18.550  0.00  0.00    +0.000 A 
ATOM     12  C   UNL     1       2.390   2.333  17.678  0.00  0.00    +0.000 A 
ATOM     13  C   UNL     1       2.868   3.639  17.784  0.00  0.00    +0.000 A 
ATOM     14  C   UNL     1       2.380   4.523  18.781  0.00  0.00    +0.000 A 
ENDBRANCH   2   5
BRANCH   3  15
ATOM     15  C   UNL     1       5.825   6.655  16.813  0.00  0.00    +0.000 C 
ATOM     16  C   UNL     1       7.250   6.203  17.182  0.00  0.00    +0.000 C 
ATOM     17  C   UNL     1       7.465   4.701  16.967  0.00  0.00    +0.000 C 
ATOM     18  C   UNL     1       7.014   4.222  15.589  0.00  0.00    +0.000 C 
ATOM     19  C   UNL     1       5.606   4.710  15.228  0.00  0.00    +0.000 C 
ATOM     20  C   UNL     1       5.536   6.234  15.366  0.00  0.00    +0.000 C 
BRANCH  19  21
ATOM     21  O   UNL     1       5.264   4.361  13.889  0.00  0.00    +0.000 OA
BRANCH  21  22
ATOM     22  C   UNL     1       6.276   3.615  13.238  0.00  0.00    +0.000 C 
ATOM     23  F   UNL     1       5.709   2.724  12.387  0.00  0.00    +0.000 F 
ATOM     24  F   UNL     1       7.001   4.472  12.486  0.00  0.00    +0.000 F 
ENDBRANCH  21  22
ENDBRANCH  19  21
ENDBRANCH   3  15
TORSDOF 4
ENDMDL
MODEL 2
REMARK VINA RESULT:      -7.7      3.764      5.508
REMARK  Name = 
REMARK  4 active torsions:
REMARK  status: ('A' for Active; 'I' for Inactive)
REMARK    1  A    between atoms: C_2  and  C_14
REMARK    2  A    between atoms: N_3  and  C_4
REMARK    3  A    between atoms: C_8  and  O_9
REMARK    4  A    between atoms: O_9  and  C_10
REMARK                            x       y       z     vdW  Elec       q    Type
REMARK                         _______ _______ _______ _____ _____    ______ ____
ROOT
ATOM      1  O   UNL     1       1.653   5.957  20.618  0.00  0.00    +0.000 OA
ATOM      2  C   UNL     1       2.280   6.610  19.794  0.00  0.00    +0.000 C 
ATOM      3  N   UNL     1       3.399   6.143  19.127  0.00  0.00    +0.000 N 
ATOM      4  H   UNL     1       3.709   6.649  18.307  0.00  0.00    +0.000 HD
ENDROOT
BRANCH   2   5
ATOM      5  C   UNL     1       1.871   7.989  19.441  0.00  0.00    +0.000 A 
ATOM      6  C   UNL     1       2.104   8.416  18.145  0.00  0.00    +0.000 A 
ATOM      7  N   UNL     1       1.646   9.587  17.681  0.00  0.00    +0.000 NA
ATOM      8  N   UNL     1       0.925  10.388  18.515  0.00  0.00    +0.000 NA
ATOM      9  C   UNL     1       0.719  10.053  19.800  0.00  0.00    +0.000 A 
ATOM     10  C   UNL     1      -0.023  10.908  20.608  0.00  0.00    +0.000 A 
ATOM     11  C   UNL     1      -0.250  10.635  21.958  0.00  0.00    +0.000 A 
ATOM     12  C   UNL     1       0.290   9.489  22.523  0.00  0.00    +0.000 A 
ATOM     13  C   UNL     1       1.010   8.602  21.724  0.00  0.00    +0.000 A 
ATOM     14  C   UNL     1       1.217   8.856  20.343  0.00  0.00    +0.000 A 
ENDBRANCH   2   5
BRANCH   3  15
ATOM     15  C   UNL     1       3.974   4.814  19.351  0.00  0.00    +0.000 C 
ATOM     16  C   UNL     1       3.462   3.830  18.284  0.00  0.00    +0.000 C 
ATOM     17  C   UNL     1       3.998   4.150  16.884  0.00  0.00    +0.000 C 
ATOM     18  C   UNL     1       5.512   4.346  16.852  0.00  0.00    +0.000 C 
ATOM     19  C   UNL     1       6.004   5.304  17.943  0.00  0.00    +0.000 C 
ATOM     20  C   UNL     1       5.508   4.826  19.311  0.00  0.00    +0.000 C 
BRANCH  19  21
ATOM     21  O   UNL     1       7.428   5.365  17.975  0.00  0.00    +0.000 OA
BRANCH  21  22
ATOM     22  C   UNL     1       7.927   5.985  19.146  0.00  0.00    +0.000 C 
ATOM     23  F   UNL     1       8.845   5.177  19.733  0.00  0.00    +0.000 F 
ATOM     24  F   UNL     1       8.575   7.111  18.773  0.00  0.00    +0.000 F 
ENDBRANCH  21  22
ENDBRANCH  19  21
ENDBRANCH   3  15
TORSDOF 4
ENDMDL
MODEL 3
REMARK VINA RESULT:      -7.6      3.649      5.434
REMARK  Name = 
REMARK  4 active torsions:
REMARK  status: ('A' for Active; 'I' for Inactive)
REMARK    1  A    between atoms: C_2  and  C_14
REMARK    2  A    between atoms: N_3  and  C_4
REMARK    3  A    between atoms: C_8  and  O_9
REMARK    4  A    between atoms: O_9  and  C_10
REMARK                            x       y       z     vdW  Elec       q    Type
REMARK                         _______ _______ _______ _____ _____    ______ ____
ROOT
ATOM      1  O   UNL     1       1.627   6.019  20.733  0.00  0.00    +0.000 OA
ATOM      2  C   UNL     1       2.245   6.750  19.972  0.00  0.00    +0.000 C 
ATOM      3  N   UNL     1       3.431   6.396  19.353  0.00  0.00    +0.000 N 
ATOM      4  H   UNL     1       3.746   6.957  18.572  0.00  0.00    +0.000 HD
ENDROOT
BRANCH   2   5
ATOM      5  C   UNL     1       1.752   8.109  19.649  0.00  0.00    +0.000 A 
ATOM      6  C   UNL     1       1.926   8.563  18.353  0.00  0.00    +0.000 A 
ATOM      7  N   UNL     1       1.392   9.713  17.918  0.00  0.00    +0.000 NA
ATOM      8  N   UNL     1       0.650  10.462  18.780  0.00  0.00    +0.000 NA
ATOM      9  C   UNL     1       0.498  10.101  20.066  0.00  0.00    +0.000 A 
ATOM     10  C   UNL     1      -0.269  10.903  20.904  0.00  0.00    +0.000 A 
ATOM     11  C   UNL     1      -0.445  10.601  22.256  0.00  0.00    +0.000 A 
ATOM     12  C   UNL     1       0.173   9.481  22.791  0.00  0.00    +0.000 A 
ATOM     13  C   UNL     1       0.919   8.644  21.961  0.00  0.00    +0.000 A 
ATOM     14  C   UNL     1       1.076   8.927  20.579  0.00  0.00    +0.000 A 
ENDBRANCH   2   5
BRANCH   3  15
ATOM     15  C   UNL     1       4.093   5.105  19.559  0.00  0.00    +0.000 C 
ATOM     16  C   UNL     1       3.442   4.030  18.671  0.00  0.00    +0.000 C 
ATOM     17  C   UNL     1       3.706   4.260  17.179  0.00  0.00    +0.000 C 
ATOM     18  C   UNL     1       5.181   4.500  16.861  0.00  0.00    +0.000 C 
ATOM     19  C   UNL     1       5.818   5.550  17.779  0.00  0.00    +0.000 C 
ATOM     20  C   UNL     1       5.594   5.160  19.243  0.00  0.00    +0.000 C 
BRANCH  19  21
ATOM     21  O   UNL     1       7.221   5.656  17.549  0.00  0.00    +0.000 OA
BRANCH  21  22
ATOM     22  C   UNL     1       7.671   6.997  17.497  0.00  0.00    +0.000 C 
ATOM     23  F   UNL     1       6.605   7.835  17.459  0.00  0.00    +0.000 F 
ATOM     24  F   UNL     1       8.334   7.254  18.647  0.00  0.00    +0.000 F 
ENDBRANCH  21  22
ENDBRANCH  19  21
ENDBRANCH   3  15
TORSDOF 4
ENDMDL
MODEL 4
REMARK VINA RESULT:      -7.5      3.067      4.968
REMARK  Name = 
REMARK  4 active torsions:
REMARK  status: ('A' for Active; 'I' for Inactive)
REMARK    1  A    between atoms: C_2  and  C_14
REMARK    2  A    between atoms: N_3  and  C_4
REMARK    3  A    between atoms: C_8  and  O_9
REMARK    4  A    between atoms: O_9  and  C_10
REMARK                            x       y       z     vdW  Elec       q    Type
REMARK                         _______ _______ _______ _____ _____    ______ ____
ROOT
ATOM      1  O   UNL     1       1.651   5.898  20.696  0.00  0.00    +0.000 OA
ATOM      2  C   UNL     1       2.313   6.488  19.853  0.00  0.00    +0.000 C 
ATOM      3  N   UNL     1       3.415   5.945  19.215  0.00  0.00    +0.000 N 
ATOM      4  H   UNL     1       3.754   6.403  18.378  0.00  0.00    +0.000 HD
ENDROOT
BRANCH   2   5
ATOM      5  C   UNL     1       1.970   7.869  19.441  0.00  0.00    +0.000 A 
ATOM      6  C   UNL     1       2.272   8.246  18.144  0.00  0.00    +0.000 A 
ATOM      7  N   UNL     1       1.877   9.417  17.626  0.00  0.00    +0.000 NA
ATOM      8  N   UNL     1       1.151  10.269  18.404  0.00  0.00    +0.000 NA
ATOM      9  C   UNL     1       0.880   9.983  19.688  0.00  0.00    +0.000 A 
ATOM     10  C   UNL     1       0.136  10.888  20.438  0.00  0.00    +0.000 A 
ATOM     11  C   UNL     1      -0.157  10.666  21.784  0.00  0.00    +0.000 A 
ATOM     12  C   UNL     1       0.317   9.520  22.406  0.00  0.00    +0.000 A 
ATOM     13  C   UNL     1       1.037   8.583  21.665  0.00  0.00    +0.000 A 
ATOM     14  C   UNL     1       1.311   8.786  20.287  0.00  0.00    +0.000 A 
ENDBRANCH   2   5
BRANCH   3  15
ATOM     15  C   UNL     1       3.927   4.601  19.497  0.00  0.00    +0.000 C 
ATOM     16  C   UNL     1       2.988   3.541  18.894  0.00  0.00    +0.000 C 
ATOM     17  C   UNL     1       3.002   3.545  17.362  0.00  0.00    +0.000 C 
ATOM     18  C   UNL     1       4.413   3.511  16.776  0.00  0.00    +0.000 C 
ATOM     19  C   UNL     1       5.340   4.553  17.413  0.00  0.00    +0.000 C 
ATOM     20  C   UNL     1       5.338   4.383  18.935  0.00  0.00    +0.000 C 
BRANCH  19  21
ATOM     21  O   UNL     1       6.678   4.411  16.944  0.00  0.00    +0.000 OA
BRANCH  21  22
ATOM     22  C   UNL     1       6.934   5.160  15.770  0.00  0.00    +0.000 C 
ATOM     23  F   UNL     1       6.994   4.326  14.702  0.00  0.00    +0.000 F 
ATOM     24  F   UNL     1       5.881   5.983  15.569  0.00  0.00    +0.000 F 
ENDBRANCH  21  22
ENDBRANCH  19  21
ENDBRANCH   3  15
TORSDOF 4
ENDMDL
MODEL 5
REMARK VINA RESULT:      -7.5      2.983      4.156
REMARK  Name = 
REMARK  4 active torsions:
REMARK  status: ('A' for Active; 'I' for Inactive)
REMARK    1  A    between atoms: C_2  and  C_14
REMARK    2  A    between atoms: N_3  and  C_4
REMARK    3  A    between atoms: C_8  and  O_9
REMARK    4  A    between atoms: O_9  and  C_10
REMARK                            x       y       z     vdW  Elec       q    Type
REMARK                         _______ _______ _______ _____ _____    ______ ____
ROOT
ATOM      1  O   UNL     1       3.899   2.159  17.480  0.00  0.00    +0.000 OA
ATOM      2  C   UNL     1       4.134   3.171  18.127  0.00  0.00    +0.000 C 
ATOM      3  N   UNL     1       5.231   3.987  17.916  0.00  0.00    +0.000 N 
ATOM      4  H   UNL     1       5.222   4.911  18.328  0.00  0.00    +0.000 HD
ENDROOT
BRANCH   2   5
ATOM      5  C   UNL     1       3.231   3.606  19.218  0.00  0.00    +0.000 A 
ATOM      6  C   UNL     1       2.887   2.671  20.179  0.00  0.00    +0.000 A 
ATOM      7  N   UNL     1       2.197   2.995  21.281  0.00  0.00    +0.000 NA
ATOM      8  N   UNL     1       1.820   4.291  21.465  0.00  0.00    +0.000 NA
ATOM      9  C   UNL     1       2.073   5.230  20.537  0.00  0.00    +0.000 A 
ATOM     10  C   UNL     1       1.665   6.538  20.774  0.00  0.00    +0.000 A 
ATOM     11  C   UNL     1       1.871   7.556  19.841  0.00  0.00    +0.000 A 
ATOM     12  C   UNL     1       2.485   7.260  18.633  0.00  0.00    +0.000 A 
ATOM     13  C   UNL     1       2.932   5.962  18.388  0.00  0.00    +0.000 A 
ATOM     14  C   UNL     1       2.756   4.929  19.345  0.00  0.00    +0.000 A 
ENDBRANCH   2   5
BRANCH   3  15
ATOM     15  C   UNL     1       6.252   3.717  16.900  0.00  0.00    +0.000 C 
ATOM     16  C   UNL     1       5.611   3.693  15.500  0.00  0.00    +0.000 C 
ATOM     17  C   UNL     1       5.114   5.073  15.057  0.00  0.00    +0.000 C 
ATOM     18  C   UNL     1       6.163   6.170  15.227  0.00  0.00    +0.000 C 
ATOM     19  C   UNL     1       6.812   6.155  16.615  0.00  0.00    +0.000 C 
ATOM     20  C   UNL     1       7.375   4.762  16.907  0.00  0.00    +0.000 C 
BRANCH  19  21
ATOM     21  O   UNL     1       7.876   7.100  16.700  0.00  0.00    +0.000 OA
BRANCH  21  22
ATOM     22  C   UNL     1       7.795   7.920  17.852  0.00  0.00    +0.000 C 
ATOM     23  F   UNL     1       8.656   7.466  18.796  0.00  0.00    +0.000 F 
ATOM     24  F   UNL     1       8.207   9.160  17.505  0.00  0.00    +0.000 F 
ENDBRANCH  21  22
ENDBRANCH  19  21
ENDBRANCH   3  15
TORSDOF 4
ENDMDL
MODEL 6
REMARK VINA RESULT:      -7.4      3.452      5.309
REMARK  Name = 
REMARK  4 active torsions:
REMARK  status: ('A' for Active; 'I' for Inactive)
REMARK    1  A    between atoms: C_2  and  C_14
REMARK    2  A    between atoms: N_3  and  C_4
REMARK    3  A    between atoms: C_8  and  O_9
REMARK    4  A    between atoms: O_9  and  C_10
REMARK                            x       y       z     vdW  Elec       q    Type
REMARK                         _______ _______ _______ _____ _____    ______ ____
ROOT
ATOM      1  O   UNL     1       1.385   6.189  20.871  0.00  0.00    +0.000 OA
ATOM      2  C   UNL     1       2.009   6.952  20.145  0.00  0.00    +0.000 C 
ATOM      3  N   UNL     1       3.195   6.622  19.513  0.00  0.00    +0.000 N 
ATOM      4  H   UNL     1       3.513   7.217  18.759  0.00  0.00    +0.000 HD
ENDROOT
BRANCH   2   5
ATOM      5  C   UNL     1       1.522   8.327  19.885  0.00  0.00    +0.000 A 
ATOM      6  C   UNL     1       1.691   8.836  18.608  0.00  0.00    +0.000 A 
ATOM      7  N   UNL     1       1.162  10.006  18.226  0.00  0.00    +0.000 NA
ATOM      8  N   UNL     1       0.430  10.722  19.125  0.00  0.00    +0.000 NA
ATOM      9  C   UNL     1       0.283  10.307  20.395  0.00  0.00    +0.000 A 
ATOM     10  C   UNL     1      -0.473  11.076  21.272  0.00  0.00    +0.000 A 
ATOM     11  C   UNL     1      -0.643  10.717  22.610  0.00  0.00    +0.000 A 
ATOM     12  C   UNL     1      -0.029   9.571  23.093  0.00  0.00    +0.000 A 
ATOM     13  C   UNL     1       0.707   8.767  22.223  0.00  0.00    +0.000 A 
ATOM     14  C   UNL     1       0.856   9.107  20.853  0.00  0.00    +0.000 A 
ENDBRANCH   2   5
BRANCH   3  15
ATOM     15  C   UNL     1       3.850   5.320  19.660  0.00  0.00    +0.000 C 
ATOM     16  C   UNL     1       3.045   4.236  18.922  0.00  0.00    +0.000 C 
ATOM     17  C   UNL     1       3.080   4.411  17.400  0.00  0.00    +0.000 C 
ATOM     18  C   UNL     1       4.493   4.599  16.850  0.00  0.00    +0.000 C 
ATOM     19  C   UNL     1       5.288   5.658  17.621  0.00  0.00    +0.000 C 
ATOM     20  C   UNL     1       5.285   5.322  19.115  0.00  0.00    +0.000 C 
BRANCH  19  21
ATOM     21  O   UNL     1       6.640   5.717  17.174  0.00  0.00    +0.000 OA
BRANCH  21  22
ATOM     22  C   UNL     1       7.157   4.450  16.811  0.00  0.00    +0.000 C 
ATOM     23  F   UNL     1       7.628   4.496  15.540  0.00  0.00    +0.000 F 
ATOM     24  F   UNL     1       8.213   4.190  17.614  0.00  0.00    +0.000 F 
ENDBRANCH  21  22
ENDBRANCH  19  21
ENDBRANCH   3  15
TORSDOF 4
ENDMDL
MODEL 7
REMARK VINA RESULT:      -7.4      3.039      5.537
REMARK  Name = 
REMARK  4 active torsions:
REMARK  status: ('A' for Active; 'I' for Inactive)
REMARK    1  A    between atoms: C_2  and  C_14
REMARK    2  A    between atoms: N_3  and  C_4
REMARK    3  A    between atoms: C_8  and  O_9
REMARK    4  A    between atoms: O_9  and  C_10
REMARK                            x       y       z     vdW  Elec       q    Type
REMARK                         _______ _______ _______ _____ _____    ______ ____
ROOT
ATOM      1  O   UNL     1       4.078   6.173  19.690  0.00  0.00    +0.000 OA
ATOM      2  C   UNL     1       2.867   6.349  19.704  0.00  0.00    +0.000 C 
ATOM      3  N   UNL     1       1.953   5.403  20.133  0.00  0.00    +0.000 N 
ATOM      4  H   UNL     1       1.009   5.709  20.331  0.00  0.00    +0.000 HD
ENDROOT
BRANCH   2   5
ATOM      5  C   UNL     1       2.275   7.628  19.247  0.00  0.00    +0.000 A 
ATOM      6  C   UNL     1       2.481   7.995  17.929  0.00  0.00    +0.000 A 
ATOM      7  N   UNL     1       1.874   9.054  17.375  0.00  0.00    +0.000 NA
ATOM      8  N   UNL     1       1.022   9.797  18.137  0.00  0.00    +0.000 NA
ATOM      9  C   UNL     1       0.830   9.523  19.439  0.00  0.00    +0.000 A 
ATOM     10  C   UNL     1      -0.049  10.314  20.170  0.00  0.00    +0.000 A 
ATOM     11  C   UNL     1      -0.273  10.102  21.532  0.00  0.00    +0.000 A 
ATOM     12  C   UNL     1       0.410   9.087  22.186  0.00  0.00    +0.000 A 
ATOM     13  C   UNL     1       1.271   8.261  21.465  0.00  0.00    +0.000 A 
ATOM     14  C   UNL     1       1.479   8.450  20.073  0.00  0.00    +0.000 A 
ENDBRANCH   2   5
BRANCH   3  15
ATOM     15  C   UNL     1       2.336   4.068  20.603  0.00  0.00    +0.000 C 
ATOM     16  C   UNL     1       1.109   3.139  20.612  0.00  0.00    +0.000 C 
ATOM     17  C   UNL     1       0.601   2.821  19.202  0.00  0.00    +0.000 C 
ATOM     18  C   UNL     1       1.708   2.355  18.258  0.00  0.00    +0.000 C 
ATOM     19  C   UNL     1       2.933   3.276  18.288  0.00  0.00    +0.000 C 
ATOM     20  C   UNL     1       3.426   3.432  19.730  0.00  0.00    +0.000 C 
BRANCH  19  21
ATOM     21  O   UNL     1       3.998   2.747  17.501  0.00  0.00    +0.000 OA
BRANCH  21  22
ATOM     22  C   UNL     1       4.713   3.747  16.798  0.00  0.00    +0.000 C 
ATOM     23  F   UNL     1       3.984   4.890  16.764  0.00  0.00    +0.000 F 
ATOM     24  F   UNL     1       5.838   4.017  17.496  0.00  0.00    +0.000 F 
ENDBRANCH  21  22
ENDBRANCH  19  21
ENDBRANCH   3  15
TORSDOF 4
ENDMDL
MODEL 8
REMARK VINA RESULT:      -7.2      4.593      6.419
REMARK  Name = 
REMARK  4 active torsions:
REMARK  status: ('A' for Active; 'I' for Inactive)
REMARK    1  A    between atoms: C_2  and  C_14
REMARK    2  A    between atoms: N_3  and  C_4
REMARK    3  A    between atoms: C_8  and  O_9
REMARK    4  A    between atoms: O_9  and  C_10
REMARK                            x       y       z     vdW  Elec       q    Type
REMARK                         _______ _______ _______ _____ _____    ______ ____
ROOT
ATOM      1  O   UNL     1       1.985   9.021  17.537  0.00  0.00    +0.000 OA
ATOM      2  C   UNL     1       1.834   8.444  18.605  0.00  0.00    +0.000 C 
ATOM      3  N   UNL     1       2.227   7.138  18.841  0.00  0.00    +0.000 N 
ATOM      4  H   UNL     1       2.279   6.823  19.802  0.00  0.00    +0.000 HD
ENDROOT
BRANCH   2   5
ATOM      5  C   UNL     1       1.199   9.124  19.758  0.00  0.00    +0.000 A 
ATOM      6  C   UNL     1       1.718   8.873  21.016  0.00  0.00    +0.000 A 
ATOM      7  N   UNL     1       1.316   9.542  22.105  0.00  0.00    +0.000 NA
ATOM      8  N   UNL     1       0.361  10.505  21.971  0.00  0.00    +0.000 NA
ATOM      9  C   UNL     1      -0.221  10.750  20.785  0.00  0.00    +0.000 A 
ATOM     10  C   UNL     1      -1.191  11.744  20.703  0.00  0.00    +0.000 A 
ATOM     11  C   UNL     1      -1.854  12.031  19.509  0.00  0.00    +0.000 A 
ATOM     12  C   UNL     1      -1.558  11.297  18.370  0.00  0.00    +0.000 A 
ATOM     13  C   UNL     1      -0.565  10.319  18.421  0.00  0.00    +0.000 A 
ATOM     14  C   UNL     1       0.137  10.044  19.623  0.00  0.00    +0.000 A 
ENDBRANCH   2   5
BRANCH   3  15
ATOM     15  C   UNL     1       2.854   6.290  17.824  0.00  0.00    +0.000 C 
ATOM     16  C   UNL     1       4.380   6.264  18.024  0.00  0.00    +0.000 C 
ATOM     17  C   UNL     1       4.792   5.536  19.308  0.00  0.00    +0.000 C 
ATOM     18  C   UNL     1       4.137   4.165  19.456  0.00  0.00    +0.000 C 
ATOM     19  C   UNL     1       2.623   4.207  19.221  0.00  0.00    +0.000 C 
ATOM     20  C   UNL     1       2.329   4.848  17.861  0.00  0.00    +0.000 C 
BRANCH  19  21
ATOM     21  O   UNL     1       2.059   2.898  19.235  0.00  0.00    +0.000 OA
BRANCH  21  22
ATOM     22  C   UNL     1       1.042   2.745  20.208  0.00  0.00    +0.000 C 
ATOM     23  F   UNL     1       1.563   2.183  21.327  0.00  0.00    +0.000 F 
ATOM     24  F   UNL     1       0.611   3.979  20.551  0.00  0.00    +0.000 F 
ENDBRANCH  21  22
ENDBRANCH  19  21
ENDBRANCH   3  15
TORSDOF 4
ENDMDL
MODEL 9
REMARK VINA RESULT:      -7.0      3.436      5.361
REMARK  Name = 
REMARK  4 active torsions:
REMARK  status: ('A' for Active; 'I' for Inactive)
REMARK    1  A    between atoms: C_2  and  C_14
REMARK    2  A    between atoms: N_3  and  C_4
REMARK    3  A    between atoms: C_8  and  O_9
REMARK    4  A    between atoms: O_9  and  C_10
REMARK                            x       y       z     vdW  Elec       q    Type
REMARK                         _______ _______ _______ _____ _____    ______ ____
ROOT
ATOM      1  O   UNL     1       1.812   6.054  20.851  0.00  0.00    +0.000 OA
ATOM      2  C   UNL     1       2.075   6.472  19.732  0.00  0.00    +0.000 C 
ATOM      3  N   UNL     1       2.568   5.682  18.707  0.00  0.00    +0.000 N 
ATOM      4  H   UNL     1       2.535   6.051  17.765  0.00  0.00    +0.000 HD
ENDROOT
BRANCH   2   5
ATOM      5  C   UNL     1       1.880   7.898  19.383  0.00  0.00    +0.000 A 
ATOM      6  C   UNL     1       2.279   8.312  18.124  0.00  0.00    +0.000 A 
ATOM      7  N   UNL     1       2.018   9.540  17.655  0.00  0.00    +0.000 NA
ATOM      8  N   UNL     1       1.333  10.414  18.445  0.00  0.00    +0.000 NA
ATOM      9  C   UNL     1       0.973  10.088  19.698  0.00  0.00    +0.000 A 
ATOM     10  C   UNL     1       0.277  11.019  20.462  0.00  0.00    +0.000 A 
ATOM     11  C   UNL     1      -0.102  10.756  21.779  0.00  0.00    +0.000 A 
ATOM     12  C   UNL     1       0.235   9.541  22.357  0.00  0.00    +0.000 A 
ATOM     13  C   UNL     1       0.903   8.580  21.599  0.00  0.00    +0.000 A 
ATOM     14  C   UNL     1       1.264   8.828  20.248  0.00  0.00    +0.000 A 
ENDBRANCH   2   5
BRANCH   3  15
ATOM     15  C   UNL     1       2.850   4.252  18.857  0.00  0.00    +0.000 C 
ATOM     16  C   UNL     1       2.680   3.536  17.506  0.00  0.00    +0.000 C 
ATOM     17  C   UNL     1       3.750   3.940  16.486  0.00  0.00    +0.000 C 
ATOM     18  C   UNL     1       5.170   3.858  17.043  0.00  0.00    +0.000 C 
ATOM     19  C   UNL     1       5.309   4.550  18.404  0.00  0.00    +0.000 C 
ATOM     20  C   UNL     1       4.269   3.988  19.378  0.00  0.00    +0.000 C 
BRANCH  19  21
ATOM     21  O   UNL     1       6.606   4.344  18.960  0.00  0.00    +0.000 OA
BRANCH  21  22
ATOM     22  C   UNL     1       7.611   5.098  18.308  0.00  0.00    +0.000 C 
ATOM     23  F   UNL     1       8.153   4.365  17.305  0.00  0.00    +0.000 F 
ATOM     24  F   UNL     1       7.017   6.170  17.738  0.00  0.00    +0.000 F 
ENDBRANCH  21  22
ENDBRANCH  19  21
ENDBRANCH   3  15
TORSDOF 4
ENDMDL
