MODEL 1
REMARK VINA RESULT:      -7.8      0.000      0.000
REMARK  Name = 
REMARK  5 active torsions:
REMARK  status: ('A' for Active; 'I' for Inactive)
REMARK    1  A    between atoms: N_3  and  C_4
REMARK    2  A    between atoms: C_5  and  O_6
REMARK    3  A    between atoms: C_7  and  C_8
REMARK    4  A    between atoms: C_8  and  O_9
REMARK    5  A    between atoms: C_11  and  N_12
REMARK                            x       y       z     vdW  Elec       q    Type
REMARK                         _______ _______ _______ _____ _____    ______ ____
ROOT
ATOM      1  C   UNL     1       5.877   6.121  18.280  0.00  0.00    +0.000 C 
ATOM      2  C   UNL     1       6.977   6.488  17.287  0.00  0.00    +0.000 C 
ATOM      3  C   UNL     1       6.605   5.778  15.987  0.00  0.00    +0.000 C 
ATOM      4  O   UNL     1       5.193   5.503  16.039  0.00  0.00    +0.000 OA
ATOM      5  C   UNL     1       4.692   5.827  17.352  0.00  0.00    +0.000 C 
ENDROOT
BRANCH   5   6
ATOM      6  N   UNL     1       3.781   4.788  17.769  0.00  0.00    +0.000 N 
ATOM      7  C   UNL     1       3.533   3.599  17.133  0.00  0.00    +0.000 A 
ATOM      8  N   UNL     1       2.536   2.943  17.688  0.00  0.00    +0.000 NA
ATOM      9  C   UNL     1       2.129   3.743  18.735  0.00  0.00    +0.000 A 
ATOM     10  C   UNL     1       1.090   3.625  19.672  0.00  0.00    +0.000 A 
ATOM     11  N   UNL     1       0.171   2.587  19.657  0.00  0.00    +0.000 N 
ATOM     12  N   UNL     1       0.977   4.573  20.631  0.00  0.00    +0.000 NA
ATOM     13  C   UNL     1       1.849   5.606  20.620  0.00  0.00    +0.000 A 
ATOM     14  N   UNL     1       2.855   5.848  19.752  0.00  0.00    +0.000 NA
ATOM     15  C   UNL     1       2.928   4.871  18.834  0.00  0.00    +0.000 A 
ATOM     16  H   UNL     1       0.492   1.763  19.158  0.00  0.00    +0.000 HD
ATOM     17  H   UNL     1      -0.288   2.457  20.547  0.00  0.00    +0.000 HD
ENDBRANCH   5   6
BRANCH   1  20
ATOM     18  N   UNL     1       8.163   5.353  20.536  0.00  0.00    +0.000 NA
ATOM     19  N   UNL     1       7.275   5.158  19.850  0.00  0.00    +0.000 NA
ATOM     20  N   UNL     1       6.294   4.956  19.089  0.00  0.00    +0.000 NA
ENDBRANCH   1  20
BRANCH   2  21
ATOM     21  O   UNL     1       6.966   7.911  17.101  0.00  0.00    +0.000 OA
ATOM     22  H   UNL     1       7.687   8.169  16.499  0.00  0.00    +0.000 HD
ENDBRANCH   2  21
BRANCH   3  23
ATOM     23  C   UNL     1       7.342   4.453  15.769  0.00  0.00    +0.000 C 
BRANCH  23  24
ATOM     24  O   UNL     1       8.055   4.093  16.953  0.00  0.00    +0.000 OA
ATOM     25  H   UNL     1       7.744   4.684  17.664  0.00  0.00    +0.000 HD
ENDBRANCH  23  24
ENDBRANCH   3  23
TORSDOF 5
ENDMDL
MODEL 2
REMARK VINA RESULT:      -7.7      2.792      5.765
REMARK  Name = 
REMARK  5 active torsions:
REMARK  status: ('A' for Active; 'I' for Inactive)
REMARK    1  A    between atoms: N_3  and  C_4
REMARK    2  A    between atoms: C_5  and  O_6
REMARK    3  A    between atoms: C_7  and  C_8
REMARK    4  A    between atoms: C_8  and  O_9
REMARK    5  A    between atoms: C_11  and  N_12
REMARK                            x       y       z     vdW  Elec       q    Type
REMARK                         _______ _______ _______ _____ _____    ______ ____
ROOT
ATOM      1  C   UNL     1       2.999   4.360  20.395  0.00  0.00    +0.000 C 
ATOM      2  C   UNL     1       1.905   3.460  20.964  0.00  0.00    +0.000 C 
ATOM      3  C   UNL     1       1.791   2.290  19.988  0.00  0.00    +0.000 C 
ATOM      4  O   UNL     1       3.032   2.219  19.261  0.00  0.00    +0.000 OA
ATOM      5  C   UNL     1       3.841   3.368  19.584  0.00  0.00    +0.000 C 
ENDROOT
BRANCH   5   6
ATOM      6  N   UNL     1       4.443   3.866  18.369  0.00  0.00    +0.000 N 
ATOM      7  C   UNL     1       4.061   3.591  17.083  0.00  0.00    +0.000 A 
ATOM      8  N   UNL     1       4.910   4.077  16.202  0.00  0.00    +0.000 NA
ATOM      9  C   UNL     1       5.880   4.701  16.959  0.00  0.00    +0.000 A 
ATOM     10  C   UNL     1       7.071   5.363  16.618  0.00  0.00    +0.000 A 
ATOM     11  N   UNL     1       7.537   5.460  15.316  0.00  0.00    +0.000 N 
ATOM     12  N   UNL     1       7.800   5.927  17.608  0.00  0.00    +0.000 NA
ATOM     13  C   UNL     1       7.364   5.797  18.881  0.00  0.00    +0.000 A 
ATOM     14  N   UNL     1       6.267   5.153  19.333  0.00  0.00    +0.000 NA
ATOM     15  C   UNL     1       5.577   4.626  18.309  0.00  0.00    +0.000 A 
ATOM     16  H   UNL     1       6.817   5.329  14.612  0.00  0.00    +0.000 HD
ATOM     17  H   UNL     1       8.195   6.216  15.191  0.00  0.00    +0.000 HD
ENDBRANCH   5   6
BRANCH   1  20
ATOM     18  N   UNL     1       1.570   7.307  20.814  0.00  0.00    +0.000 NA
ATOM     19  N   UNL     1       1.960   6.418  20.219  0.00  0.00    +0.000 NA
ATOM     20  N   UNL     1       2.395   5.430  19.573  0.00  0.00    +0.000 NA
ENDBRANCH   1  20
BRANCH   2  21
ATOM     21  O   UNL     1       2.325   2.994  22.255  0.00  0.00    +0.000 OA
ATOM     22  H   UNL     1       3.053   3.551  22.584  0.00  0.00    +0.000 HD
ENDBRANCH   2  21
BRANCH   3  23
ATOM     23  C   UNL     1       0.651   2.435  18.976  0.00  0.00    +0.000 C 
BRANCH  23  24
ATOM     24  O   UNL     1       1.032   3.341  17.939  0.00  0.00    +0.000 OA
ATOM     25  H   UNL     1       2.000   3.453  18.000  0.00  0.00    +0.000 HD
ENDBRANCH  23  24
ENDBRANCH   3  23
TORSDOF 5
ENDMDL
MODEL 3
REMARK VINA RESULT:      -7.3      3.098      5.931
REMARK  Name = 
REMARK  5 active torsions:
REMARK  status: ('A' for Active; 'I' for Inactive)
REMARK    1  A    between atoms: N_3  and  C_4
REMARK    2  A    between atoms: C_5  and  O_6
REMARK    3  A    between atoms: C_7  and  C_8
REMARK    4  A    between atoms: C_8  and  O_9
REMARK    5  A    between atoms: C_11  and  N_12
REMARK                            x       y       z     vdW  Elec       q    Type
REMARK                         _______ _______ _______ _____ _____    ______ ____
ROOT
ATOM      1  C   UNL     1       3.443   2.375  19.299  0.00  0.00    +0.000 C 
ATOM      2  C   UNL     1       1.966   2.235  19.657  0.00  0.00    +0.000 C 
ATOM      3  C   UNL     1       1.339   3.590  19.332  0.00  0.00    +0.000 C 
ATOM      4  O   UNL     1       2.202   4.244  18.383  0.00  0.00    +0.000 OA
ATOM      5  C   UNL     1       3.413   3.475  18.231  0.00  0.00    +0.000 C 
ENDROOT
BRANCH   5   6
ATOM      6  N   UNL     1       4.536   4.381  18.198  0.00  0.00    +0.000 N 
ATOM      7  C   UNL     1       4.873   5.316  19.142  0.00  0.00    +0.000 A 
ATOM      8  N   UNL     1       5.862   6.087  18.740  0.00  0.00    +0.000 NA
ATOM      9  C   UNL     1       6.180   5.620  17.481  0.00  0.00    +0.000 A 
ATOM     10  C   UNL     1       7.108   6.047  16.518  0.00  0.00    +0.000 A 
ATOM     11  N   UNL     1       7.910   7.166  16.681  0.00  0.00    +0.000 N 
ATOM     12  N   UNL     1       7.221   5.334  15.373  0.00  0.00    +0.000 NA
ATOM     13  C   UNL     1       6.410   4.267  15.198  0.00  0.00    +0.000 A 
ATOM     14  N   UNL     1       5.457   3.789  16.028  0.00  0.00    +0.000 NA
ATOM     15  C   UNL     1       5.400   4.524  17.149  0.00  0.00    +0.000 A 
ATOM     16  H   UNL     1       8.027   7.448  17.649  0.00  0.00    +0.000 HD
ATOM     17  H   UNL     1       8.725   7.155  16.085  0.00  0.00    +0.000 HD
ENDBRANCH   5   6
BRANCH   1  20
ATOM     18  N   UNL     1       5.631   1.004  21.358  0.00  0.00    +0.000 NA
ATOM     19  N   UNL     1       4.962   1.834  20.956  0.00  0.00    +0.000 NA
ATOM     20  N   UNL     1       4.221   2.742  20.501  0.00  0.00    +0.000 NA
ENDBRANCH   1  20
BRANCH   2  21
ATOM     21  O   UNL     1       1.393   1.209  18.833  0.00  0.00    +0.000 OA
ATOM     22  H   UNL     1       2.013   0.978  18.118  0.00  0.00    +0.000 HD
ENDBRANCH   2  21
BRANCH   3  23
ATOM     23  C   UNL     1       1.180   4.508  20.546  0.00  0.00    +0.000 C 
BRANCH  23  24
ATOM     24  O   UNL     1       2.004   4.046  21.617  0.00  0.00    +0.000 OA
ATOM     25  H   UNL     1       2.888   3.874  21.243  0.00  0.00    +0.000 HD
ENDBRANCH  23  24
ENDBRANCH   3  23
TORSDOF 5
ENDMDL
MODEL 4
REMARK VINA RESULT:      -7.1      2.714      4.007
REMARK  Name = 
REMARK  5 active torsions:
REMARK  status: ('A' for Active; 'I' for Inactive)
REMARK    1  A    between atoms: N_3  and  C_4
REMARK    2  A    between atoms: C_5  and  O_6
REMARK    3  A    between atoms: C_7  and  C_8
REMARK    4  A    between atoms: C_8  and  O_9
REMARK    5  A    between atoms: C_11  and  N_12
REMARK                            x       y       z     vdW  Elec       q    Type
REMARK                         _______ _______ _______ _____ _____    ______ ____
ROOT
ATOM      1  C   UNL     1       4.853   5.382  18.016  0.00  0.00    +0.000 C 
ATOM      2  C   UNL     1       5.073   3.955  17.521  0.00  0.00    +0.000 C 
ATOM      3  C   UNL     1       3.773   3.213  17.826  0.00  0.00    +0.000 C 
ATOM      4  O   UNL     1       2.736   4.204  17.956  0.00  0.00    +0.000 OA
ATOM      5  C   UNL     1       3.328   5.520  17.933  0.00  0.00    +0.000 C 
ENDROOT
BRANCH   5   6
ATOM      6  N   UNL     1       2.692   6.330  18.945  0.00  0.00    +0.000 N 
ATOM      7  C   UNL     1       2.254   5.923  20.178  0.00  0.00    +0.000 A 
ATOM      8  N   UNL     1       1.580   6.868  20.797  0.00  0.00    +0.000 NA
ATOM      9  C   UNL     1       1.591   7.936  19.924  0.00  0.00    +0.000 A 
ATOM     10  C   UNL     1       1.009   9.213  19.979  0.00  0.00    +0.000 A 
ATOM     11  N   UNL     1       0.195   9.631  21.021  0.00  0.00    +0.000 N 
ATOM     12  N   UNL     1       1.250  10.074  18.964  0.00  0.00    +0.000 NA
ATOM     13  C   UNL     1       2.011   9.651  17.929  0.00  0.00    +0.000 A 
ATOM     14  N   UNL     1       2.585   8.443  17.746  0.00  0.00    +0.000 NA
ATOM     15  C   UNL     1       2.324   7.637  18.788  0.00  0.00    +0.000 A 
ATOM     16  H   UNL     1       0.321   9.101  21.877  0.00  0.00    +0.000 HD
ATOM     17  H   UNL     1       0.128  10.636  21.087  0.00  0.00    +0.000 HD
ENDBRANCH   5   6
BRANCH   1  20
ATOM     18  N   UNL     1       7.747   5.186  19.594  0.00  0.00    +0.000 NA
ATOM     19  N   UNL     1       6.623   5.349  19.503  0.00  0.00    +0.000 NA
ATOM     20  N   UNL     1       5.384   5.529  19.388  0.00  0.00    +0.000 NA
ENDBRANCH   1  20
BRANCH   2  21
ATOM     21  O   UNL     1       5.305   3.996  16.105  0.00  0.00    +0.000 OA
ATOM     22  H   UNL     1       6.211   3.695  15.912  0.00  0.00    +0.000 HD
ENDBRANCH   2  21
BRANCH   3  23
ATOM     23  C   UNL     1       3.814   2.393  19.118  0.00  0.00    +0.000 C 
BRANCH  23  24
ATOM     24  O   UNL     1       5.116   2.468  19.701  0.00  0.00    +0.000 OA
ATOM     25  H   UNL     1       5.566   3.233  19.296  0.00  0.00    +0.000 HD
ENDBRANCH  23  24
ENDBRANCH   3  23
TORSDOF 5
ENDMDL
MODEL 5
REMARK VINA RESULT:      -7.0      2.925      5.764
REMARK  Name = 
REMARK  5 active torsions:
REMARK  status: ('A' for Active; 'I' for Inactive)
REMARK    1  A    between atoms: N_3  and  C_4
REMARK    2  A    between atoms: C_5  and  O_6
REMARK    3  A    between atoms: C_7  and  C_8
REMARK    4  A    between atoms: C_8  and  O_9
REMARK    5  A    between atoms: C_11  and  N_12
REMARK                            x       y       z     vdW  Elec       q    Type
REMARK                         _______ _______ _______ _____ _____    ______ ____
ROOT
ATOM      1  C   UNL     1       2.957   4.855  19.748  0.00  0.00    +0.000 C 
ATOM      2  C   UNL     1       2.044   3.930  20.548  0.00  0.00    +0.000 C 
ATOM      3  C   UNL     1       2.259   2.537  19.959  0.00  0.00    +0.000 C 
ATOM      4  O   UNL     1       3.537   2.547  19.297  0.00  0.00    +0.000 OA
ATOM      5  C   UNL     1       4.053   3.893  19.273  0.00  0.00    +0.000 C 
ENDROOT
BRANCH   5   6
ATOM      6  N   UNL     1       4.623   4.147  17.971  0.00  0.00    +0.000 N 
ATOM      7  C   UNL     1       4.341   3.492  16.801  0.00  0.00    +0.000 A 
ATOM      8  N   UNL     1       5.143   3.861  15.825  0.00  0.00    +0.000 NA
ATOM      9  C   UNL     1       5.975   4.804  16.392  0.00  0.00    +0.000 A 
ATOM     10  C   UNL     1       7.066   5.533  15.891  0.00  0.00    +0.000 A 
ATOM     11  N   UNL     1       7.566   5.361  14.609  0.00  0.00    +0.000 N 
ATOM     12  N   UNL     1       7.659   6.441  16.698  0.00  0.00    +0.000 NA
ATOM     13  C   UNL     1       7.195   6.579  17.961  0.00  0.00    +0.000 A 
ATOM     14  N   UNL     1       6.189   5.910  18.565  0.00  0.00    +0.000 NA
ATOM     15  C   UNL     1       5.631   5.034  17.714  0.00  0.00    +0.000 A 
ATOM     16  H   UNL     1       6.904   4.941  13.964  0.00  0.00    +0.000 HD
ATOM     17  H   UNL     1       8.107   6.152  14.291  0.00  0.00    +0.000 HD
ENDBRANCH   5   6
BRANCH   1  20
ATOM     18  N   UNL     1       2.765   7.766  18.200  0.00  0.00    +0.000 NA
ATOM     19  N   UNL     1       2.492   6.680  18.406  0.00  0.00    +0.000 NA
ATOM     20  N   UNL     1       2.201   5.479  18.642  0.00  0.00    +0.000 NA
ENDBRANCH   1  20
BRANCH   2  21
ATOM     21  O   UNL     1       2.456   3.961  21.923  0.00  0.00    +0.000 OA
ATOM     22  H   UNL     1       3.267   3.434  22.034  0.00  0.00    +0.000 HD
ENDBRANCH   2  21
BRANCH   3  23
ATOM     23  C   UNL     1       1.195   2.122  18.940  0.00  0.00    +0.000 C 
BRANCH  23  24
ATOM     24  O   UNL     1      -0.081   2.628  19.335  0.00  0.00    +0.000 OA
ATOM     25  H   UNL     1      -0.493   3.015  18.540  0.00  0.00    +0.000 HD
ENDBRANCH  23  24
ENDBRANCH   3  23
TORSDOF 5
ENDMDL
MODEL 6
REMARK VINA RESULT:      -6.9      1.131      2.015
REMARK  Name = 
REMARK  5 active torsions:
REMARK  status: ('A' for Active; 'I' for Inactive)
REMARK    1  A    between atoms: N_3  and  C_4
REMARK    2  A    between atoms: C_5  and  O_6
REMARK    3  A    between atoms: C_7  and  C_8
REMARK    4  A    between atoms: C_8  and  O_9
REMARK    5  A    between atoms: C_11  and  N_12
REMARK                            x       y       z     vdW  Elec       q    Type
REMARK                         _______ _______ _______ _____ _____    ______ ____
ROOT
ATOM      1  C   UNL     1       6.124   6.319  18.253  0.00  0.00    +0.000 C 
ATOM      2  C   UNL     1       7.046   6.069  17.063  0.00  0.00    +0.000 C 
ATOM      3  C   UNL     1       6.162   5.435  15.989  0.00  0.00    +0.000 C 
ATOM      4  O   UNL     1       4.801   5.791  16.293  0.00  0.00    +0.000 OA
ATOM      5  C   UNL     1       4.753   6.447  17.577  0.00  0.00    +0.000 C 
ENDROOT
BRANCH   5   6
ATOM      6  N   UNL     1       3.616   5.945  18.311  0.00  0.00    +0.000 N 
ATOM      7  C   UNL     1       2.940   6.573  19.323  0.00  0.00    +0.000 A 
ATOM      8  N   UNL     1       2.050   5.783  19.886  0.00  0.00    +0.000 NA
ATOM      9  C   UNL     1       2.154   4.593  19.197  0.00  0.00    +0.000 A 
ATOM     10  C   UNL     1       1.514   3.351  19.346  0.00  0.00    +0.000 A 
ATOM     11  N   UNL     1       0.608   3.082  20.360  0.00  0.00    +0.000 N 
ATOM     12  N   UNL     1       1.801   2.369  18.461  0.00  0.00    +0.000 NA
ATOM     13  C   UNL     1       2.715   2.620  17.496  0.00  0.00    +0.000 A 
ATOM     14  N   UNL     1       3.421   3.751  17.280  0.00  0.00    +0.000 NA
ATOM     15  C   UNL     1       3.086   4.692  18.177  0.00  0.00    +0.000 A 
ATOM     16  H   UNL     1       0.190   3.914  20.766  0.00  0.00    +0.000 HD
ATOM     17  H   UNL     1       0.007   2.299  20.151  0.00  0.00    +0.000 HD
ENDBRANCH   5   6
BRANCH   1  20
ATOM     18  N   UNL     1       8.080   5.271  20.699  0.00  0.00    +0.000 NA
ATOM     19  N   UNL     1       7.189   5.226  19.990  0.00  0.00    +0.000 NA
ATOM     20  N   UNL     1       6.208   5.190  19.204  0.00  0.00    +0.000 NA
ENDBRANCH   1  20
BRANCH   2  21
ATOM     21  O   UNL     1       7.557   7.331  16.609  0.00  0.00    +0.000 OA
ATOM     22  H   UNL     1       7.434   7.408  15.646  0.00  0.00    +0.000 HD
ENDBRANCH   2  21
BRANCH   3  23
ATOM     23  C   UNL     1       6.256   3.909  15.928  0.00  0.00    +0.000 C 
BRANCH  23  24
ATOM     24  O   UNL     1       6.261   3.475  14.567  0.00  0.00    +0.000 OA
ATOM     25  H   UNL     1       5.823   4.173  14.044  0.00  0.00    +0.000 HD
ENDBRANCH  23  24
ENDBRANCH   3  23
TORSDOF 5
ENDMDL
MODEL 7
REMARK VINA RESULT:      -6.9      1.972      3.256
REMARK  Name = 
REMARK  5 active torsions:
REMARK  status: ('A' for Active; 'I' for Inactive)
REMARK    1  A    between atoms: N_3  and  C_4
REMARK    2  A    between atoms: C_5  and  O_6
REMARK    3  A    between atoms: C_7  and  C_8
REMARK    4  A    between atoms: C_8  and  O_9
REMARK    5  A    between atoms: C_11  and  N_12
REMARK                            x       y       z     vdW  Elec       q    Type
REMARK                         _______ _______ _______ _____ _____    ______ ____
ROOT
ATOM      1  C   UNL     1       6.417   4.172  17.486  0.00  0.00    +0.000 C 
ATOM      2  C   UNL     1       7.784   4.852  17.510  0.00  0.00    +0.000 C 
ATOM      3  C   UNL     1       7.709   5.875  18.643  0.00  0.00    +0.000 C 
ATOM      4  O   UNL     1       6.652   5.456  19.527  0.00  0.00    +0.000 OA
ATOM      5  C   UNL     1       5.944   4.349  18.934  0.00  0.00    +0.000 C 
ENDROOT
BRANCH   5   6
ATOM      6  N   UNL     1       4.528   4.545  19.136  0.00  0.00    +0.000 N 
ATOM      7  C   UNL     1       3.904   5.677  19.589  0.00  0.00    +0.000 A 
ATOM      8  N   UNL     1       2.622   5.479  19.809  0.00  0.00    +0.000 NA
ATOM      9  C   UNL     1       2.409   4.158  19.473  0.00  0.00    +0.000 A 
ATOM     10  C   UNL     1       1.272   3.335  19.531  0.00  0.00    +0.000 A 
ATOM     11  N   UNL     1       0.055   3.759  20.041  0.00  0.00    +0.000 N 
ATOM     12  N   UNL     1       1.372   2.067  19.071  0.00  0.00    +0.000 NA
ATOM     13  C   UNL     1       2.571   1.642  18.611  0.00  0.00    +0.000 A 
ATOM     14  N   UNL     1       3.736   2.323  18.546  0.00  0.00    +0.000 NA
ATOM     15  C   UNL     1       3.574   3.575  19.001  0.00  0.00    +0.000 A 
ATOM     16  H   UNL     1      -0.056   4.768  20.051  0.00  0.00    +0.000 HD
ATOM     17  H   UNL     1      -0.721   3.196  19.722  0.00  0.00    +0.000 HD
ENDBRANCH   5   6
BRANCH   1  20
ATOM     18  N   UNL     1       6.607   5.387  14.421  0.00  0.00    +0.000 NA
ATOM     19  N   UNL     1       6.096   5.127  15.405  0.00  0.00    +0.000 NA
ATOM     20  N   UNL     1       5.542   4.834  16.495  0.00  0.00    +0.000 NA
ENDBRANCH   1  20
BRANCH   2  21
ATOM     21  O   UNL     1       8.780   3.860  17.798  0.00  0.00    +0.000 OA
ATOM     22  H   UNL     1       9.432   4.221  18.425  0.00  0.00    +0.000 HD
ENDBRANCH   2  21
BRANCH   3  23
ATOM     23  C   UNL     1       7.404   7.300  18.175  0.00  0.00    +0.000 C 
BRANCH  23  24
ATOM     24  O   UNL     1       7.442   7.362  16.748  0.00  0.00    +0.000 OA
ATOM     25  H   UNL     1       6.523   7.272  16.435  0.00  0.00    +0.000 HD
ENDBRANCH  23  24
ENDBRANCH   3  23
TORSDOF 5
ENDMDL
MODEL 8
REMARK VINA RESULT:      -6.8      1.600      1.708
REMARK  Name = 
REMARK  5 active torsions:
REMARK  status: ('A' for Active; 'I' for Inactive)
REMARK    1  A    between atoms: N_3  and  C_4
REMARK    2  A    between atoms: C_5  and  O_6
REMARK    3  A    between atoms: C_7  and  C_8
REMARK    4  A    between atoms: C_8  and  O_9
REMARK    5  A    between atoms: C_11  and  N_12
REMARK                            x       y       z     vdW  Elec       q    Type
REMARK                         _______ _______ _______ _____ _____    ______ ____
ROOT
ATOM      1  C   UNL     1       5.064   6.077  17.240  0.00  0.00    +0.000 C 
ATOM      2  C   UNL     1       5.738   6.143  15.872  0.00  0.00    +0.000 C 
ATOM      3  C   UNL     1       5.611   4.737  15.288  0.00  0.00    +0.000 C 
ATOM      4  O   UNL     1       4.518   4.090  15.967  0.00  0.00    +0.000 OA
ATOM      5  C   UNL     1       4.071   4.923  17.055  0.00  0.00    +0.000 C 
ENDROOT
BRANCH   5   6
ATOM      6  N   UNL     1       3.823   4.088  18.206  0.00  0.00    +0.000 N 
ATOM      7  C   UNL     1       4.208   2.785  18.382  0.00  0.00    +0.000 A 
ATOM      8  N   UNL     1       3.691   2.262  19.474  0.00  0.00    +0.000 NA
ATOM      9  C   UNL     1       2.945   3.280  20.031  0.00  0.00    +0.000 A 
ATOM     10  C   UNL     1       2.121   3.342  21.166  0.00  0.00    +0.000 A 
ATOM     11  N   UNL     1       1.860   2.245  21.973  0.00  0.00    +0.000 N 
ATOM     12  N   UNL     1       1.552   4.527  21.485  0.00  0.00    +0.000 NA
ATOM     13  C   UNL     1       1.775   5.586  20.674  0.00  0.00    +0.000 A 
ATOM     14  N   UNL     1       2.508   5.638  19.540  0.00  0.00    +0.000 NA
ATOM     15  C   UNL     1       3.058   4.441  19.283  0.00  0.00    +0.000 A 
ATOM     16  H   UNL     1       2.550   1.505  21.894  0.00  0.00    +0.000 HD
ATOM     17  H   UNL     1       1.541   2.505  22.895  0.00  0.00    +0.000 HD
ENDBRANCH   5   6
BRANCH   1  20
ATOM     18  N   UNL     1       8.030   7.201  18.159  0.00  0.00    +0.000 NA
ATOM     19  N   UNL     1       7.104   6.542  18.225  0.00  0.00    +0.000 NA
ATOM     20  N   UNL     1       6.075   5.822  18.289  0.00  0.00    +0.000 NA
ENDBRANCH   1  20
BRANCH   2  21
ATOM     21  O   UNL     1       5.025   7.088  15.059  0.00  0.00    +0.000 OA
ATOM     22  H   UNL     1       4.923   7.926  15.544  0.00  0.00    +0.000 HD
ENDBRANCH   2  21
BRANCH   3  23
ATOM     23  C   UNL     1       6.863   3.875  15.467  0.00  0.00    +0.000 C 
BRANCH  23  24
ATOM     24  O   UNL     1       7.860   4.607  16.182  0.00  0.00    +0.000 OA
ATOM     25  H   UNL     1       7.536   4.711  17.096  0.00  0.00    +0.000 HD
ENDBRANCH  23  24
ENDBRANCH   3  23
TORSDOF 5
ENDMDL
MODEL 9
REMARK VINA RESULT:      -6.8      3.211      5.389
REMARK  Name = 
REMARK  5 active torsions:
REMARK  status: ('A' for Active; 'I' for Inactive)
REMARK    1  A    between atoms: N_3  and  C_4
REMARK    2  A    between atoms: C_5  and  O_6
REMARK    3  A    between atoms: C_7  and  C_8
REMARK    4  A    between atoms: C_8  and  O_9
REMARK    5  A    between atoms: C_11  and  N_12
REMARK                            x       y       z     vdW  Elec       q    Type
REMARK                         _______ _______ _______ _____ _____    ______ ____
ROOT
ATOM      1  C   UNL     1       1.986   4.125  20.291  0.00  0.00    +0.000 C 
ATOM      2  C   UNL     1       2.762   2.817  20.431  0.00  0.00    +0.000 C 
ATOM      3  C   UNL     1       4.091   3.055  19.714  0.00  0.00    +0.000 C 
ATOM      4  O   UNL     1       4.299   4.479  19.662  0.00  0.00    +0.000 OA
ATOM      5  C   UNL     1       3.113   5.152  20.131  0.00  0.00    +0.000 C 
ENDROOT
BRANCH   5   6
ATOM      6  N   UNL     1       2.848   6.278  19.267  0.00  0.00    +0.000 N 
ATOM      7  C   UNL     1       3.345   6.491  18.008  0.00  0.00    +0.000 A 
ATOM      8  N   UNL     1       3.036   7.686  17.552  0.00  0.00    +0.000 NA
ATOM      9  C   UNL     1       2.297   8.267  18.563  0.00  0.00    +0.000 A 
ATOM     10  C   UNL     1       1.722   9.539  18.708  0.00  0.00    +0.000 A 
ATOM     11  N   UNL     1       1.866  10.548  17.767  0.00  0.00    +0.000 N 
ATOM     12  N   UNL     1       0.998   9.795  19.821  0.00  0.00    +0.000 NA
ATOM     13  C   UNL     1       0.892   8.824  20.756  0.00  0.00    +0.000 A 
ATOM     14  N   UNL     1       1.431   7.586  20.748  0.00  0.00    +0.000 NA
ATOM     15  C   UNL     1       2.125   7.384  19.617  0.00  0.00    +0.000 A 
ATOM     16  H   UNL     1       2.113  10.212  16.841  0.00  0.00    +0.000 HD
ATOM     17  H   UNL     1       1.153  11.259  17.843  0.00  0.00    +0.000 HD
ENDBRANCH   5   6
BRANCH   1  20
ATOM     18  N   UNL     1       0.274   1.858  18.607  0.00  0.00    +0.000 NA
ATOM     19  N   UNL     1       0.656   2.904  18.847  0.00  0.00    +0.000 NA
ATOM     20  N   UNL     1       1.082   4.054  19.123  0.00  0.00    +0.000 NA
ENDBRANCH   1  20
BRANCH   2  21
ATOM     21  O   UNL     1       2.984   2.567  21.826  0.00  0.00    +0.000 OA
ATOM     22  H   UNL     1       3.908   2.293  21.967  0.00  0.00    +0.000 HD
ENDBRANCH   2  21
BRANCH   3  23
ATOM     23  C   UNL     1       4.131   2.513  18.283  0.00  0.00    +0.000 C 
BRANCH  23  24
ATOM     24  O   UNL     1       3.095   1.547  18.099  0.00  0.00    +0.000 OA
ATOM     25  H   UNL     1       3.528   0.706  17.860  0.00  0.00    +0.000 HD
ENDBRANCH  23  24
ENDBRANCH   3  23
TORSDOF 5
ENDMDL
