MODEL 1
REMARK VINA RESULT:      -8.1      0.000      0.000
REMARK  Name = 
REMARK  13 active torsions:
REMARK  status: ('A' for Active; 'I' for Inactive)
REMARK    1  A    between atoms: C_1  and  O_2
REMARK    2  A    between atoms: O_2  and  C_3
REMARK    3  A    between atoms: C_7  and  C_8
REMARK    4  A    between atoms: C_8  and  C_14
REMARK    5  A    between atoms: C_9  and  C_10
REMARK    6  A    between atoms: C_10  and  C_11
REMARK    7  A    between atoms: C_11  and  O_13
REMARK    8  A    between atoms: C_18  and  O_19
REMARK    9  A    between atoms: O_19  and  C_20
REMARK   10  A    between atoms: C_21  and  C_22
REMARK   11  A    between atoms: C_22  and  O_24
REMARK   12  A    between atoms: C_27  and  C_28
REMARK   13  A    between atoms: C_28  and  O_30
REMARK                            x       y       z     vdW  Elec       q    Type
REMARK                         _______ _______ _______ _____ _____    ______ ____
ROOT
ATOM      1  C   UNL     1       2.595   5.737  19.723  0.00  0.00    +0.000 C 
ATOM      2  C   UNL     1       1.904   4.720  20.282  0.00  0.00    +0.000 C 
ENDROOT
BRANCH   1   7
ATOM      3  C   UNL     1       6.165   4.937  17.411  0.00  0.00    +0.000 A 
ATOM      4  C   UNL     1       4.880   4.687  16.884  0.00  0.00    +0.000 A 
ATOM      5 CL   UNL     1       4.563   3.937  15.357  0.00  0.00    +0.000 Cl
ATOM      6  C   UNL     1       3.723   4.982  17.629  0.00  0.00    +0.000 A 
ATOM      7  C   UNL     1       3.813   5.505  18.915  0.00  0.00    +0.000 A 
ATOM      8  C   UNL     1       5.080   5.739  19.452  0.00  0.00    +0.000 A 
ATOM      9  C   UNL     1       6.255   5.469  18.720  0.00  0.00    +0.000 A 
BRANCH   3  11
ATOM     10  C   UNL     1       7.582   4.940  15.441  0.00  0.00    +0.000 C 
ATOM     11  O   UNL     1       7.370   4.647  16.819  0.00  0.00    +0.000 OA
ENDBRANCH   3  11
BRANCH   9  12
ATOM     12  C   UNL     1       7.539   5.776  19.441  0.00  0.00    +0.000 C 
ATOM     13  O   UNL     1       7.872   5.190  20.461  0.00  0.00    +0.000 OA
BRANCH  12  14
ATOM     14  O   UNL     1       8.314   6.739  18.904  0.00  0.00    +0.000 OA
ATOM     15  H   UNL     1       8.508   7.467  19.528  0.00  0.00    +0.000 HD
ENDBRANCH  12  14
ENDBRANCH   9  12
ENDBRANCH   1   7
BRANCH   1  16
ATOM     16  C   UNL     1       2.022   7.092  19.911  0.00  0.00    +0.000 A 
ATOM     17  C   UNL     1       2.071   8.014  18.868  0.00  0.00    +0.000 A 
ATOM     18  C   UNL     1       1.537   9.308  19.005  0.00  0.00    +0.000 A 
ATOM     19 CL   UNL     1       1.706  10.282  17.587  0.00  0.00    +0.000 Cl
ATOM     20  C   UNL     1       0.920   9.707  20.209  0.00  0.00    +0.000 A 
ATOM     21  C   UNL     1       0.862   8.765  21.268  0.00  0.00    +0.000 A 
ATOM     22  C   UNL     1       1.412   7.471  21.106  0.00  0.00    +0.000 A 
BRANCH  20  23
ATOM     23  O   UNL     1       0.345  10.914  20.506  0.00  0.00    +0.000 OA
ATOM     24  C   UNL     1       1.104  12.105  20.659  0.00  0.00    +0.000 C 
ENDBRANCH  20  23
BRANCH  21  25
ATOM     25  C   UNL     1       0.234   9.025  22.608  0.00  0.00    +0.000 C 
ATOM     26  O   UNL     1       0.807   9.673  23.473  0.00  0.00    +0.000 OA
BRANCH  25  27
ATOM     27  O   UNL     1      -0.995   8.516  22.815  0.00  0.00    +0.000 OA
ATOM     28  H   UNL     1      -1.170   7.709  22.293  0.00  0.00    +0.000 HD
ENDBRANCH  25  27
ENDBRANCH  21  25
ENDBRANCH   1  16
BRANCH   2  29
ATOM     29  C   UNL     1       2.220   3.248  20.291  0.00  0.00    +0.000 C 
BRANCH  29  30
ATOM     30  C   UNL     1       1.509   2.403  19.237  0.00  0.00    +0.000 C 
ATOM     31  O   UNL     1       0.325   2.447  18.963  0.00  0.00    +0.000 OA
BRANCH  30  32
ATOM     32  O   UNL     1       2.358   1.547  18.615  0.00  0.00    +0.000 OA
ATOM     33  H   UNL     1       2.099   0.607  18.669  0.00  0.00    +0.000 HD
ENDBRANCH  30  32
ENDBRANCH  29  30
ENDBRANCH   2  29
TORSDOF 11
ENDMDL
MODEL 2
REMARK VINA RESULT:      -7.9      1.023      1.083
REMARK  Name = 
REMARK  13 active torsions:
REMARK  status: ('A' for Active; 'I' for Inactive)
REMARK    1  A    between atoms: C_1  and  O_2
REMARK    2  A    between atoms: O_2  and  C_3
REMARK    3  A    between atoms: C_7  and  C_8
REMARK    4  A    between atoms: C_8  and  C_14
REMARK    5  A    between atoms: C_9  and  C_10
REMARK    6  A    between atoms: C_10  and  C_11
REMARK    7  A    between atoms: C_11  and  O_13
REMARK    8  A    between atoms: C_18  and  O_19
REMARK    9  A    between atoms: O_19  and  C_20
REMARK   10  A    between atoms: C_21  and  C_22
REMARK   11  A    between atoms: C_22  and  O_24
REMARK   12  A    between atoms: C_27  and  C_28
REMARK   13  A    between atoms: C_28  and  O_30
REMARK                            x       y       z     vdW  Elec       q    Type
REMARK                         _______ _______ _______ _____ _____    ______ ____
ROOT
ATOM      1  C   UNL     1       2.362   5.784  19.704  0.00  0.00    +0.000 C 
ATOM      2  C   UNL     1       1.582   4.811  20.226  0.00  0.00    +0.000 C 
ENDROOT
BRANCH   1   7
ATOM      3  C   UNL     1       5.882   4.764  17.402  0.00  0.00    +0.000 A 
ATOM      4  C   UNL     1       4.584   4.494  16.915  0.00  0.00    +0.000 A 
ATOM      5 CL   UNL     1       4.232   3.639  15.453  0.00  0.00    +0.000 Cl
ATOM      6  C   UNL     1       3.445   4.860  17.654  0.00  0.00    +0.000 A 
ATOM      7  C   UNL     1       3.563   5.475  18.897  0.00  0.00    +0.000 A 
ATOM      8  C   UNL     1       4.841   5.729  19.395  0.00  0.00    +0.000 A 
ATOM      9  C   UNL     1       6.001   5.389  18.666  0.00  0.00    +0.000 A 
BRANCH   3  11
ATOM     10  C   UNL     1       7.411   4.914  15.524  0.00  0.00    +0.000 C 
ATOM     11  O   UNL     1       7.073   4.413  16.814  0.00  0.00    +0.000 OA
ENDBRANCH   3  11
BRANCH   9  12
ATOM     12  C   UNL     1       7.300   5.729  19.342  0.00  0.00    +0.000 C 
ATOM     13  O   UNL     1       7.624   5.245  20.416  0.00  0.00    +0.000 OA
BRANCH  12  14
ATOM     14  O   UNL     1       8.099   6.605  18.702  0.00  0.00    +0.000 OA
ATOM     15  H   UNL     1       8.180   7.461  19.167  0.00  0.00    +0.000 HD
ENDBRANCH  12  14
ENDBRANCH   9  12
ENDBRANCH   1   7
BRANCH   1  16
ATOM     16  C   UNL     1       1.903   7.176  19.931  0.00  0.00    +0.000 A 
ATOM     17  C   UNL     1       1.997   8.110  18.904  0.00  0.00    +0.000 A 
ATOM     18  C   UNL     1       1.570   9.440  19.078  0.00  0.00    +0.000 A 
ATOM     19 CL   UNL     1       1.777  10.425  17.673  0.00  0.00    +0.000 Cl
ATOM     20  C   UNL     1       1.020   9.863  20.306  0.00  0.00    +0.000 A 
ATOM     21  C   UNL     1       0.917   8.908  21.350  0.00  0.00    +0.000 A 
ATOM     22  C   UNL     1       1.358   7.579  21.150  0.00  0.00    +0.000 A 
BRANCH  20  23
ATOM     23  O   UNL     1       0.551  11.106  20.640  0.00  0.00    +0.000 OA
ATOM     24  C   UNL     1      -0.672  11.623  20.135  0.00  0.00    +0.000 C 
ENDBRANCH  20  23
BRANCH  21  25
ATOM     25  C   UNL     1       0.348   9.191  22.712  0.00  0.00    +0.000 C 
ATOM     26  O   UNL     1       1.032   9.658  23.611  0.00  0.00    +0.000 OA
BRANCH  25  27
ATOM     27  O   UNL     1      -0.955   8.911  22.899  0.00  0.00    +0.000 OA
ATOM     28  H   UNL     1      -1.112   7.998  23.210  0.00  0.00    +0.000 HD
ENDBRANCH  25  27
ENDBRANCH  21  25
ENDBRANCH   1  16
BRANCH   2  29
ATOM     29  C   UNL     1       1.774   3.319  20.190  0.00  0.00    +0.000 C 
BRANCH  29  30
ATOM     30  C   UNL     1       2.125   2.655  21.520  0.00  0.00    +0.000 C 
ATOM     31  O   UNL     1       1.359   2.449  22.442  0.00  0.00    +0.000 OA
BRANCH  30  32
ATOM     32  O   UNL     1       3.436   2.314  21.586  0.00  0.00    +0.000 OA
ATOM     33  H   UNL     1       3.613   1.467  22.038  0.00  0.00    +0.000 HD
ENDBRANCH  30  32
ENDBRANCH  29  30
ENDBRANCH   2  29
TORSDOF 11
ENDMDL
MODEL 3
REMARK VINA RESULT:      -7.5      1.479      2.308
REMARK  Name = 
REMARK  13 active torsions:
REMARK  status: ('A' for Active; 'I' for Inactive)
REMARK    1  A    between atoms: C_1  and  O_2
REMARK    2  A    between atoms: O_2  and  C_3
REMARK    3  A    between atoms: C_7  and  C_8
REMARK    4  A    between atoms: C_8  and  C_14
REMARK    5  A    between atoms: C_9  and  C_10
REMARK    6  A    between atoms: C_10  and  C_11
REMARK    7  A    between atoms: C_11  and  O_13
REMARK    8  A    between atoms: C_18  and  O_19
REMARK    9  A    between atoms: O_19  and  C_20
REMARK   10  A    between atoms: C_21  and  C_22
REMARK   11  A    between atoms: C_22  and  O_24
REMARK   12  A    between atoms: C_27  and  C_28
REMARK   13  A    between atoms: C_28  and  O_30
REMARK                            x       y       z     vdW  Elec       q    Type
REMARK                         _______ _______ _______ _____ _____    ______ ____
ROOT
ATOM      1  C   UNL     1       2.462   5.699  19.852  0.00  0.00    +0.000 C 
ATOM      2  C   UNL     1       1.761   4.691  20.417  0.00  0.00    +0.000 C 
ENDROOT
BRANCH   1   7
ATOM      3  C   UNL     1       5.976   4.847  17.473  0.00  0.00    +0.000 A 
ATOM      4  C   UNL     1       4.678   4.582  16.984  0.00  0.00    +0.000 A 
ATOM      5 CL   UNL     1       4.325   3.796  15.484  0.00  0.00    +0.000 Cl
ATOM      6  C   UNL     1       3.540   4.894  17.750  0.00  0.00    +0.000 A 
ATOM      7  C   UNL     1       3.661   5.449  19.020  0.00  0.00    +0.000 A 
ATOM      8  C   UNL     1       4.940   5.696  19.520  0.00  0.00    +0.000 A 
ATOM      9  C   UNL     1       6.097   5.410  18.766  0.00  0.00    +0.000 A 
BRANCH   3  11
ATOM     10  C   UNL     1       7.396   4.933  15.508  0.00  0.00    +0.000 C 
ATOM     11  O   UNL     1       7.166   4.543  16.858  0.00  0.00    +0.000 OA
ENDBRANCH   3  11
BRANCH   9  12
ATOM     12  C   UNL     1       7.397   5.735  19.447  0.00  0.00    +0.000 C 
ATOM     13  O   UNL     1       7.746   5.191  20.484  0.00  0.00    +0.000 OA
BRANCH  12  14
ATOM     14  O   UNL     1       8.169   6.668  18.855  0.00  0.00    +0.000 OA
ATOM     15  H   UNL     1       8.054   6.701  17.884  0.00  0.00    +0.000 HD
ENDBRANCH  12  14
ENDBRANCH   9  12
ENDBRANCH   1   7
BRANCH   1  16
ATOM     16  C   UNL     1       1.920   7.064  20.060  0.00  0.00    +0.000 A 
ATOM     17  C   UNL     1       1.481   7.447  21.324  0.00  0.00    +0.000 A 
ATOM     18  C   UNL     1       0.962   8.732  21.564  0.00  0.00    +0.000 A 
ATOM     19 CL   UNL     1       0.480   8.992  23.203  0.00  0.00    +0.000 Cl
ATOM     20  C   UNL     1       0.883   9.681  20.522  0.00  0.00    +0.000 A 
ATOM     21  C   UNL     1       1.338   9.292  19.236  0.00  0.00    +0.000 A 
ATOM     22  C   UNL     1       1.850   7.991  19.022  0.00  0.00    +0.000 A 
BRANCH  20  23
ATOM     23  O   UNL     1       0.418  10.968  20.584  0.00  0.00    +0.000 OA
ATOM     24  C   UNL     1      -0.934  11.279  20.887  0.00  0.00    +0.000 C 
ENDBRANCH  20  23
BRANCH  21  25
ATOM     25  C   UNL     1       1.332  10.182  18.025  0.00  0.00    +0.000 C 
ATOM     26  O   UNL     1       2.361  10.457  17.423  0.00  0.00    +0.000 OA
BRANCH  25  27
ATOM     27  O   UNL     1       0.140  10.663  17.627  0.00  0.00    +0.000 OA
ATOM     28  H   UNL     1      -0.218  10.204  16.843  0.00  0.00    +0.000 HD
ENDBRANCH  25  27
ENDBRANCH  21  25
ENDBRANCH   1  16
BRANCH   2  29
ATOM     29  C   UNL     1       2.048   3.214  20.410  0.00  0.00    +0.000 C 
BRANCH  29  30
ATOM     30  C   UNL     1       1.394   2.409  19.289  0.00  0.00    +0.000 C 
ATOM     31  O   UNL     1       0.215   2.422  18.991  0.00  0.00    +0.000 OA
BRANCH  30  32
ATOM     32  O   UNL     1       2.291   1.629  18.635  0.00  0.00    +0.000 OA
ATOM     33  H   UNL     1       1.897   1.013  17.986  0.00  0.00    +0.000 HD
ENDBRANCH  30  32
ENDBRANCH  29  30
ENDBRANCH   2  29
TORSDOF 11
ENDMDL
MODEL 4
REMARK VINA RESULT:      -7.4      1.755      2.525
REMARK  Name = 
REMARK  13 active torsions:
REMARK  status: ('A' for Active; 'I' for Inactive)
REMARK    1  A    between atoms: C_1  and  O_2
REMARK    2  A    between atoms: O_2  and  C_3
REMARK    3  A    between atoms: C_7  and  C_8
REMARK    4  A    between atoms: C_8  and  C_14
REMARK    5  A    between atoms: C_9  and  C_10
REMARK    6  A    between atoms: C_10  and  C_11
REMARK    7  A    between atoms: C_11  and  O_13
REMARK    8  A    between atoms: C_18  and  O_19
REMARK    9  A    between atoms: O_19  and  C_20
REMARK   10  A    between atoms: C_21  and  C_22
REMARK   11  A    between atoms: C_22  and  O_24
REMARK   12  A    between atoms: C_27  and  C_28
REMARK   13  A    between atoms: C_28  and  O_30
REMARK                            x       y       z     vdW  Elec       q    Type
REMARK                         _______ _______ _______ _____ _____    ______ ____
ROOT
ATOM      1  C   UNL     1       2.190   5.872  19.812  0.00  0.00    +0.000 C 
ATOM      2  C   UNL     1       1.390   4.912  20.328  0.00  0.00    +0.000 C 
ENDROOT
BRANCH   1   7
ATOM      3  C   UNL     1       5.621   4.800  17.402  0.00  0.00    +0.000 A 
ATOM      4  C   UNL     1       4.306   4.542  16.960  0.00  0.00    +0.000 A 
ATOM      5 CL   UNL     1       3.896   3.682  15.515  0.00  0.00    +0.000 Cl
ATOM      6  C   UNL     1       3.195   4.924  17.734  0.00  0.00    +0.000 A 
ATOM      7  C   UNL     1       3.360   5.545  18.968  0.00  0.00    +0.000 A 
ATOM      8  C   UNL     1       4.657   5.788  19.423  0.00  0.00    +0.000 A 
ATOM      9  C   UNL     1       5.788   5.430  18.659  0.00  0.00    +0.000 A 
BRANCH   3  11
ATOM     10  C   UNL     1       7.135   4.995  15.517  0.00  0.00    +0.000 C 
ATOM     11  O   UNL     1       6.788   4.432  16.778  0.00  0.00    +0.000 OA
ENDBRANCH   3  11
BRANCH   9  12
ATOM     12  C   UNL     1       7.113   5.759  19.290  0.00  0.00    +0.000 C 
ATOM     13  O   UNL     1       7.459   5.293  20.365  0.00  0.00    +0.000 OA
BRANCH  12  14
ATOM     14  O   UNL     1       7.910   6.605  18.608  0.00  0.00    +0.000 OA
ATOM     15  H   UNL     1       8.760   6.779  19.059  0.00  0.00    +0.000 HD
ENDBRANCH  12  14
ENDBRANCH   9  12
ENDBRANCH   1   7
BRANCH   1  16
ATOM     16  C   UNL     1       1.783   7.272  20.087  0.00  0.00    +0.000 A 
ATOM     17  C   UNL     1       1.366   7.631  21.365  0.00  0.00    +0.000 A 
ATOM     18  C   UNL     1       0.975   8.948  21.667  0.00  0.00    +0.000 A 
ATOM     19 CL   UNL     1       0.497   9.171  23.314  0.00  0.00    +0.000 Cl
ATOM     20  C   UNL     1       1.007   9.953  20.677  0.00  0.00    +0.000 A 
ATOM     21  C   UNL     1       1.440   9.587  19.376  0.00  0.00    +0.000 A 
ATOM     22  C   UNL     1       1.823   8.254  19.098  0.00  0.00    +0.000 A 
BRANCH  20  23
ATOM     23  O   UNL     1       0.672  11.275  20.802  0.00  0.00    +0.000 OA
ATOM     24  C   UNL     1      -0.631  11.703  21.170  0.00  0.00    +0.000 C 
ENDBRANCH  20  23
BRANCH  21  25
ATOM     25  C   UNL     1       1.541  10.534  18.214  0.00  0.00    +0.000 C 
ATOM     26  O   UNL     1       2.541  10.586  17.511  0.00  0.00    +0.000 OA
BRANCH  25  27
ATOM     27  O   UNL     1       0.478  11.324  17.977  0.00  0.00    +0.000 OA
ATOM     28  H   UNL     1       0.546  11.821  17.138  0.00  0.00    +0.000 HD
ENDBRANCH  25  27
ENDBRANCH  21  25
ENDBRANCH   1  16
BRANCH   2  29
ATOM     29  C   UNL     1       1.531   3.415  20.249  0.00  0.00    +0.000 C 
BRANCH  29  30
ATOM     30  C   UNL     1       2.600   2.794  21.144  0.00  0.00    +0.000 C 
ATOM     31  O   UNL     1       2.501   2.584  22.338  0.00  0.00    +0.000 OA
BRANCH  30  32
ATOM     32  O   UNL     1       3.729   2.495  20.454  0.00  0.00    +0.000 OA
ATOM     33  H   UNL     1       4.203   1.704  20.774  0.00  0.00    +0.000 HD
ENDBRANCH  30  32
ENDBRANCH  29  30
ENDBRANCH   2  29
TORSDOF 11
ENDMDL
MODEL 5
REMARK VINA RESULT:      -7.2      1.103      1.152
REMARK  Name = 
REMARK  13 active torsions:
REMARK  status: ('A' for Active; 'I' for Inactive)
REMARK    1  A    between atoms: C_1  and  O_2
REMARK    2  A    between atoms: O_2  and  C_3
REMARK    3  A    between atoms: C_7  and  C_8
REMARK    4  A    between atoms: C_8  and  C_14
REMARK    5  A    between atoms: C_9  and  C_10
REMARK    6  A    between atoms: C_10  and  C_11
REMARK    7  A    between atoms: C_11  and  O_13
REMARK    8  A    between atoms: C_18  and  O_19
REMARK    9  A    between atoms: O_19  and  C_20
REMARK   10  A    between atoms: C_21  and  C_22
REMARK   11  A    between atoms: C_22  and  O_24
REMARK   12  A    between atoms: C_27  and  C_28
REMARK   13  A    between atoms: C_28  and  O_30
REMARK                            x       y       z     vdW  Elec       q    Type
REMARK                         _______ _______ _______ _____ _____    ______ ____
ROOT
ATOM      1  C   UNL     1       2.613   6.367  19.483  0.00  0.00    +0.000 C 
ATOM      2  C   UNL     1       1.997   5.250  19.928  0.00  0.00    +0.000 C 
ENDROOT
BRANCH   1   7
ATOM      3  C   UNL     1       6.137   6.071  16.988  0.00  0.00    +0.000 A 
ATOM      4  C   UNL     1       4.922   6.580  16.483  0.00  0.00    +0.000 A 
ATOM      5 CL   UNL     1       4.642   7.020  14.832  0.00  0.00    +0.000 Cl
ATOM      6  C   UNL     1       3.791   6.706  17.309  0.00  0.00    +0.000 A 
ATOM      7  C   UNL     1       3.829   6.308  18.642  0.00  0.00    +0.000 A 
ATOM      8  C   UNL     1       5.021   5.785  19.146  0.00  0.00    +0.000 A 
ATOM      9  C   UNL     1       6.175   5.665  18.344  0.00  0.00    +0.000 A 
BRANCH   3  11
ATOM     10  C   UNL     1       7.292   4.958  15.167  0.00  0.00    +0.000 C 
ATOM     11  O   UNL     1       7.294   5.844  16.283  0.00  0.00    +0.000 OA
ENDBRANCH   3  11
BRANCH   9  12
ATOM     12  C   UNL     1       7.375   5.083  19.038  0.00  0.00    +0.000 C 
ATOM     13  O   UNL     1       7.665   5.367  20.191  0.00  0.00    +0.000 OA
BRANCH  12  14
ATOM     14  O   UNL     1       8.126   4.225  18.321  0.00  0.00    +0.000 OA
ATOM     15  H   UNL     1       9.087   4.367  18.436  0.00  0.00    +0.000 HD
ENDBRANCH  12  14
ENDBRANCH   9  12
ENDBRANCH   1   7
BRANCH   1  16
ATOM     16  C   UNL     1       1.959   7.652  19.832  0.00  0.00    +0.000 A 
ATOM     17  C   UNL     1       1.910   8.679  18.893  0.00  0.00    +0.000 A 
ATOM     18  C   UNL     1       1.297   9.911  19.183  0.00  0.00    +0.000 A 
ATOM     19 CL   UNL     1       1.350  11.038  17.874  0.00  0.00    +0.000 Cl
ATOM     20  C   UNL     1       0.700  10.139  20.441  0.00  0.00    +0.000 A 
ATOM     21  C   UNL     1       0.744   9.089  21.395  0.00  0.00    +0.000 A 
ATOM     22  C   UNL     1       1.371   7.861  21.078  0.00  0.00    +0.000 A 
BRANCH  20  23
ATOM     23  O   UNL     1       0.059  11.266  20.882  0.00  0.00    +0.000 OA
ATOM     24  C   UNL     1       0.731  12.502  21.075  0.00  0.00    +0.000 C 
ENDBRANCH  20  23
BRANCH  21  25
ATOM     25  C   UNL     1       0.150   9.164  22.773  0.00  0.00    +0.000 C 
ATOM     26  O   UNL     1       0.737   9.705  23.699  0.00  0.00    +0.000 OA
BRANCH  25  27
ATOM     27  O   UNL     1      -1.065   8.609  22.944  0.00  0.00    +0.000 OA
ATOM     28  H   UNL     1      -1.522   8.925  23.748  0.00  0.00    +0.000 HD
ENDBRANCH  25  27
ENDBRANCH  21  25
ENDBRANCH   1  16
BRANCH   2  29
ATOM     29  C   UNL     1       2.405   3.810  19.764  0.00  0.00    +0.000 C 
BRANCH  29  30
ATOM     30  C   UNL     1       2.108   3.180  18.406  0.00  0.00    +0.000 C 
ATOM     31  O   UNL     1       1.202   3.488  17.655  0.00  0.00    +0.000 OA
BRANCH  30  32
ATOM     32  O   UNL     1       2.981   2.186  18.105  0.00  0.00    +0.000 OA
ATOM     33  H   UNL     1       2.947   1.419  18.709  0.00  0.00    +0.000 HD
ENDBRANCH  30  32
ENDBRANCH  29  30
ENDBRANCH   2  29
TORSDOF 11
ENDMDL
MODEL 6
REMARK VINA RESULT:      -7.2      1.197      1.453
REMARK  Name = 
REMARK  13 active torsions:
REMARK  status: ('A' for Active; 'I' for Inactive)
REMARK    1  A    between atoms: C_1  and  O_2
REMARK    2  A    between atoms: O_2  and  C_3
REMARK    3  A    between atoms: C_7  and  C_8
REMARK    4  A    between atoms: C_8  and  C_14
REMARK    5  A    between atoms: C_9  and  C_10
REMARK    6  A    between atoms: C_10  and  C_11
REMARK    7  A    between atoms: C_11  and  O_13
REMARK    8  A    between atoms: C_18  and  O_19
REMARK    9  A    between atoms: O_19  and  C_20
REMARK   10  A    between atoms: C_21  and  C_22
REMARK   11  A    between atoms: C_22  and  O_24
REMARK   12  A    between atoms: C_27  and  C_28
REMARK   13  A    between atoms: C_28  and  O_30
REMARK                            x       y       z     vdW  Elec       q    Type
REMARK                         _______ _______ _______ _____ _____    ______ ____
ROOT
ATOM      1  C   UNL     1       2.507   5.821  20.197  0.00  0.00    +0.000 C 
ATOM      2  C   UNL     1       2.133   5.037  21.232  0.00  0.00    +0.000 C 
ENDROOT
BRANCH   1   7
ATOM      3  C   UNL     1       5.045   4.236  17.070  0.00  0.00    +0.000 A 
ATOM      4  C   UNL     1       3.651   4.016  17.065  0.00  0.00    +0.000 A 
ATOM      5 CL   UNL     1       2.810   3.017  15.929  0.00  0.00    +0.000 Cl
ATOM      6  C   UNL     1       2.828   4.563  18.066  0.00  0.00    +0.000 A 
ATOM      7  C   UNL     1       3.367   5.316  19.104  0.00  0.00    +0.000 A 
ATOM      8  C   UNL     1       4.747   5.524  19.129  0.00  0.00    +0.000 A 
ATOM      9  C   UNL     1       5.592   5.001  18.128  0.00  0.00    +0.000 A 
BRANCH   3  11
ATOM     10  C   UNL     1       6.062   4.232  14.867  0.00  0.00    +0.000 C 
ATOM     11  O   UNL     1       5.966   3.718  16.192  0.00  0.00    +0.000 OA
ENDBRANCH   3  11
BRANCH   9  12
ATOM     12  C   UNL     1       7.053   5.315  18.301  0.00  0.00    +0.000 C 
ATOM     13  O   UNL     1       7.452   6.434  18.589  0.00  0.00    +0.000 OA
BRANCH  12  14
ATOM     14  O   UNL     1       7.913   4.293  18.118  0.00  0.00    +0.000 OA
ATOM     15  H   UNL     1       7.486   3.416  18.190  0.00  0.00    +0.000 HD
ENDBRANCH  12  14
ENDBRANCH   9  12
ENDBRANCH   1   7
BRANCH   1  16
ATOM     16  C   UNL     1       1.948   7.195  20.189  0.00  0.00    +0.000 A 
ATOM     17  C   UNL     1       2.105   7.997  19.061  0.00  0.00    +0.000 A 
ATOM     18  C   UNL     1       1.588   9.304  19.012  0.00  0.00    +0.000 A 
ATOM     19 CL   UNL     1       1.896  10.117  17.518  0.00  0.00    +0.000 Cl
ATOM     20  C   UNL     1       0.879   9.839  20.109  0.00  0.00    +0.000 A 
ATOM     21  C   UNL     1       0.712   9.018  21.254  0.00  0.00    +0.000 A 
ATOM     22  C   UNL     1       1.247   7.708  21.279  0.00  0.00    +0.000 A 
BRANCH  20  23
ATOM     23  O   UNL     1       0.307  11.077  20.223  0.00  0.00    +0.000 OA
ATOM     24  C   UNL     1       1.071  12.274  20.248  0.00  0.00    +0.000 C 
ENDBRANCH  20  23
BRANCH  21  25
ATOM     25  C   UNL     1      -0.022   9.429  22.499  0.00  0.00    +0.000 C 
ATOM     26  O   UNL     1       0.305  10.417  23.141  0.00  0.00    +0.000 OA
BRANCH  25  27
ATOM     27  O   UNL     1      -1.062   8.662  22.875  0.00  0.00    +0.000 OA
ATOM     28  H   UNL     1      -0.913   7.709  22.723  0.00  0.00    +0.000 HD
ENDBRANCH  25  27
ENDBRANCH  21  25
ENDBRANCH   1  16
BRANCH   2  29
ATOM     29  C   UNL     1       2.531   3.618  21.542  0.00  0.00    +0.000 C 
BRANCH  29  30
ATOM     30  C   UNL     1       1.392   2.606  21.631  0.00  0.00    +0.000 C 
ATOM     31  O   UNL     1       1.149   1.881  22.577  0.00  0.00    +0.000 OA
BRANCH  30  32
ATOM     32  O   UNL     1       0.648   2.577  20.496  0.00  0.00    +0.000 OA
ATOM     33  H   UNL     1      -0.257   2.931  20.595  0.00  0.00    +0.000 HD
ENDBRANCH  30  32
ENDBRANCH  29  30
ENDBRANCH   2  29
TORSDOF 11
ENDMDL
MODEL 7
REMARK VINA RESULT:      -7.1      1.956      2.752
REMARK  Name = 
REMARK  13 active torsions:
REMARK  status: ('A' for Active; 'I' for Inactive)
REMARK    1  A    between atoms: C_1  and  O_2
REMARK    2  A    between atoms: O_2  and  C_3
REMARK    3  A    between atoms: C_7  and  C_8
REMARK    4  A    between atoms: C_8  and  C_14
REMARK    5  A    between atoms: C_9  and  C_10
REMARK    6  A    between atoms: C_10  and  C_11
REMARK    7  A    between atoms: C_11  and  O_13
REMARK    8  A    between atoms: C_18  and  O_19
REMARK    9  A    between atoms: O_19  and  C_20
REMARK   10  A    between atoms: C_21  and  C_22
REMARK   11  A    between atoms: C_22  and  O_24
REMARK   12  A    between atoms: C_27  and  C_28
REMARK   13  A    between atoms: C_28  and  O_30
REMARK                            x       y       z     vdW  Elec       q    Type
REMARK                         _______ _______ _______ _____ _____    ______ ____
ROOT
ATOM      1  C   UNL     1       2.505   6.430  19.509  0.00  0.00    +0.000 C 
ATOM      2  C   UNL     1       1.835   5.322  19.895  0.00  0.00    +0.000 C 
ENDROOT
BRANCH   1   7
ATOM      3  C   UNL     1       6.045   6.088  17.042  0.00  0.00    +0.000 A 
ATOM      4  C   UNL     1       4.838   6.604  16.524  0.00  0.00    +0.000 A 
ATOM      5 CL   UNL     1       4.574   7.035  14.869  0.00  0.00    +0.000 Cl
ATOM      6  C   UNL     1       3.702   6.744  17.341  0.00  0.00    +0.000 A 
ATOM      7  C   UNL     1       3.727   6.354  18.677  0.00  0.00    +0.000 A 
ATOM      8  C   UNL     1       4.910   5.825  19.194  0.00  0.00    +0.000 A 
ATOM      9  C   UNL     1       6.069   5.690  18.401  0.00  0.00    +0.000 A 
BRANCH   3  11
ATOM     10  C   UNL     1       7.226   4.881  15.300  0.00  0.00    +0.000 C 
ATOM     11  O   UNL     1       7.205   5.846  16.347  0.00  0.00    +0.000 OA
ENDBRANCH   3  11
BRANCH   9  12
ATOM     12  C   UNL     1       7.259   5.103  19.107  0.00  0.00    +0.000 C 
ATOM     13  O   UNL     1       7.550   5.402  20.256  0.00  0.00    +0.000 OA
BRANCH  12  14
ATOM     14  O   UNL     1       8.001   4.223  18.406  0.00  0.00    +0.000 OA
ATOM     15  H   UNL     1       8.948   4.463  18.369  0.00  0.00    +0.000 HD
ENDBRANCH  12  14
ENDBRANCH   9  12
ENDBRANCH   1   7
BRANCH   1  16
ATOM     16  C   UNL     1       1.905   7.725  19.910  0.00  0.00    +0.000 A 
ATOM     17  C   UNL     1       1.373   7.873  21.188  0.00  0.00    +0.000 A 
ATOM     18  C   UNL     1       0.797   9.085  21.609  0.00  0.00    +0.000 A 
ATOM     19 CL   UNL     1       0.202   9.045  23.231  0.00  0.00    +0.000 Cl
ATOM     20  C   UNL     1       0.753  10.199  20.744  0.00  0.00    +0.000 A 
ATOM     21  C   UNL     1       1.304  10.050  19.445  0.00  0.00    +0.000 A 
ATOM     22  C   UNL     1       1.872   8.818  19.045  0.00  0.00    +0.000 A 
BRANCH  20  23
ATOM     23  O   UNL     1       0.243  11.445  20.994  0.00  0.00    +0.000 OA
ATOM     24  C   UNL     1      -1.142  11.675  21.207  0.00  0.00    +0.000 C 
ENDBRANCH  20  23
BRANCH  21  25
ATOM     25  C   UNL     1       1.346  11.137  18.408  0.00  0.00    +0.000 C 
ATOM     26  O   UNL     1       2.404  11.580  17.983  0.00  0.00    +0.000 OA
BRANCH  25  27
ATOM     27  O   UNL     1       0.164  11.601  17.962  0.00  0.00    +0.000 OA
ATOM     28  H   UNL     1      -0.603  11.201  18.416  0.00  0.00    +0.000 HD
ENDBRANCH  25  27
ENDBRANCH  21  25
ENDBRANCH   1  16
BRANCH   2  29
ATOM     29  C   UNL     1       2.181   3.874  19.669  0.00  0.00    +0.000 C 
BRANCH  29  30
ATOM     30  C   UNL     1       2.826   3.147  20.846  0.00  0.00    +0.000 C 
ATOM     31  O   UNL     1       3.798   2.417  20.792  0.00  0.00    +0.000 OA
BRANCH  30  32
ATOM     32  O   UNL     1       2.175   3.389  22.011  0.00  0.00    +0.000 OA
ATOM     33  H   UNL     1       2.424   2.796  22.746  0.00  0.00    +0.000 HD
ENDBRANCH  30  32
ENDBRANCH  29  30
ENDBRANCH   2  29
TORSDOF 11
ENDMDL
MODEL 8
REMARK VINA RESULT:      -6.9      2.432      7.992
REMARK  Name = 
REMARK  13 active torsions:
REMARK  status: ('A' for Active; 'I' for Inactive)
REMARK    1  A    between atoms: C_1  and  O_2
REMARK    2  A    between atoms: O_2  and  C_3
REMARK    3  A    between atoms: C_7  and  C_8
REMARK    4  A    between atoms: C_8  and  C_14
REMARK    5  A    between atoms: C_9  and  C_10
REMARK    6  A    between atoms: C_10  and  C_11
REMARK    7  A    between atoms: C_11  and  O_13
REMARK    8  A    between atoms: C_18  and  O_19
REMARK    9  A    between atoms: O_19  and  C_20
REMARK   10  A    between atoms: C_21  and  C_22
REMARK   11  A    between atoms: C_22  and  O_24
REMARK   12  A    between atoms: C_27  and  C_28
REMARK   13  A    between atoms: C_28  and  O_30
REMARK                            x       y       z     vdW  Elec       q    Type
REMARK                         _______ _______ _______ _____ _____    ______ ____
ROOT
ATOM      1  C   UNL     1       0.682   8.415  20.524  0.00  0.00    +0.000 C 
ATOM      2  C   UNL     1       0.057   8.123  21.686  0.00  0.00    +0.000 C 
ENDROOT
BRANCH   1   7
ATOM      3  C   UNL     1       0.166  12.301  18.689  0.00  0.00    +0.000 A 
ATOM      4  C   UNL     1       1.292  12.012  19.490  0.00  0.00    +0.000 A 
ATOM      5 CL   UNL     1       2.509  13.157  19.940  0.00  0.00    +0.000 Cl
ATOM      6  C   UNL     1       1.470  10.736  20.055  0.00  0.00    +0.000 A 
ATOM      7  C   UNL     1       0.529   9.729  19.861  0.00  0.00    +0.000 A 
ATOM      8  C   UNL     1      -0.597  10.010  19.087  0.00  0.00    +0.000 A 
ATOM      9  C   UNL     1      -0.791  11.276  18.494  0.00  0.00    +0.000 A 
BRANCH   3  11
ATOM     10  C   UNL     1      -0.429  14.637  18.957  0.00  0.00    +0.000 C 
ATOM     11  O   UNL     1      -0.158  13.512  18.127  0.00  0.00    +0.000 OA
ENDBRANCH   3  11
BRANCH   9  12
ATOM     12  C   UNL     1      -2.055  11.416  17.691  0.00  0.00    +0.000 C 
ATOM     13  O   UNL     1      -3.155  11.146  18.151  0.00  0.00    +0.000 OA
BRANCH  12  14
ATOM     14  O   UNL     1      -1.916  11.857  16.425  0.00  0.00    +0.000 OA
ATOM     15  H   UNL     1      -2.584  12.527  16.178  0.00  0.00    +0.000 HD
ENDBRANCH  12  14
ENDBRANCH   9  12
ENDBRANCH   1   7
BRANCH   1  16
ATOM     16  C   UNL     1       1.583   7.364  19.990  0.00  0.00    +0.000 A 
ATOM     17  C   UNL     1       2.407   7.648  18.904  0.00  0.00    +0.000 A 
ATOM     18  C   UNL     1       3.277   6.680  18.369  0.00  0.00    +0.000 A 
ATOM     19 CL   UNL     1       4.207   7.248  17.028  0.00  0.00    +0.000 Cl
ATOM     20  C   UNL     1       3.347   5.388  18.931  0.00  0.00    +0.000 A 
ATOM     21  C   UNL     1       2.512   5.102  20.043  0.00  0.00    +0.000 A 
ATOM     22  C   UNL     1       1.643   6.092  20.557  0.00  0.00    +0.000 A 
BRANCH  20  23
ATOM     23  O   UNL     1       4.138   4.339  18.544  0.00  0.00    +0.000 OA
ATOM     24  C   UNL     1       5.548   4.343  18.709  0.00  0.00    +0.000 C 
ENDBRANCH  20  23
BRANCH  21  25
ATOM     25  C   UNL     1       2.472   3.783  20.761  0.00  0.00    +0.000 C 
ATOM     26  O   UNL     1       2.335   3.715  21.975  0.00  0.00    +0.000 OA
BRANCH  25  27
ATOM     27  O   UNL     1       2.590   2.674  20.008  0.00  0.00    +0.000 OA
ATOM     28  H   UNL     1       1.879   2.583  19.343  0.00  0.00    +0.000 HD
ENDBRANCH  25  27
ENDBRANCH  21  25
ENDBRANCH   1  16
BRANCH   2  29
ATOM     29  C   UNL     1      -0.922   8.954  22.472  0.00  0.00    +0.000 C 
BRANCH  29  30
ATOM     30  C   UNL     1      -0.322  10.065  23.330  0.00  0.00    +0.000 C 
ATOM     31  O   UNL     1      -0.594  11.249  23.261  0.00  0.00    +0.000 OA
BRANCH  30  32
ATOM     32  O   UNL     1       0.598   9.590  24.206  0.00  0.00    +0.000 OA
ATOM     33  H   UNL     1       1.358   9.138  23.792  0.00  0.00    +0.000 HD
ENDBRANCH  30  32
ENDBRANCH  29  30
ENDBRANCH   2  29
TORSDOF 11
ENDMDL
MODEL 9
REMARK VINA RESULT:      -6.9      1.252      7.041
REMARK  Name = 
REMARK  13 active torsions:
REMARK  status: ('A' for Active; 'I' for Inactive)
REMARK    1  A    between atoms: C_1  and  O_2
REMARK    2  A    between atoms: O_2  and  C_3
REMARK    3  A    between atoms: C_7  and  C_8
REMARK    4  A    between atoms: C_8  and  C_14
REMARK    5  A    between atoms: C_9  and  C_10
REMARK    6  A    between atoms: C_10  and  C_11
REMARK    7  A    between atoms: C_11  and  O_13
REMARK    8  A    between atoms: C_18  and  O_19
REMARK    9  A    between atoms: O_19  and  C_20
REMARK   10  A    between atoms: C_21  and  C_22
REMARK   11  A    between atoms: C_22  and  O_24
REMARK   12  A    between atoms: C_27  and  C_28
REMARK   13  A    between atoms: C_28  and  O_30
REMARK                            x       y       z     vdW  Elec       q    Type
REMARK                         _______ _______ _______ _____ _____    ______ ____
ROOT
ATOM      1  C   UNL     1       3.029   5.986  19.146  0.00  0.00    +0.000 C 
ATOM      2  C   UNL     1       2.712   4.864  19.829  0.00  0.00    +0.000 C 
ENDROOT
BRANCH   1   7
ATOM      3  C   UNL     1       1.053   9.771  19.853  0.00  0.00    +0.000 A 
ATOM      4  C   UNL     1       1.772   9.531  18.663  0.00  0.00    +0.000 A 
ATOM      5 CL   UNL     1       2.063  10.706  17.425  0.00  0.00    +0.000 Cl
ATOM      6  C   UNL     1       2.382   8.286  18.425  0.00  0.00    +0.000 A 
ATOM      7  C   UNL     1       2.317   7.264  19.367  0.00  0.00    +0.000 A 
ATOM      8  C   UNL     1       1.625   7.498  20.556  0.00  0.00    +0.000 A 
ATOM      9  C   UNL     1       0.989   8.731  20.812  0.00  0.00    +0.000 A 
BRANCH   3  11
ATOM     10  C   UNL     1      -0.776  11.353  19.655  0.00  0.00    +0.000 C 
ATOM     11  O   UNL     1       0.461  10.950  20.235  0.00  0.00    +0.000 OA
ENDBRANCH   3  11
BRANCH   9  12
ATOM     12  C   UNL     1       0.286   8.823  22.138  0.00  0.00    +0.000 C 
ATOM     13  O   UNL     1      -0.776   8.259  22.355  0.00  0.00    +0.000 OA
BRANCH  12  14
ATOM     14  O   UNL     1       0.889   9.566  23.087  0.00  0.00    +0.000 OA
ATOM     15  H   UNL     1       1.260  10.402  22.741  0.00  0.00    +0.000 HD
ENDBRANCH  12  14
ENDBRANCH   9  12
ENDBRANCH   1   7
BRANCH   1  16
ATOM     16  C   UNL     1       4.176   5.875  18.212  0.00  0.00    +0.000 A 
ATOM     17  C   UNL     1       4.084   5.042  17.101  0.00  0.00    +0.000 A 
ATOM     18  C   UNL     1       5.148   4.910  16.190  0.00  0.00    +0.000 A 
ATOM     19 CL   UNL     1       4.816   3.826  14.886  0.00  0.00    +0.000 Cl
ATOM     20  C   UNL     1       6.344   5.636  16.373  0.00  0.00    +0.000 A 
ATOM     21  C   UNL     1       6.434   6.492  17.501  0.00  0.00    +0.000 A 
ATOM     22  C   UNL     1       5.350   6.601  18.404  0.00  0.00    +0.000 A 
BRANCH  20  23
ATOM     23  O   UNL     1       7.463   5.634  15.584  0.00  0.00    +0.000 OA
ATOM     24  C   UNL     1       7.452   5.172  14.241  0.00  0.00    +0.000 C 
ENDBRANCH  20  23
BRANCH  21  25
ATOM     25  C   UNL     1       7.629   7.339  17.835  0.00  0.00    +0.000 C 
ATOM     26  O   UNL     1       7.901   8.348  17.198  0.00  0.00    +0.000 OA
BRANCH  25  27
ATOM     27  O   UNL     1       8.389   6.940  18.872  0.00  0.00    +0.000 OA
ATOM     28  H   UNL     1       9.065   6.281  18.622  0.00  0.00    +0.000 HD
ENDBRANCH  25  27
ENDBRANCH  21  25
ENDBRANCH   1  16
BRANCH   2  29
ATOM     29  C   UNL     1       1.607   4.639  20.826  0.00  0.00    +0.000 C 
BRANCH  29  30
ATOM     30  C   UNL     1       1.249   3.183  21.114  0.00  0.00    +0.000 C 
ATOM     31  O   UNL     1       1.636   2.523  22.060  0.00  0.00    +0.000 OA
BRANCH  30  32
ATOM     32  O   UNL     1       0.434   2.663  20.163  0.00  0.00    +0.000 OA
ATOM     33  H   UNL     1       0.503   3.094  19.289  0.00  0.00    +0.000 HD
ENDBRANCH  30  32
ENDBRANCH  29  30
ENDBRANCH   2  29
TORSDOF 11
ENDMDL
