MODEL 1
REMARK VINA RESULT:      -7.9      0.000      0.000
REMARK  Name = 
REMARK  4 active torsions:
REMARK  status: ('A' for Active; 'I' for Inactive)
REMARK    1  A    between atoms: C_2  and  C_3
REMARK    2  A    between atoms: C_3  and  N_4
REMARK    3  A    between atoms: C_16  and  C_17
REMARK    4  A    between atoms: C_20  and  C_21
REMARK                            x       y       z     vdW  Elec       q    Type
REMARK                         _______ _______ _______ _____ _____    ______ ____
ROOT
ATOM      1  O   UNL     1       0.569   8.860  21.493  0.00  0.00    +0.000 OA
ATOM      2  C   UNL     1       1.113   8.832  20.384  0.00  0.00    +0.000 C 
ATOM      3  N   UNL     1       1.746   7.688  19.908  0.00  0.00    +0.000 N 
ATOM      4  C   UNL     1       2.512   7.603  18.666  0.00  0.00    +0.000 C 
ATOM      5  C   UNL     1       2.119   6.366  17.865  0.00  0.00    +0.000 C 
ATOM      6  C   UNL     1       2.170   5.082  18.699  0.00  0.00    +0.000 C 
ATOM      7  C   UNL     1       1.432   5.247  20.033  0.00  0.00    +0.000 C 
ATOM      8  C   UNL     1       1.834   6.518  20.779  0.00  0.00    +0.000 C 
ENDROOT
BRANCH   6   9
ATOM      9  C   UNL     1       3.569   4.614  18.907  0.00  0.00    +0.000 A 
ATOM     10  N   UNL     1       4.060   3.725  19.743  0.00  0.00    +0.000 NA
ATOM     11  N   UNL     1       5.409   3.640  19.468  0.00  0.00    +0.000 NA
ATOM     12  C   UNL     1       5.646   4.489  18.489  0.00  0.00    +0.000 A 
ATOM     13  O   UNL     1       4.517   5.155  18.089  0.00  0.00    +0.000 OA
BRANCH  12  14
ATOM     14  C   UNL     1       7.006   4.694  17.850  0.00  0.00    +0.000 C 
ATOM     15  C   UNL     1       7.064   4.764  16.335  0.00  0.00    +0.000 C 
ATOM     16  C   UNL     1       7.279   6.002  17.135  0.00  0.00    +0.000 C 
ENDBRANCH  12  14
ENDBRANCH   6   9
BRANCH   2  17
ATOM     17  C   UNL     1       1.072  10.066  19.503  0.00  0.00    +0.000 C 
BRANCH  17  18
ATOM     18  N   UNL     1      -0.225  10.731  19.507  0.00  0.00    +0.000 N 
ATOM     19  C   UNL     1      -0.619  11.668  20.434  0.00  0.00    +0.000 A 
ATOM     20  C   UNL     1      -1.879  12.100  20.097  0.00  0.00    +0.000 A 
ATOM     21  C   UNL     1      -2.265  11.423  18.911  0.00  0.00    +0.000 A 
ATOM     22  C   UNL     1      -3.417  11.471  18.102  0.00  0.00    +0.000 A 
ATOM     23  C   UNL     1      -3.495  10.662  16.964  0.00  0.00    +0.000 A 
ATOM     24  C   UNL     1      -2.443   9.815  16.628  0.00  0.00    +0.000 A 
ATOM     25  C   UNL     1      -1.287   9.754  17.412  0.00  0.00    +0.000 A 
ATOM     26  C   UNL     1      -1.216  10.567  18.556  0.00  0.00    +0.000 A 
ENDBRANCH  17  18
ENDBRANCH   2  17
TORSDOF 4
ENDMDL
MODEL 2
REMARK VINA RESULT:      -7.7      0.775      1.838
REMARK  Name = 
REMARK  4 active torsions:
REMARK  status: ('A' for Active; 'I' for Inactive)
REMARK    1  A    between atoms: C_2  and  C_3
REMARK    2  A    between atoms: C_3  and  N_4
REMARK    3  A    between atoms: C_16  and  C_17
REMARK    4  A    between atoms: C_20  and  C_21
REMARK                            x       y       z     vdW  Elec       q    Type
REMARK                         _______ _______ _______ _____ _____    ______ ____
ROOT
ATOM      1  O   UNL     1       0.380   8.584  21.602  0.00  0.00    +0.000 OA
ATOM      2  C   UNL     1       1.022   8.702  20.553  0.00  0.00    +0.000 C 
ATOM      3  N   UNL     1       1.724   7.635  20.000  0.00  0.00    +0.000 N 
ATOM      4  C   UNL     1       2.600   7.717  18.832  0.00  0.00    +0.000 C 
ATOM      5  C   UNL     1       2.311   6.585  17.852  0.00  0.00    +0.000 C 
ATOM      6  C   UNL     1       2.319   5.208  18.522  0.00  0.00    +0.000 C 
ATOM      7  C   UNL     1       1.461   5.194  19.792  0.00  0.00    +0.000 C 
ATOM      8  C   UNL     1       1.762   6.366  20.723  0.00  0.00    +0.000 C 
ENDROOT
BRANCH   6   9
ATOM      9  C   UNL     1       3.706   4.737  18.798  0.00  0.00    +0.000 A 
ATOM     10  N   UNL     1       4.137   3.705  19.489  0.00  0.00    +0.000 NA
ATOM     11  N   UNL     1       5.512   3.706  19.368  0.00  0.00    +0.000 NA
ATOM     12  C   UNL     1       5.820   4.745  18.617  0.00  0.00    +0.000 A 
ATOM     13  O   UNL     1       4.715   5.454  18.228  0.00  0.00    +0.000 OA
BRANCH  12  14
ATOM     14  C   UNL     1       7.234   5.106  18.203  0.00  0.00    +0.000 C 
ATOM     15  C   UNL     1       7.593   6.581  18.155  0.00  0.00    +0.000 C 
ATOM     16  C   UNL     1       8.154   5.724  19.237  0.00  0.00    +0.000 C 
ENDBRANCH  12  14
ENDBRANCH   6   9
BRANCH   2  17
ATOM     17  C   UNL     1       1.030  10.036  19.831  0.00  0.00    +0.000 C 
BRANCH  17  18
ATOM     18  N   UNL     1      -0.190  10.284  19.070  0.00  0.00    +0.000 N 
ATOM     19  C   UNL     1      -0.482   9.707  17.857  0.00  0.00    +0.000 A 
ATOM     20  C   UNL     1      -1.726  10.141  17.466  0.00  0.00    +0.000 A 
ATOM     21  C   UNL     1      -2.224  10.997  18.482  0.00  0.00    +0.000 A 
ATOM     22  C   UNL     1      -3.430  11.706  18.644  0.00  0.00    +0.000 A 
ATOM     23  C   UNL     1      -3.628  12.478  19.794  0.00  0.00    +0.000 A 
ATOM     24  C   UNL     1      -2.644  12.546  20.775  0.00  0.00    +0.000 A 
ATOM     25  C   UNL     1      -1.441  11.847  20.640  0.00  0.00    +0.000 A 
ATOM     26  C   UNL     1      -1.247  11.075  19.482  0.00  0.00    +0.000 A 
ENDBRANCH  17  18
ENDBRANCH   2  17
TORSDOF 4
ENDMDL
MODEL 3
REMARK VINA RESULT:      -7.7      4.125      6.501
REMARK  Name = 
REMARK  4 active torsions:
REMARK  status: ('A' for Active; 'I' for Inactive)
REMARK    1  A    between atoms: C_2  and  C_3
REMARK    2  A    between atoms: C_3  and  N_4
REMARK    3  A    between atoms: C_16  and  C_17
REMARK    4  A    between atoms: C_20  and  C_21
REMARK                            x       y       z     vdW  Elec       q    Type
REMARK                         _______ _______ _______ _____ _____    ______ ____
ROOT
ATOM      1  O   UNL     1       3.641   8.359  18.159  0.00  0.00    +0.000 OA
ATOM      2  C   UNL     1       3.417   7.227  17.719  0.00  0.00    +0.000 C 
ATOM      3  N   UNL     1       4.383   6.510  17.019  0.00  0.00    +0.000 N 
ATOM      4  C   UNL     1       4.166   5.220  16.365  0.00  0.00    +0.000 C 
ATOM      5  C   UNL     1       5.286   4.241  16.702  0.00  0.00    +0.000 C 
ATOM      6  C   UNL     1       6.678   4.826  16.446  0.00  0.00    +0.000 C 
ATOM      7  C   UNL     1       6.829   6.217  17.072  0.00  0.00    +0.000 C 
ATOM      8  C   UNL     1       5.666   7.148  16.735  0.00  0.00    +0.000 C 
ENDROOT
BRANCH   6   9
ATOM      9  C   UNL     1       7.010   4.845  14.994  0.00  0.00    +0.000 A 
ATOM     10  N   UNL     1       7.944   5.497  14.338  0.00  0.00    +0.000 NA
ATOM     11  N   UNL     1       7.839   5.102  13.020  0.00  0.00    +0.000 NA
ATOM     12  C   UNL     1       6.842   4.241  12.966  0.00  0.00    +0.000 A 
ATOM     13  O   UNL     1       6.259   4.040  14.189  0.00  0.00    +0.000 OA
BRANCH  12  14
ATOM     14  C   UNL     1       6.400   3.529  11.703  0.00  0.00    +0.000 C 
ATOM     15  C   UNL     1       6.182   2.029  11.785  0.00  0.00    +0.000 C 
ATOM     16  C   UNL     1       5.006   2.935  11.658  0.00  0.00    +0.000 C 
ENDBRANCH  12  14
ENDBRANCH   6   9
BRANCH   2  17
ATOM     17  C   UNL     1       2.064   6.586  17.964  0.00  0.00    +0.000 C 
BRANCH  17  18
ATOM     18  N   UNL     1       2.046   5.711  19.131  0.00  0.00    +0.000 N 
ATOM     19  C   UNL     1       2.115   6.147  20.433  0.00  0.00    +0.000 A 
ATOM     20  C   UNL     1       2.030   5.050  21.256  0.00  0.00    +0.000 A 
ATOM     21  C   UNL     1       1.885   3.903  20.433  0.00  0.00    +0.000 A 
ATOM     22  C   UNL     1       1.733   2.529  20.707  0.00  0.00    +0.000 A 
ATOM     23  C   UNL     1       1.603   1.625  19.648  0.00  0.00    +0.000 A 
ATOM     24  C   UNL     1       1.622   2.075  18.331  0.00  0.00    +0.000 A 
ATOM     25  C   UNL     1       1.765   3.433  18.034  0.00  0.00    +0.000 A 
ATOM     26  C   UNL     1       1.897   4.336  19.102  0.00  0.00    +0.000 A 
ENDBRANCH  17  18
ENDBRANCH   2  17
TORSDOF 4
ENDMDL
MODEL 4
REMARK VINA RESULT:      -7.6      1.866      8.272
REMARK  Name = 
REMARK  4 active torsions:
REMARK  status: ('A' for Active; 'I' for Inactive)
REMARK    1  A    between atoms: C_2  and  C_3
REMARK    2  A    between atoms: C_3  and  N_4
REMARK    3  A    between atoms: C_16  and  C_17
REMARK    4  A    between atoms: C_20  and  C_21
REMARK                            x       y       z     vdW  Elec       q    Type
REMARK                         _______ _______ _______ _____ _____    ______ ____
ROOT
ATOM      1  O   UNL     1       2.427   6.835  20.307  0.00  0.00    +0.000 OA
ATOM      2  C   UNL     1       2.351   7.532  19.290  0.00  0.00    +0.000 C 
ATOM      3  N   UNL     1       1.550   8.670  19.240  0.00  0.00    +0.000 N 
ATOM      4  C   UNL     1       1.311   9.481  18.047  0.00  0.00    +0.000 C 
ATOM      5  C   UNL     1       1.470  10.966  18.356  0.00  0.00    +0.000 C 
ATOM      6  C   UNL     1       0.644  11.409  19.567  0.00  0.00    +0.000 C 
ATOM      7  C   UNL     1       0.855  10.476  20.765  0.00  0.00    +0.000 C 
ATOM      8  C   UNL     1       0.723   9.000  20.398  0.00  0.00    +0.000 C 
ENDROOT
BRANCH   6   9
ATOM      9  C   UNL     1      -0.802  11.541  19.231  0.00  0.00    +0.000 A 
ATOM     10  N   UNL     1      -1.756  12.235  19.811  0.00  0.00    +0.000 NA
ATOM     11  N   UNL     1      -2.892  12.041  19.051  0.00  0.00    +0.000 NA
ATOM     12  C   UNL     1      -2.549  11.236  18.066  0.00  0.00    +0.000 A 
ATOM     13  O   UNL     1      -1.232  10.866  18.126  0.00  0.00    +0.000 OA
BRANCH  12  14
ATOM     14  C   UNL     1      -3.494  10.784  16.969  0.00  0.00    +0.000 C 
ATOM     15  C   UNL     1      -3.113  11.117  15.537  0.00  0.00    +0.000 C 
ATOM     16  C   UNL     1      -3.026   9.707  16.010  0.00  0.00    +0.000 C 
ENDBRANCH  12  14
ENDBRANCH   6   9
BRANCH   2  17
ATOM     17  C   UNL     1       3.166   7.157  18.067  0.00  0.00    +0.000 C 
BRANCH  17  18
ATOM     18  N   UNL     1       3.801   5.849  18.180  0.00  0.00    +0.000 N 
ATOM     19  C   UNL     1       5.148   5.650  18.373  0.00  0.00    +0.000 A 
ATOM     20  C   UNL     1       5.370   4.298  18.472  0.00  0.00    +0.000 A 
ATOM     21  C   UNL     1       4.116   3.644  18.358  0.00  0.00    +0.000 A 
ATOM     22  C   UNL     1       3.722   2.292  18.405  0.00  0.00    +0.000 A 
ATOM     23  C   UNL     1       2.370   1.962  18.263  0.00  0.00    +0.000 A 
ATOM     24  C   UNL     1       1.417   2.959  18.078  0.00  0.00    +0.000 A 
ATOM     25  C   UNL     1       1.782   4.308  18.034  0.00  0.00    +0.000 A 
ATOM     26  C   UNL     1       3.142   4.633  18.175  0.00  0.00    +0.000 A 
ENDBRANCH  17  18
ENDBRANCH   2  17
TORSDOF 4
ENDMDL
MODEL 5
REMARK VINA RESULT:      -7.6      5.430      8.447
REMARK  Name = 
REMARK  4 active torsions:
REMARK  status: ('A' for Active; 'I' for Inactive)
REMARK    1  A    between atoms: C_2  and  C_3
REMARK    2  A    between atoms: C_3  and  N_4
REMARK    3  A    between atoms: C_16  and  C_17
REMARK    4  A    between atoms: C_20  and  C_21
REMARK                            x       y       z     vdW  Elec       q    Type
REMARK                         _______ _______ _______ _____ _____    ______ ____
ROOT
ATOM      1  O   UNL     1       7.530   9.693  17.356  0.00  0.00    +0.000 OA
ATOM      2  C   UNL     1       7.966   8.743  18.014  0.00  0.00    +0.000 C 
ATOM      3  N   UNL     1       7.332   7.505  18.021  0.00  0.00    +0.000 N 
ATOM      4  C   UNL     1       7.710   6.368  18.858  0.00  0.00    +0.000 C 
ATOM      5  C   UNL     1       7.772   5.082  18.040  0.00  0.00    +0.000 C 
ATOM      6  C   UNL     1       6.499   4.839  17.225  0.00  0.00    +0.000 C 
ATOM      7  C   UNL     1       6.088   6.087  16.434  0.00  0.00    +0.000 C 
ATOM      8  C   UNL     1       6.076   7.353  17.289  0.00  0.00    +0.000 C 
ENDROOT
BRANCH   6   9
ATOM      9  C   UNL     1       5.382   4.347  18.080  0.00  0.00    +0.000 A 
ATOM     10  N   UNL     1       5.399   3.763  19.258  0.00  0.00    +0.000 NA
ATOM     11  N   UNL     1       4.079   3.574  19.615  0.00  0.00    +0.000 NA
ATOM     12  C   UNL     1       3.352   4.050  18.624  0.00  0.00    +0.000 A 
ATOM     13  O   UNL     1       4.120   4.548  17.605  0.00  0.00    +0.000 OA
BRANCH  12  14
ATOM     14  C   UNL     1       1.836   4.073  18.616  0.00  0.00    +0.000 C 
ATOM     15  C   UNL     1       1.117   2.738  18.539  0.00  0.00    +0.000 C 
ATOM     16  C   UNL     1       1.098   3.508  19.814  0.00  0.00    +0.000 C 
ENDBRANCH  12  14
ENDBRANCH   6   9
BRANCH   2  17
ATOM     17  C   UNL     1       9.239   8.918  18.821  0.00  0.00    +0.000 C 
BRANCH  17  18
ATOM     18  N   UNL     1       9.360  10.240  19.423  0.00  0.00    +0.000 N 
ATOM     19  C   UNL     1       8.928  10.564  20.687  0.00  0.00    +0.000 A 
ATOM     20  C   UNL     1       9.244  11.880  20.924  0.00  0.00    +0.000 A 
ATOM     21  C   UNL     1       9.911  12.377  19.774  0.00  0.00    +0.000 A 
ATOM     22  C   UNL     1      10.477  13.625  19.449  0.00  0.00    +0.000 A 
ATOM     23  C   UNL     1      11.086  13.803  18.202  0.00  0.00    +0.000 A 
ATOM     24  C   UNL     1      11.136  12.756  17.287  0.00  0.00    +0.000 A 
ATOM     25  C   UNL     1      10.587  11.506  17.589  0.00  0.00    +0.000 A 
ATOM     26  C   UNL     1       9.974  11.335  18.842  0.00  0.00    +0.000 A 
ENDBRANCH  17  18
ENDBRANCH   2  17
TORSDOF 4
ENDMDL
MODEL 6
REMARK VINA RESULT:      -7.5      2.559      8.410
REMARK  Name = 
REMARK  4 active torsions:
REMARK  status: ('A' for Active; 'I' for Inactive)
REMARK    1  A    between atoms: C_2  and  C_3
REMARK    2  A    between atoms: C_3  and  N_4
REMARK    3  A    between atoms: C_16  and  C_17
REMARK    4  A    between atoms: C_20  and  C_21
REMARK                            x       y       z     vdW  Elec       q    Type
REMARK                         _______ _______ _______ _____ _____    ______ ____
ROOT
ATOM      1  O   UNL     1       2.284   8.161  17.393  0.00  0.00    +0.000 OA
ATOM      2  C   UNL     1       2.106   8.144  18.615  0.00  0.00    +0.000 C 
ATOM      3  N   UNL     1       1.372   9.133  19.262  0.00  0.00    +0.000 N 
ATOM      4  C   UNL     1       1.213   9.254  20.710  0.00  0.00    +0.000 C 
ATOM      5  C   UNL     1      -0.247   9.491  21.082  0.00  0.00    +0.000 C 
ATOM      6  C   UNL     1      -0.873  10.652  20.303  0.00  0.00    +0.000 C 
ATOM      7  C   UNL     1      -0.603  10.533  18.799  0.00  0.00    +0.000 C 
ATOM      8  C   UNL     1       0.866  10.259  18.481  0.00  0.00    +0.000 C 
ENDROOT
BRANCH   6   9
ATOM      9  C   UNL     1      -0.430  11.973  20.831  0.00  0.00    +0.000 A 
ATOM     10  N   UNL     1       0.116  12.296  21.983  0.00  0.00    +0.000 NA
ATOM     11  N   UNL     1       0.379  13.649  21.921  0.00  0.00    +0.000 NA
ATOM     12  C   UNL     1      -0.033  14.056  20.737  0.00  0.00    +0.000 A 
ATOM     13  O   UNL     1      -0.572  13.040  19.993  0.00  0.00    +0.000 OA
BRANCH  12  14
ATOM     14  C   UNL     1       0.095  15.481  20.235  0.00  0.00    +0.000 C 
ATOM     15  C   UNL     1       1.209  15.777  19.246  0.00  0.00    +0.000 C 
ATOM     16  C   UNL     1      -0.205  15.763  18.776  0.00  0.00    +0.000 C 
ENDBRANCH  12  14
ENDBRANCH   6   9
BRANCH   2  17
ATOM     17  C   UNL     1       2.681   7.004  19.436  0.00  0.00    +0.000 C 
BRANCH  17  18
ATOM     18  N   UNL     1       2.907   5.793  18.655  0.00  0.00    +0.000 N 
ATOM     19  C   UNL     1       3.858   5.666  17.670  0.00  0.00    +0.000 A 
ATOM     20  C   UNL     1       3.805   4.380  17.189  0.00  0.00    +0.000 A 
ATOM     21  C   UNL     1       2.802   3.687  17.915  0.00  0.00    +0.000 A 
ATOM     22  C   UNL     1       2.322   2.363  17.880  0.00  0.00    +0.000 A 
ATOM     23  C   UNL     1       1.301   1.975  18.753  0.00  0.00    +0.000 A 
ATOM     24  C   UNL     1       0.761   2.887  19.655  0.00  0.00    +0.000 A 
ATOM     25  C   UNL     1       1.224   4.205  19.714  0.00  0.00    +0.000 A 
ATOM     26  C   UNL     1       2.248   4.589  18.831  0.00  0.00    +0.000 A 
ENDBRANCH  17  18
ENDBRANCH   2  17
TORSDOF 4
ENDMDL
MODEL 7
REMARK VINA RESULT:      -7.5      2.383      8.598
REMARK  Name = 
REMARK  4 active torsions:
REMARK  status: ('A' for Active; 'I' for Inactive)
REMARK    1  A    between atoms: C_2  and  C_3
REMARK    2  A    between atoms: C_3  and  N_4
REMARK    3  A    between atoms: C_16  and  C_17
REMARK    4  A    between atoms: C_20  and  C_21
REMARK                            x       y       z     vdW  Elec       q    Type
REMARK                         _______ _______ _______ _____ _____    ______ ____
ROOT
ATOM      1  O   UNL     1       2.514   8.132  17.203  0.00  0.00    +0.000 OA
ATOM      2  C   UNL     1       2.279   8.055  18.413  0.00  0.00    +0.000 C 
ATOM      3  N   UNL     1       1.519   9.015  19.074  0.00  0.00    +0.000 N 
ATOM      4  C   UNL     1       1.292   9.064  20.517  0.00  0.00    +0.000 C 
ATOM      5  C   UNL     1      -0.183   9.291  20.832  0.00  0.00    +0.000 C 
ATOM      6  C   UNL     1      -0.767  10.493  20.084  0.00  0.00    +0.000 C 
ATOM      7  C   UNL     1      -0.426  10.448  18.590  0.00  0.00    +0.000 C 
ATOM      8  C   UNL     1       1.054  10.182  18.328  0.00  0.00    +0.000 C 
ENDROOT
BRANCH   6   9
ATOM      9  C   UNL     1      -0.344  11.783  20.698  0.00  0.00    +0.000 A 
ATOM     10  N   UNL     1       0.134  12.046  21.895  0.00  0.00    +0.000 NA
ATOM     11  N   UNL     1       0.413  13.398  21.911  0.00  0.00    +0.000 NA
ATOM     12  C   UNL     1       0.077  13.863  20.725  0.00  0.00    +0.000 A 
ATOM     13  O   UNL     1      -0.425  12.888  19.904  0.00  0.00    +0.000 OA
BRANCH  12  14
ATOM     14  C   UNL     1       0.249  15.308  20.298  0.00  0.00    +0.000 C 
ATOM     15  C   UNL     1       1.235  15.594  19.179  0.00  0.00    +0.000 C 
ATOM     16  C   UNL     1      -0.227  15.715  18.918  0.00  0.00    +0.000 C 
ENDBRANCH  12  14
ENDBRANCH   6   9
BRANCH   2  17
ATOM     17  C   UNL     1       2.811   6.872  19.201  0.00  0.00    +0.000 C 
BRANCH  17  18
ATOM     18  N   UNL     1       3.139   5.725  18.361  0.00  0.00    +0.000 N 
ATOM     19  C   UNL     1       2.270   4.703  18.062  0.00  0.00    +0.000 A 
ATOM     20  C   UNL     1       2.912   3.829  17.219  0.00  0.00    +0.000 A 
ATOM     21  C   UNL     1       4.212   4.341  16.974  0.00  0.00    +0.000 A 
ATOM     22  C   UNL     1       5.294   3.898  16.188  0.00  0.00    +0.000 A 
ATOM     23  C   UNL     1       6.473   4.650  16.149  0.00  0.00    +0.000 A 
ATOM     24  C   UNL     1       6.580   5.829  16.880  0.00  0.00    +0.000 A 
ATOM     25  C   UNL     1       5.519   6.293  17.663  0.00  0.00    +0.000 A 
ATOM     26  C   UNL     1       4.338   5.531  17.699  0.00  0.00    +0.000 A 
ENDBRANCH  17  18
ENDBRANCH   2  17
TORSDOF 4
ENDMDL
MODEL 8
REMARK VINA RESULT:      -7.5      2.247      8.934
REMARK  Name = 
REMARK  4 active torsions:
REMARK  status: ('A' for Active; 'I' for Inactive)
REMARK    1  A    between atoms: C_2  and  C_3
REMARK    2  A    between atoms: C_3  and  N_4
REMARK    3  A    between atoms: C_16  and  C_17
REMARK    4  A    between atoms: C_20  and  C_21
REMARK                            x       y       z     vdW  Elec       q    Type
REMARK                         _______ _______ _______ _____ _____    ______ ____
ROOT
ATOM      1  O   UNL     1       2.630   8.015  17.421  0.00  0.00    +0.000 OA
ATOM      2  C   UNL     1       2.375   7.839  18.617  0.00  0.00    +0.000 C 
ATOM      3  N   UNL     1       1.596   8.738  19.340  0.00  0.00    +0.000 N 
ATOM      4  C   UNL     1       1.345   8.669  20.779  0.00  0.00    +0.000 C 
ATOM      5  C   UNL     1      -0.136   8.861  21.085  0.00  0.00    +0.000 C 
ATOM      6  C   UNL     1      -0.718  10.115  20.426  0.00  0.00    +0.000 C 
ATOM      7  C   UNL     1      -0.352  10.192  18.939  0.00  0.00    +0.000 C 
ATOM      8  C   UNL     1       1.135   9.958  18.682  0.00  0.00    +0.000 C 
ENDROOT
BRANCH   6   9
ATOM      9  C   UNL     1      -0.316  11.355  21.148  0.00  0.00    +0.000 A 
ATOM     10  N   UNL     1       0.789  12.065  21.082  0.00  0.00    +0.000 NA
ATOM     11  N   UNL     1       0.606  13.145  21.921  0.00  0.00    +0.000 NA
ATOM     12  C   UNL     1      -0.596  13.011  22.445  0.00  0.00    +0.000 A 
ATOM     13  O   UNL     1      -1.236  11.883  22.005  0.00  0.00    +0.000 OA
BRANCH  12  14
ATOM     14  C   UNL     1      -1.219  14.003  23.408  0.00  0.00    +0.000 C 
ATOM     15  C   UNL     1      -2.290  14.930  22.860  0.00  0.00    +0.000 C 
ATOM     16  C   UNL     1      -2.677  13.827  23.784  0.00  0.00    +0.000 C 
ENDBRANCH  12  14
ENDBRANCH   6   9
BRANCH   2  17
ATOM     17  C   UNL     1       2.903   6.600  19.317  0.00  0.00    +0.000 C 
BRANCH  17  18
ATOM     18  N   UNL     1       3.249   5.525  18.395  0.00  0.00    +0.000 N 
ATOM     19  C   UNL     1       2.389   4.527  18.003  0.00  0.00    +0.000 A 
ATOM     20  C   UNL     1       3.046   3.724  17.103  0.00  0.00    +0.000 A 
ATOM     21  C   UNL     1       4.348   4.258  16.919  0.00  0.00    +0.000 A 
ATOM     22  C   UNL     1       5.443   3.882  16.117  0.00  0.00    +0.000 A 
ATOM     23  C   UNL     1       6.619   4.638  16.155  0.00  0.00    +0.000 A 
ATOM     24  C   UNL     1       6.711   5.756  16.978  0.00  0.00    +0.000 A 
ATOM     25  C   UNL     1       5.636   6.153  17.779  0.00  0.00    +0.000 A 
ATOM     26  C   UNL     1       4.458   5.388  17.738  0.00  0.00    +0.000 A 
ENDBRANCH  17  18
ENDBRANCH   2  17
TORSDOF 4
ENDMDL
MODEL 9
REMARK VINA RESULT:      -7.4      2.532      8.561
REMARK  Name = 
REMARK  4 active torsions:
REMARK  status: ('A' for Active; 'I' for Inactive)
REMARK    1  A    between atoms: C_2  and  C_3
REMARK    2  A    between atoms: C_3  and  N_4
REMARK    3  A    between atoms: C_16  and  C_17
REMARK    4  A    between atoms: C_20  and  C_21
REMARK                            x       y       z     vdW  Elec       q    Type
REMARK                         _______ _______ _______ _____ _____    ______ ____
ROOT
ATOM      1  O   UNL     1       2.507   7.452  17.878  0.00  0.00    +0.000 OA
ATOM      2  C   UNL     1       2.195   7.636  19.059  0.00  0.00    +0.000 C 
ATOM      3  N   UNL     1       1.506   8.775  19.465  0.00  0.00    +0.000 N 
ATOM      4  C   UNL     1       1.203   9.128  20.851  0.00  0.00    +0.000 C 
ATOM      5  C   UNL     1      -0.254   9.551  21.001  0.00  0.00    +0.000 C 
ATOM      6  C   UNL     1      -0.661  10.633  19.997  0.00  0.00    +0.000 C 
ATOM      7  C   UNL     1      -0.242  10.263  18.569  0.00  0.00    +0.000 C 
ATOM      8  C   UNL     1       1.214   9.812  18.478  0.00  0.00    +0.000 C 
ENDROOT
BRANCH   6   9
ATOM      9  C   UNL     1      -0.138  11.972  20.386  0.00  0.00    +0.000 A 
ATOM     10  N   UNL     1       0.346  12.403  21.531  0.00  0.00    +0.000 NA
ATOM     11  N   UNL     1       0.738  13.709  21.318  0.00  0.00    +0.000 NA
ATOM     12  C   UNL     1       0.459  13.983  20.059  0.00  0.00    +0.000 A 
ATOM     13  O   UNL     1      -0.114  12.922  19.409  0.00  0.00    +0.000 OA
BRANCH  12  14
ATOM     14  C   UNL     1       0.759  15.310  19.391  0.00  0.00    +0.000 C 
ATOM     15  C   UNL     1      -0.417  16.223  19.089  0.00  0.00    +0.000 C 
ATOM     16  C   UNL     1       0.532  16.584  20.180  0.00  0.00    +0.000 C 
ENDBRANCH  12  14
ENDBRANCH   6   9
BRANCH   2  17
ATOM     17  C   UNL     1       2.550   6.586  20.095  0.00  0.00    +0.000 C 
BRANCH  17  18
ATOM     18  N   UNL     1       3.242   5.434  19.530  0.00  0.00    +0.000 N 
ATOM     19  C   UNL     1       4.601   5.360  19.334  0.00  0.00    +0.000 A 
ATOM     20  C   UNL     1       4.893   4.118  18.826  0.00  0.00    +0.000 A 
ATOM     21  C   UNL     1       3.676   3.395  18.725  0.00  0.00    +0.000 A 
ATOM     22  C   UNL     1       3.358   2.090  18.301  0.00  0.00    +0.000 A 
ATOM     23  C   UNL     1       2.027   1.661  18.328  0.00  0.00    +0.000 A 
ATOM     24  C   UNL     1       1.020   2.513  18.772  0.00  0.00    +0.000 A 
ATOM     25  C   UNL     1       1.311   3.811  19.203  0.00  0.00    +0.000 A 
ATOM     26  C   UNL     1       2.650   4.237  19.171  0.00  0.00    +0.000 A 
ENDBRANCH  17  18
ENDBRANCH   2  17
TORSDOF 4
ENDMDL
