MODEL 1
REMARK VINA RESULT:      -5.9      0.000      0.000
REMARK  Name = 
REMARK  25 active torsions:
REMARK  status: ('A' for Active; 'I' for Inactive)
REMARK    1  A    between atoms: C_1  and  C_2
REMARK    2  A    between atoms: C_2  and  C_3
REMARK    3  A    between atoms: C_3  and  C_4
REMARK    4  A    between atoms: C_4  and  C_5
REMARK    5  A    between atoms: C_5  and  C_6
REMARK    6  A    between atoms: C_6  and  C_7
REMARK    7  A    between atoms: C_7  and  C_8
REMARK    8  A    between atoms: C_8  and  C_9
REMARK    9  A    between atoms: C_9  and  C_10
REMARK   10  A    between atoms: C_10  and  C_11
REMARK   11  A    between atoms: C_11  and  C_12
REMARK   12  A    between atoms: C_12  and  C_13
REMARK   13  A    between atoms: C_14  and  C_15
REMARK   14  A    between atoms: C_15  and  S_16
REMARK   15  A    between atoms: C_15  and  C_23
REMARK   16  A    between atoms: S_16  and  C_17
REMARK   17  A    between atoms: C_17  and  C_18
REMARK   18  A    between atoms: C_18  and  N_19
REMARK   19  A    between atoms: C_18  and  C_20
REMARK   20  A    between atoms: C_20  and  O_22
REMARK   21  A    between atoms: C_23  and  O_24
REMARK   22  A    between atoms: C_23  and  C_25
REMARK   23  A    between atoms: C_25  and  C_26
REMARK   24  A    between atoms: C_26  and  C_27
REMARK   25  A    between atoms: C_27  and  O_29
REMARK                            x       y       z     vdW  Elec       q    Type
REMARK                         _______ _______ _______ _____ _____    ______ ____
ROOT
ATOM      1  C   UNK     1       2.964   5.862  18.341  0.00  0.00    +0.000 C 
ENDROOT
BRANCH   1   3
ATOM      2  C   UNK     1       1.740   8.052  18.080  0.00  0.00    +0.000 C 
ATOM      3  C   UNK     1       2.876   7.346  18.163  0.00  0.00    +0.000 C 
BRANCH   2   4
ATOM      4  C   UNK     1       1.755   9.489  17.666  0.00  0.00    +0.000 C 
BRANCH   4   5
ATOM      5  C   UNK     1       1.202  10.427  18.738  0.00  0.00    +0.000 C 
BRANCH   5   6
ATOM      6  C   UNK     1      -0.313  10.595  18.602  0.00  0.00    +0.000 C 
BRANCH   6   7
ATOM      7  C   UNK     1      -0.710  12.060  18.448  0.00  0.00    +0.000 C 
BRANCH   7   8
ATOM      8  C   UNK     1      -0.696  12.794  19.776  0.00  0.00    +0.000 C 
BRANCH   8   9
ATOM      9  C   UNK     1      -1.431  11.963  20.822  0.00  0.00    +0.000 C 
BRANCH   9  10
ATOM     10  C   UNK     1      -0.552  11.742  22.042  0.00  0.00    +0.000 C 
BRANCH  10  11
ATOM     11  C   UNK     1      -1.275  10.888  23.074  0.00  0.00    +0.000 C 
BRANCH  11  12
ATOM     12  C   UNK     1      -0.457   9.645  23.400  0.00  0.00    +0.000 C 
BRANCH  12  13
ATOM     13  C   UNK     1       0.891   9.682  22.689  0.00  0.00    +0.000 C 
BRANCH  13  15
ATOM     14  C   UNK     1      -0.406   7.999  21.354  0.00  0.00    +0.000 C 
ATOM     15  C   UNK     1       0.960   8.613  21.603  0.00  0.00    +0.000 C 
ENDBRANCH  13  15
ENDBRANCH  12  13
ENDBRANCH  11  12
ENDBRANCH  10  11
ENDBRANCH   9  10
ENDBRANCH   8   9
ENDBRANCH   7   8
ENDBRANCH   6   7
ENDBRANCH   5   6
ENDBRANCH   4   5
ENDBRANCH   2   4
ENDBRANCH   1   3
BRANCH   1  16
ATOM     16  C   UNK     1       3.223   5.471  19.828  0.00  0.00    +0.000 C 
BRANCH  16  17
ATOM     17  O   UNK     1       3.964   4.253  19.948  0.00  0.00    +0.000 OA
ATOM     18  H   UNK     1       3.724   3.684  19.193  0.00  0.00    +0.000 HD
ENDBRANCH  16  17
BRANCH  16  19
ATOM     19  C   UNK     1       1.929   5.284  20.654  0.00  0.00    +0.000 C 
BRANCH  19  20
ATOM     20  C   UNK     1       1.047   4.141  20.135  0.00  0.00    +0.000 C 
BRANCH  20  21
ATOM     21  C   UNK     1       1.398   2.828  20.780  0.00  0.00    +0.000 C 
ATOM     22  O   UNK     1       1.306   2.611  21.974  0.00  0.00    +0.000 OA
BRANCH  21  23
ATOM     23  O   UNK     1       1.890   1.916  19.908  0.00  0.00    +0.000 OA
ATOM     24  H   UNK     1       2.866   1.830  19.933  0.00  0.00    +0.000 HD
ENDBRANCH  21  23
ENDBRANCH  20  21
ENDBRANCH  19  20
ENDBRANCH  16  19
ENDBRANCH   1  16
BRANCH   1  25
ATOM     25  S   UNK     1       4.288   5.246  17.134  0.00  0.00    +0.000 S 
BRANCH  25  26
ATOM     26  C   UNK     1       5.401   6.711  17.056  0.00  0.00    +0.000 C 
BRANCH  26  27
ATOM     27  C   UNK     1       6.866   6.480  17.466  0.00  0.00    +0.000 C 
BRANCH  27  28
ATOM     28  N   UNK     1       7.628   6.137  16.228  0.00  0.00    +0.000 NA
ATOM     29  H   UNK     1       7.136   6.538  15.424  0.00  0.00    +0.000 HD
ATOM     30  H   UNK     1       7.529   5.127  16.070  0.00  0.00    +0.000 HD
ENDBRANCH  27  28
BRANCH  27  31
ATOM     31  C   UNK     1       7.036   5.323  18.478  0.00  0.00    +0.000 C 
ATOM     32  O   UNK     1       6.673   5.381  19.644  0.00  0.00    +0.000 OA
BRANCH  31  33
ATOM     33  O   UNK     1       7.572   4.200  17.950  0.00  0.00    +0.000 OA
ATOM     34  H   UNK     1       7.620   3.452  18.581  0.00  0.00    +0.000 HD
ENDBRANCH  31  33
ENDBRANCH  27  31
ENDBRANCH  26  27
ENDBRANCH  25  26
ENDBRANCH   1  25
TORSDOF 24
ENDMDL
MODEL 2
REMARK VINA RESULT:      -5.5      6.183      9.480
REMARK  Name = 
REMARK  25 active torsions:
REMARK  status: ('A' for Active; 'I' for Inactive)
REMARK    1  A    between atoms: C_1  and  C_2
REMARK    2  A    between atoms: C_2  and  C_3
REMARK    3  A    between atoms: C_3  and  C_4
REMARK    4  A    between atoms: C_4  and  C_5
REMARK    5  A    between atoms: C_5  and  C_6
REMARK    6  A    between atoms: C_6  and  C_7
REMARK    7  A    between atoms: C_7  and  C_8
REMARK    8  A    between atoms: C_8  and  C_9
REMARK    9  A    between atoms: C_9  and  C_10
REMARK   10  A    between atoms: C_10  and  C_11
REMARK   11  A    between atoms: C_11  and  C_12
REMARK   12  A    between atoms: C_12  and  C_13
REMARK   13  A    between atoms: C_14  and  C_15
REMARK   14  A    between atoms: C_15  and  S_16
REMARK   15  A    between atoms: C_15  and  C_23
REMARK   16  A    between atoms: S_16  and  C_17
REMARK   17  A    between atoms: C_17  and  C_18
REMARK   18  A    between atoms: C_18  and  N_19
REMARK   19  A    between atoms: C_18  and  C_20
REMARK   20  A    between atoms: C_20  and  O_22
REMARK   21  A    between atoms: C_23  and  O_24
REMARK   22  A    between atoms: C_23  and  C_25
REMARK   23  A    between atoms: C_25  and  C_26
REMARK   24  A    between atoms: C_26  and  C_27
REMARK   25  A    between atoms: C_27  and  O_29
REMARK                            x       y       z     vdW  Elec       q    Type
REMARK                         _______ _______ _______ _____ _____    ______ ____
ROOT
ATOM      1  C   UNK     1       6.347   5.744  17.505  0.00  0.00    +0.000 C 
ENDROOT
BRANCH   1   3
ATOM      2  C   UNK     1       7.747   7.732  18.178  0.00  0.00    +0.000 C 
ATOM      3  C   UNK     1       7.153   6.978  17.242  0.00  0.00    +0.000 C 
BRANCH   2   4
ATOM      4  C   UNK     1       8.325   9.068  17.836  0.00  0.00    +0.000 C 
BRANCH   4   5
ATOM      5  C   UNK     1       9.107   9.695  18.989  0.00  0.00    +0.000 C 
BRANCH   5   6
ATOM      6  C   UNK     1       9.703  11.047  18.588  0.00  0.00    +0.000 C 
BRANCH   6   7
ATOM      7  C   UNK     1      10.684  11.568  19.634  0.00  0.00    +0.000 C 
BRANCH   7   8
ATOM      8  C   UNK     1      11.899  12.218  18.997  0.00  0.00    +0.000 C 
BRANCH   8   9
ATOM      9  C   UNK     1      11.675  12.348  17.494  0.00  0.00    +0.000 C 
BRANCH   9  10
ATOM     10  C   UNK     1      11.979  13.762  17.030  0.00  0.00    +0.000 C 
BRANCH  10  11
ATOM     11  C   UNK     1      10.841  14.703  17.405  0.00  0.00    +0.000 C 
BRANCH  11  12
ATOM     12  C   UNK     1      11.014  16.046  16.709  0.00  0.00    +0.000 C 
BRANCH  12  13
ATOM     13  C   UNK     1      12.095  16.876  17.392  0.00  0.00    +0.000 C 
BRANCH  13  15
ATOM     14  C   UNK     1      10.538  18.316  18.732  0.00  0.00    +0.000 C 
ATOM     15  C   UNK     1      11.605  18.297  17.652  0.00  0.00    +0.000 C 
ENDBRANCH  13  15
ENDBRANCH  12  13
ENDBRANCH  11  12
ENDBRANCH  10  11
ENDBRANCH   9  10
ENDBRANCH   8   9
ENDBRANCH   7   8
ENDBRANCH   6   7
ENDBRANCH   5   6
ENDBRANCH   4   5
ENDBRANCH   2   4
ENDBRANCH   1   3
BRANCH   1  16
ATOM     16  C   UNK     1       6.891   4.517  16.713  0.00  0.00    +0.000 C 
BRANCH  16  17
ATOM     17  O   UNK     1       8.189   4.114  17.161  0.00  0.00    +0.000 OA
ATOM     18  H   UNK     1       8.485   3.380  16.592  0.00  0.00    +0.000 HD
ENDBRANCH  16  17
BRANCH  16  19
ATOM     19  C   UNK     1       7.005   4.762  15.190  0.00  0.00    +0.000 C 
BRANCH  19  20
ATOM     20  C   UNK     1       6.043   3.893  14.371  0.00  0.00    +0.000 C 
BRANCH  20  21
ATOM     21  C   UNK     1       6.442   3.831  12.922  0.00  0.00    +0.000 C 
ATOM     22  O   UNK     1       5.930   3.085  12.107  0.00  0.00    +0.000 OA
BRANCH  21  23
ATOM     23  O   UNK     1       7.478   4.648  12.614  0.00  0.00    +0.000 OA
ATOM     24  H   UNK     1       8.187   4.660  13.291  0.00  0.00    +0.000 HD
ENDBRANCH  21  23
ENDBRANCH  20  21
ENDBRANCH  19  20
ENDBRANCH  16  19
ENDBRANCH   1  16
BRANCH   1  25
ATOM     25  S   UNK     1       4.544   6.179  17.122  0.00  0.00    +0.000 S 
BRANCH  25  26
ATOM     26  C   UNK     1       3.690   4.637  17.652  0.00  0.00    +0.000 C 
BRANCH  26  27
ATOM     27  C   UNK     1       3.886   4.214  19.117  0.00  0.00    +0.000 C 
BRANCH  27  28
ATOM     28  N   UNK     1       4.537   2.869  19.112  0.00  0.00    +0.000 NA
ATOM     29  H   UNK     1       3.813   2.160  18.957  0.00  0.00    +0.000 HD
ATOM     30  H   UNK     1       4.844   2.668  20.072  0.00  0.00    +0.000 HD
ENDBRANCH  27  28
BRANCH  27  31
ATOM     31  C   UNK     1       2.555   4.107  19.899  0.00  0.00    +0.000 C 
ATOM     32  O   UNK     1       2.393   4.545  21.028  0.00  0.00    +0.000 OA
BRANCH  31  33
ATOM     33  O   UNK     1       1.549   3.534  19.202  0.00  0.00    +0.000 OA
ATOM     34  H   UNK     1       1.542   3.772  18.251  0.00  0.00    +0.000 HD
ENDBRANCH  31  33
ENDBRANCH  27  31
ENDBRANCH  26  27
ENDBRANCH  25  26
ENDBRANCH   1  25
TORSDOF 24
ENDMDL
MODEL 3
REMARK VINA RESULT:      -5.5      2.401      4.837
REMARK  Name = 
REMARK  25 active torsions:
REMARK  status: ('A' for Active; 'I' for Inactive)
REMARK    1  A    between atoms: C_1  and  C_2
REMARK    2  A    between atoms: C_2  and  C_3
REMARK    3  A    between atoms: C_3  and  C_4
REMARK    4  A    between atoms: C_4  and  C_5
REMARK    5  A    between atoms: C_5  and  C_6
REMARK    6  A    between atoms: C_6  and  C_7
REMARK    7  A    between atoms: C_7  and  C_8
REMARK    8  A    between atoms: C_8  and  C_9
REMARK    9  A    between atoms: C_9  and  C_10
REMARK   10  A    between atoms: C_10  and  C_11
REMARK   11  A    between atoms: C_11  and  C_12
REMARK   12  A    between atoms: C_12  and  C_13
REMARK   13  A    between atoms: C_14  and  C_15
REMARK   14  A    between atoms: C_15  and  S_16
REMARK   15  A    between atoms: C_15  and  C_23
REMARK   16  A    between atoms: S_16  and  C_17
REMARK   17  A    between atoms: C_17  and  C_18
REMARK   18  A    between atoms: C_18  and  N_19
REMARK   19  A    between atoms: C_18  and  C_20
REMARK   20  A    between atoms: C_20  and  O_22
REMARK   21  A    between atoms: C_23  and  O_24
REMARK   22  A    between atoms: C_23  and  C_25
REMARK   23  A    between atoms: C_25  and  C_26
REMARK   24  A    between atoms: C_26  and  C_27
REMARK   25  A    between atoms: C_27  and  O_29
REMARK                            x       y       z     vdW  Elec       q    Type
REMARK                         _______ _______ _______ _____ _____    ______ ____
ROOT
ATOM      1  C   UNK     1       3.886   6.333  18.145  0.00  0.00    +0.000 C 
ENDROOT
BRANCH   1   3
ATOM      2  C   UNK     1       2.462   8.371  17.716  0.00  0.00    +0.000 C 
ATOM      3  C   UNK     1       2.728   7.249  18.398  0.00  0.00    +0.000 C 
BRANCH   2   4
ATOM      4  C   UNK     1       1.426   9.336  18.197  0.00  0.00    +0.000 C 
BRANCH   4   5
ATOM      5  C   UNK     1       1.218   9.288  19.710  0.00  0.00    +0.000 C 
BRANCH   5   6
ATOM      6  C   UNK     1      -0.226   9.629  20.084  0.00  0.00    +0.000 C 
BRANCH   6   7
ATOM      7  C   UNK     1      -0.401  11.118  20.371  0.00  0.00    +0.000 C 
BRANCH   7   8
ATOM      8  C   UNK     1      -0.898  11.369  21.783  0.00  0.00    +0.000 C 
BRANCH   8   9
ATOM      9  C   UNK     1      -1.978  12.444  21.757  0.00  0.00    +0.000 C 
BRANCH   9  10
ATOM     10  C   UNK     1      -2.339  12.803  20.326  0.00  0.00    +0.000 C 
BRANCH  10  11
ATOM     11  C   UNK     1      -3.851  12.855  20.153  0.00  0.00    +0.000 C 
BRANCH  11  12
ATOM     12  C   UNK     1      -4.310  11.774  19.183  0.00  0.00    +0.000 C 
BRANCH  12  13
ATOM     13  C   UNK     1      -3.324  11.626  18.030  0.00  0.00    +0.000 C 
BRANCH  13  15
ATOM     14  C   UNK     1      -2.028   9.816  16.870  0.00  0.00    +0.000 C 
ATOM     15  C   UNK     1      -3.373  10.214  17.454  0.00  0.00    +0.000 C 
ENDBRANCH  13  15
ENDBRANCH  12  13
ENDBRANCH  11  12
ENDBRANCH  10  11
ENDBRANCH   9  10
ENDBRANCH   8   9
ENDBRANCH   7   8
ENDBRANCH   6   7
ENDBRANCH   5   6
ENDBRANCH   4   5
ENDBRANCH   2   4
ENDBRANCH   1   3
BRANCH   1  16
ATOM     16  C   UNK     1       4.816   6.874  17.017  0.00  0.00    +0.000 C 
BRANCH  16  17
ATOM     17  O   UNK     1       4.816   6.029  15.861  0.00  0.00    +0.000 OA
ATOM     18  H   UNK     1       3.979   5.531  15.859  0.00  0.00    +0.000 HD
ENDBRANCH  16  17
BRANCH  16  19
ATOM     19  C   UNK     1       6.292   7.029  17.451  0.00  0.00    +0.000 C 
BRANCH  19  20
ATOM     20  C   UNK     1       7.187   5.890  16.945  0.00  0.00    +0.000 C 
BRANCH  20  21
ATOM     21  C   UNK     1       7.406   4.841  18.002  0.00  0.00    +0.000 C 
ATOM     22  O   UNK     1       6.761   4.769  19.033  0.00  0.00    +0.000 OA
BRANCH  21  23
ATOM     23  O   UNK     1       8.440   4.010  17.729  0.00  0.00    +0.000 OA
ATOM     24  H   UNK     1       8.216   3.059  17.806  0.00  0.00    +0.000 HD
ENDBRANCH  21  23
ENDBRANCH  20  21
ENDBRANCH  19  20
ENDBRANCH  16  19
ENDBRANCH   1  16
BRANCH   1  25
ATOM     25  S   UNK     1       3.159   4.619  17.797  0.00  0.00    +0.000 S 
BRANCH  25  26
ATOM     26  C   UNK     1       1.920   4.481  19.153  0.00  0.00    +0.000 C 
BRANCH  26  27
ATOM     27  C   UNK     1       1.764   3.094  19.799  0.00  0.00    +0.000 C 
BRANCH  27  28
ATOM     28  N   UNK     1       0.388   3.020  20.374  0.00  0.00    +0.000 NA
ATOM     29  H   UNK     1      -0.271   2.829  19.612  0.00  0.00    +0.000 HD
ATOM     30  H   UNK     1       0.121   3.967  20.668  0.00  0.00    +0.000 HD
ENDBRANCH  27  28
BRANCH  27  31
ATOM     31  C   UNK     1       2.781   2.839  20.936  0.00  0.00    +0.000 C 
ATOM     32  O   UNK     1       2.534   3.014  22.120  0.00  0.00    +0.000 OA
BRANCH  31  33
ATOM     33  O   UNK     1       3.965   2.340  20.517  0.00  0.00    +0.000 OA
ATOM     34  H   UNK     1       4.673   2.383  21.194  0.00  0.00    +0.000 HD
ENDBRANCH  31  33
ENDBRANCH  27  31
ENDBRANCH  26  27
ENDBRANCH  25  26
ENDBRANCH   1  25
TORSDOF 24
ENDMDL
MODEL 4
REMARK VINA RESULT:      -5.4      1.761      2.184
REMARK  Name = 
REMARK  25 active torsions:
REMARK  status: ('A' for Active; 'I' for Inactive)
REMARK    1  A    between atoms: C_1  and  C_2
REMARK    2  A    between atoms: C_2  and  C_3
REMARK    3  A    between atoms: C_3  and  C_4
REMARK    4  A    between atoms: C_4  and  C_5
REMARK    5  A    between atoms: C_5  and  C_6
REMARK    6  A    between atoms: C_6  and  C_7
REMARK    7  A    between atoms: C_7  and  C_8
REMARK    8  A    between atoms: C_8  and  C_9
REMARK    9  A    between atoms: C_9  and  C_10
REMARK   10  A    between atoms: C_10  and  C_11
REMARK   11  A    between atoms: C_11  and  C_12
REMARK   12  A    between atoms: C_12  and  C_13
REMARK   13  A    between atoms: C_14  and  C_15
REMARK   14  A    between atoms: C_15  and  S_16
REMARK   15  A    between atoms: C_15  and  C_23
REMARK   16  A    between atoms: S_16  and  C_17
REMARK   17  A    between atoms: C_17  and  C_18
REMARK   18  A    between atoms: C_18  and  N_19
REMARK   19  A    between atoms: C_18  and  C_20
REMARK   20  A    between atoms: C_20  and  O_22
REMARK   21  A    between atoms: C_23  and  O_24
REMARK   22  A    between atoms: C_23  and  C_25
REMARK   23  A    between atoms: C_25  and  C_26
REMARK   24  A    between atoms: C_26  and  C_27
REMARK   25  A    between atoms: C_27  and  O_29
REMARK                            x       y       z     vdW  Elec       q    Type
REMARK                         _______ _______ _______ _____ _____    ______ ____
ROOT
ATOM      1  C   UNK     1       3.131   6.679  17.786  0.00  0.00    +0.000 C 
ENDROOT
BRANCH   1   3
ATOM      2  C   UNK     1       1.449   8.560  17.766  0.00  0.00    +0.000 C 
ATOM      3  C   UNK     1       2.492   7.924  18.318  0.00  0.00    +0.000 C 
BRANCH   2   4
ATOM      4  C   UNK     1       1.038   9.918  18.237  0.00  0.00    +0.000 C 
BRANCH   4   5
ATOM      5  C   UNK     1      -0.472  10.141  18.176  0.00  0.00    +0.000 C 
BRANCH   5   6
ATOM      6  C   UNK     1      -0.829  11.606  18.441  0.00  0.00    +0.000 C 
BRANCH   6   7
ATOM      7  C   UNK     1       0.197  12.286  19.343  0.00  0.00    +0.000 C 
BRANCH   7   8
ATOM      8  C   UNK     1      -0.464  13.168  20.387  0.00  0.00    +0.000 C 
BRANCH   8   9
ATOM      9  C   UNK     1      -1.900  12.706  20.606  0.00  0.00    +0.000 C 
BRANCH   9  10
ATOM     10  C   UNK     1      -2.231  12.678  22.088  0.00  0.00    +0.000 C 
BRANCH  10  11
ATOM     11  C   UNK     1      -1.036  12.184  22.893  0.00  0.00    +0.000 C 
BRANCH  11  12
ATOM     12  C   UNK     1      -1.064  10.665  23.004  0.00  0.00    +0.000 C 
BRANCH  12  13
ATOM     13  C   UNK     1       0.122  10.046  22.273  0.00  0.00    +0.000 C 
BRANCH  13  15
ATOM     14  C   UNK     1       0.943   7.845  21.391  0.00  0.00    +0.000 C 
ATOM     15  C   UNK     1      -0.273   8.725  21.621  0.00  0.00    +0.000 C 
ENDBRANCH  13  15
ENDBRANCH  12  13
ENDBRANCH  11  12
ENDBRANCH  10  11
ENDBRANCH   9  10
ENDBRANCH   8   9
ENDBRANCH   7   8
ENDBRANCH   6   7
ENDBRANCH   5   6
ENDBRANCH   4   5
ENDBRANCH   2   4
ENDBRANCH   1   3
BRANCH   1  16
ATOM     16  C   UNK     1       2.939   5.471  18.751  0.00  0.00    +0.000 C 
BRANCH  16  17
ATOM     17  O   UNK     1       4.099   5.227  19.553  0.00  0.00    +0.000 OA
ATOM     18  H   UNK     1       4.608   4.511  19.130  0.00  0.00    +0.000 HD
ENDBRANCH  16  17
BRANCH  16  19
ATOM     19  C   UNK     1       2.616   4.143  18.027  0.00  0.00    +0.000 C 
BRANCH  19  20
ATOM     20  C   UNK     1       2.409   2.970  18.994  0.00  0.00    +0.000 C 
BRANCH  20  21
ATOM     21  C   UNK     1       0.950   2.715  19.258  0.00  0.00    +0.000 C 
ATOM     22  O   UNK     1       0.210   2.135  18.484  0.00  0.00    +0.000 OA
BRANCH  21  23
ATOM     23  O   UNK     1       0.513   3.250  20.423  0.00  0.00    +0.000 OA
ATOM     24  H   UNK     1       0.234   2.584  21.085  0.00  0.00    +0.000 HD
ENDBRANCH  21  23
ENDBRANCH  20  21
ENDBRANCH  19  20
ENDBRANCH  16  19
ENDBRANCH   1  16
BRANCH   1  25
ATOM     25  S   UNK     1       4.941   7.107  17.426  0.00  0.00    +0.000 S 
BRANCH  25  26
ATOM     26  C   UNK     1       5.219   6.175  15.863  0.00  0.00    +0.000 C 
BRANCH  26  27
ATOM     27  C   UNK     1       6.305   5.086  15.900  0.00  0.00    +0.000 C 
BRANCH  27  28
ATOM     28  N   UNK     1       7.445   5.616  16.706  0.00  0.00    +0.000 NA
ATOM     29  H   UNK     1       7.317   5.322  17.679  0.00  0.00    +0.000 HD
ATOM     30  H   UNK     1       7.338   6.636  16.765  0.00  0.00    +0.000 HD
ENDBRANCH  27  28
BRANCH  27  31
ATOM     31  C   UNK     1       6.834   4.712  14.495  0.00  0.00    +0.000 C 
ATOM     32  O   UNK     1       6.356   3.827  13.802  0.00  0.00    +0.000 OA
BRANCH  31  33
ATOM     33  O   UNK     1       7.847   5.495  14.060  0.00  0.00    +0.000 OA
ATOM     34  H   UNK     1       8.434   5.056  13.409  0.00  0.00    +0.000 HD
ENDBRANCH  31  33
ENDBRANCH  27  31
ENDBRANCH  26  27
ENDBRANCH  25  26
ENDBRANCH   1  25
TORSDOF 24
ENDMDL
MODEL 5
REMARK VINA RESULT:      -5.4      3.342      6.188
REMARK  Name = 
REMARK  25 active torsions:
REMARK  status: ('A' for Active; 'I' for Inactive)
REMARK    1  A    between atoms: C_1  and  C_2
REMARK    2  A    between atoms: C_2  and  C_3
REMARK    3  A    between atoms: C_3  and  C_4
REMARK    4  A    between atoms: C_4  and  C_5
REMARK    5  A    between atoms: C_5  and  C_6
REMARK    6  A    between atoms: C_6  and  C_7
REMARK    7  A    between atoms: C_7  and  C_8
REMARK    8  A    between atoms: C_8  and  C_9
REMARK    9  A    between atoms: C_9  and  C_10
REMARK   10  A    between atoms: C_10  and  C_11
REMARK   11  A    between atoms: C_11  and  C_12
REMARK   12  A    between atoms: C_12  and  C_13
REMARK   13  A    between atoms: C_14  and  C_15
REMARK   14  A    between atoms: C_15  and  S_16
REMARK   15  A    between atoms: C_15  and  C_23
REMARK   16  A    between atoms: S_16  and  C_17
REMARK   17  A    between atoms: C_17  and  C_18
REMARK   18  A    between atoms: C_18  and  N_19
REMARK   19  A    between atoms: C_18  and  C_20
REMARK   20  A    between atoms: C_20  and  O_22
REMARK   21  A    between atoms: C_23  and  O_24
REMARK   22  A    between atoms: C_23  and  C_25
REMARK   23  A    between atoms: C_25  and  C_26
REMARK   24  A    between atoms: C_26  and  C_27
REMARK   25  A    between atoms: C_27  and  O_29
REMARK                            x       y       z     vdW  Elec       q    Type
REMARK                         _______ _______ _______ _____ _____    ______ ____
ROOT
ATOM      1  C   UNK     1       5.227   4.650  15.462  0.00  0.00    +0.000 C 
ENDROOT
BRANCH   1   3
ATOM      2  C   UNK     1       3.620   3.494  17.027  0.00  0.00    +0.000 C 
ATOM      3  C   UNK     1       4.860   3.706  16.565  0.00  0.00    +0.000 C 
BRANCH   2   4
ATOM      4  C   UNK     1       3.388   2.716  18.281  0.00  0.00    +0.000 C 
BRANCH   4   5
ATOM      5  C   UNK     1       1.929   2.301  18.468  0.00  0.00    +0.000 C 
BRANCH   5   6
ATOM      6  C   UNK     1       1.498   2.428  19.931  0.00  0.00    +0.000 C 
BRANCH   6   7
ATOM      7  C   UNK     1       0.843   3.777  20.215  0.00  0.00    +0.000 C 
BRANCH   7   8
ATOM      8  C   UNK     1       1.774   4.935  19.903  0.00  0.00    +0.000 C 
BRANCH   8   9
ATOM      9  C   UNK     1       1.541   6.057  20.908  0.00  0.00    +0.000 C 
BRANCH   9  10
ATOM     10  C   UNK     1       1.840   7.407  20.278  0.00  0.00    +0.000 C 
BRANCH  10  11
ATOM     11  C   UNK     1       1.113   8.518  21.025  0.00  0.00    +0.000 C 
BRANCH  11  12
ATOM     12  C   UNK     1       0.909   9.722  20.115  0.00  0.00    +0.000 C 
BRANCH  12  13
ATOM     13  C   UNK     1      -0.557  10.140  20.091  0.00  0.00    +0.000 C 
BRANCH  13  15
ATOM     14  C   UNK     1       0.492  12.237  20.985  0.00  0.00    +0.000 C 
ATOM     15  C   UNK     1      -0.775  11.402  20.921  0.00  0.00    +0.000 C 
ENDBRANCH  13  15
ENDBRANCH  12  13
ENDBRANCH  11  12
ENDBRANCH  10  11
ENDBRANCH   9  10
ENDBRANCH   8   9
ENDBRANCH   7   8
ENDBRANCH   6   7
ENDBRANCH   5   6
ENDBRANCH   4   5
ENDBRANCH   2   4
ENDBRANCH   1   3
BRANCH   1  16
ATOM     16  C   UNK     1       6.642   4.343  14.884  0.00  0.00    +0.000 C 
BRANCH  16  17
ATOM     17  O   UNK     1       7.469   5.509  14.826  0.00  0.00    +0.000 OA
ATOM     18  H   UNK     1       7.228   6.004  14.022  0.00  0.00    +0.000 HD
ENDBRANCH  16  17
BRANCH  16  19
ATOM     19  C   UNK     1       6.614   3.749  13.457  0.00  0.00    +0.000 C 
BRANCH  19  20
ATOM     20  C   UNK     1       5.273   3.967  12.745  0.00  0.00    +0.000 C 
BRANCH  20  21
ATOM     21  C   UNK     1       4.993   2.885  11.738  0.00  0.00    +0.000 C 
ATOM     22  O   UNK     1       5.740   1.949  11.520  0.00  0.00    +0.000 OA
BRANCH  21  23
ATOM     23  O   UNK     1       3.848   3.082  11.041  0.00  0.00    +0.000 OA
ATOM     24  H   UNK     1       3.733   2.470  10.285  0.00  0.00    +0.000 HD
ENDBRANCH  21  23
ENDBRANCH  20  21
ENDBRANCH  19  20
ENDBRANCH  16  19
ENDBRANCH   1  16
BRANCH   1  25
ATOM     25  S   UNK     1       5.035   6.401  16.157  0.00  0.00    +0.000 S 
BRANCH  25  26
ATOM     26  C   UNK     1       5.471   6.128  17.925  0.00  0.00    +0.000 C 
BRANCH  26  27
ATOM     27  C   UNK     1       6.956   5.869  18.231  0.00  0.00    +0.000 C 
BRANCH  27  28
ATOM     28  N   UNK     1       7.050   5.435  19.657  0.00  0.00    +0.000 NA
ATOM     29  H   UNK     1       8.041   5.353  19.905  0.00  0.00    +0.000 HD
ATOM     30  H   UNK     1       6.726   4.462  19.710  0.00  0.00    +0.000 HD
ENDBRANCH  27  28
BRANCH  27  31
ATOM     31  C   UNK     1       7.840   7.124  18.045  0.00  0.00    +0.000 C 
ATOM     32  O   UNK     1       7.817   7.831  17.048  0.00  0.00    +0.000 OA
BRANCH  31  33
ATOM     33  O   UNK     1       8.613   7.420  19.115  0.00  0.00    +0.000 OA
ATOM     34  H   UNK     1       8.963   6.630  19.578  0.00  0.00    +0.000 HD
ENDBRANCH  31  33
ENDBRANCH  27  31
ENDBRANCH  26  27
ENDBRANCH  25  26
ENDBRANCH   1  25
TORSDOF 24
ENDMDL
MODEL 6
REMARK VINA RESULT:      -5.4      5.216      8.204
REMARK  Name = 
REMARK  25 active torsions:
REMARK  status: ('A' for Active; 'I' for Inactive)
REMARK    1  A    between atoms: C_1  and  C_2
REMARK    2  A    between atoms: C_2  and  C_3
REMARK    3  A    between atoms: C_3  and  C_4
REMARK    4  A    between atoms: C_4  and  C_5
REMARK    5  A    between atoms: C_5  and  C_6
REMARK    6  A    between atoms: C_6  and  C_7
REMARK    7  A    between atoms: C_7  and  C_8
REMARK    8  A    between atoms: C_8  and  C_9
REMARK    9  A    between atoms: C_9  and  C_10
REMARK   10  A    between atoms: C_10  and  C_11
REMARK   11  A    between atoms: C_11  and  C_12
REMARK   12  A    between atoms: C_12  and  C_13
REMARK   13  A    between atoms: C_14  and  C_15
REMARK   14  A    between atoms: C_15  and  S_16
REMARK   15  A    between atoms: C_15  and  C_23
REMARK   16  A    between atoms: S_16  and  C_17
REMARK   17  A    between atoms: C_17  and  C_18
REMARK   18  A    between atoms: C_18  and  N_19
REMARK   19  A    between atoms: C_18  and  C_20
REMARK   20  A    between atoms: C_20  and  O_22
REMARK   21  A    between atoms: C_23  and  O_24
REMARK   22  A    between atoms: C_23  and  C_25
REMARK   23  A    between atoms: C_25  and  C_26
REMARK   24  A    between atoms: C_26  and  C_27
REMARK   25  A    between atoms: C_27  and  O_29
REMARK                            x       y       z     vdW  Elec       q    Type
REMARK                         _______ _______ _______ _____ _____    ______ ____
ROOT
ATOM      1  C   UNK     1       5.423   5.014  17.999  0.00  0.00    +0.000 C 
ENDROOT
BRANCH   1   3
ATOM      2  C   UNK     1       7.578   6.285  18.328  0.00  0.00    +0.000 C 
ATOM      3  C   UNK     1       6.263   6.252  18.069  0.00  0.00    +0.000 C 
BRANCH   2   4
ATOM      4  C   UNK     1       8.274   7.578  18.610  0.00  0.00    +0.000 C 
BRANCH   4   5
ATOM      5  C   UNK     1       7.934   8.674  17.601  0.00  0.00    +0.000 C 
BRANCH   5   6
ATOM      6  C   UNK     1       8.208  10.065  18.177  0.00  0.00    +0.000 C 
BRANCH   6   7
ATOM      7  C   UNK     1       9.359  10.048  19.178  0.00  0.00    +0.000 C 
BRANCH   7   8
ATOM      8  C   UNK     1      10.294  11.229  18.988  0.00  0.00    +0.000 C 
BRANCH   8   9
ATOM      9  C   UNK     1      10.873  11.639  20.337  0.00  0.00    +0.000 C 
BRANCH   9  10
ATOM     10  C   UNK     1      10.244  12.937  20.815  0.00  0.00    +0.000 C 
BRANCH  10  11
ATOM     11  C   UNK     1      10.085  13.911  19.655  0.00  0.00    +0.000 C 
BRANCH  11  12
ATOM     12  C   UNK     1       8.730  14.604  19.728  0.00  0.00    +0.000 C 
BRANCH  12  13
ATOM     13  C   UNK     1       8.544  15.555  18.550  0.00  0.00    +0.000 C 
BRANCH  13  15
ATOM     14  C   UNK     1       7.184  13.710  17.527  0.00  0.00    +0.000 C 
ATOM     15  C   UNK     1       7.282  15.206  17.767  0.00  0.00    +0.000 C 
ENDBRANCH  13  15
ENDBRANCH  12  13
ENDBRANCH  11  12
ENDBRANCH  10  11
ENDBRANCH   9  10
ENDBRANCH   8   9
ENDBRANCH   7   8
ENDBRANCH   6   7
ENDBRANCH   5   6
ENDBRANCH   4   5
ENDBRANCH   2   4
ENDBRANCH   1   3
BRANCH   1  16
ATOM     16  C   UNK     1       4.579   4.960  16.690  0.00  0.00    +0.000 C 
BRANCH  16  17
ATOM     17  O   UNK     1       4.056   3.653  16.435  0.00  0.00    +0.000 OA
ATOM     18  H   UNK     1       3.407   3.729  15.711  0.00  0.00    +0.000 HD
ENDBRANCH  16  17
BRANCH  16  19
ATOM     19  C   UNK     1       5.366   5.375  15.426  0.00  0.00    +0.000 C 
BRANCH  19  20
ATOM     20  C   UNK     1       6.167   4.219  14.814  0.00  0.00    +0.000 C 
BRANCH  20  21
ATOM     21  C   UNK     1       7.142   4.703  13.775  0.00  0.00    +0.000 C 
ATOM     22  O   UNK     1       8.001   5.540  13.986  0.00  0.00    +0.000 OA
BRANCH  21  23
ATOM     23  O   UNK     1       6.935   4.162  12.550  0.00  0.00    +0.000 OA
ATOM     24  H   UNK     1       7.611   4.414  11.886  0.00  0.00    +0.000 HD
ENDBRANCH  21  23
ENDBRANCH  20  21
ENDBRANCH  19  20
ENDBRANCH  16  19
ENDBRANCH   1  16
BRANCH   1  25
ATOM     25  S   UNK     1       4.397   4.961  19.590  0.00  0.00    +0.000 S 
BRANCH  25  26
ATOM     26  C   UNK     1       4.065   3.156  19.735  0.00  0.00    +0.000 C 
BRANCH  26  27
ATOM     27  C   UNK     1       2.590   2.739  19.860  0.00  0.00    +0.000 C 
BRANCH  27  28
ATOM     28  N   UNK     1       1.947   2.964  18.531  0.00  0.00    +0.000 NA
ATOM     29  H   UNK     1       2.267   3.866  18.165  0.00  0.00    +0.000 HD
ATOM     30  H   UNK     1       0.946   3.131  18.692  0.00  0.00    +0.000 HD
ENDBRANCH  27  28
BRANCH  27  31
ATOM     31  C   UNK     1       1.817   3.558  20.919  0.00  0.00    +0.000 C 
ATOM     32  O   UNK     1       0.961   4.388  20.646  0.00  0.00    +0.000 OA
BRANCH  31  33
ATOM     33  O   UNK     1       2.123   3.239  22.197  0.00  0.00    +0.000 OA
ATOM     34  H   UNK     1       1.755   2.377  22.486  0.00  0.00    +0.000 HD
ENDBRANCH  31  33
ENDBRANCH  27  31
ENDBRANCH  26  27
ENDBRANCH  25  26
ENDBRANCH   1  25
TORSDOF 24
ENDMDL
MODEL 7
REMARK VINA RESULT:      -5.4      2.110      3.522
REMARK  Name = 
REMARK  25 active torsions:
REMARK  status: ('A' for Active; 'I' for Inactive)
REMARK    1  A    between atoms: C_1  and  C_2
REMARK    2  A    between atoms: C_2  and  C_3
REMARK    3  A    between atoms: C_3  and  C_4
REMARK    4  A    between atoms: C_4  and  C_5
REMARK    5  A    between atoms: C_5  and  C_6
REMARK    6  A    between atoms: C_6  and  C_7
REMARK    7  A    between atoms: C_7  and  C_8
REMARK    8  A    between atoms: C_8  and  C_9
REMARK    9  A    between atoms: C_9  and  C_10
REMARK   10  A    between atoms: C_10  and  C_11
REMARK   11  A    between atoms: C_11  and  C_12
REMARK   12  A    between atoms: C_12  and  C_13
REMARK   13  A    between atoms: C_14  and  C_15
REMARK   14  A    between atoms: C_15  and  S_16
REMARK   15  A    between atoms: C_15  and  C_23
REMARK   16  A    between atoms: S_16  and  C_17
REMARK   17  A    between atoms: C_17  and  C_18
REMARK   18  A    between atoms: C_18  and  N_19
REMARK   19  A    between atoms: C_18  and  C_20
REMARK   20  A    between atoms: C_20  and  O_22
REMARK   21  A    between atoms: C_23  and  O_24
REMARK   22  A    between atoms: C_23  and  C_25
REMARK   23  A    between atoms: C_25  and  C_26
REMARK   24  A    between atoms: C_26  and  C_27
REMARK   25  A    between atoms: C_27  and  O_29
REMARK                            x       y       z     vdW  Elec       q    Type
REMARK                         _______ _______ _______ _____ _____    ______ ____
ROOT
ATOM      1  C   UNK     1       3.076   5.533  18.854  0.00  0.00    +0.000 C 
ENDROOT
BRANCH   1   3
ATOM      2  C   UNK     1       1.801   7.343  20.064  0.00  0.00    +0.000 C 
ATOM      3  C   UNK     1       2.563   6.242  20.070  0.00  0.00    +0.000 C 
BRANCH   2   4
ATOM      4  C   UNK     1       1.540   8.106  21.323  0.00  0.00    +0.000 C 
BRANCH   4   5
ATOM      5  C   UNK     1       0.440   9.156  21.171  0.00  0.00    +0.000 C 
BRANCH   5   6
ATOM      6  C   UNK     1       0.104   9.807  22.514  0.00  0.00    +0.000 C 
BRANCH   6   7
ATOM      7  C   UNK     1      -0.842  10.994  22.349  0.00  0.00    +0.000 C 
BRANCH   7   8
ATOM      8  C   UNK     1      -0.534  11.792  21.095  0.00  0.00    +0.000 C 
BRANCH   8   9
ATOM      9  C   UNK     1      -1.824  12.398  20.551  0.00  0.00    +0.000 C 
BRANCH   9  10
ATOM     10  C   UNK     1      -2.147  11.824  19.182  0.00  0.00    +0.000 C 
BRANCH  10  11
ATOM     11  C   UNK     1      -3.644  11.897  18.913  0.00  0.00    +0.000 C 
BRANCH  11  12
ATOM     12  C   UNK     1      -4.012  11.014  17.727  0.00  0.00    +0.000 C 
BRANCH  12  13
ATOM     13  C   UNK     1      -3.040   9.847  17.599  0.00  0.00    +0.000 C 
BRANCH  13  15
ATOM     14  C   UNK     1      -3.328  10.386  15.165  0.00  0.00    +0.000 C 
ATOM     15  C   UNK     1      -2.386   9.836  16.221  0.00  0.00    +0.000 C 
ENDBRANCH  13  15
ENDBRANCH  12  13
ENDBRANCH  11  12
ENDBRANCH  10  11
ENDBRANCH   9  10
ENDBRANCH   8   9
ENDBRANCH   7   8
ENDBRANCH   6   7
ENDBRANCH   5   6
ENDBRANCH   4   5
ENDBRANCH   2   4
ENDBRANCH   1   3
BRANCH   1  16
ATOM     16  C   UNK     1       2.194   4.302  18.486  0.00  0.00    +0.000 C 
BRANCH  16  17
ATOM     17  O   UNK     1       1.478   4.494  17.261  0.00  0.00    +0.000 OA
ATOM     18  H   UNK     1       0.943   3.695  17.102  0.00  0.00    +0.000 HD
ENDBRANCH  16  17
BRANCH  16  19
ATOM     19  C   UNK     1       1.141   3.949  19.562  0.00  0.00    +0.000 C 
BRANCH  19  20
ATOM     20  C   UNK     1       1.320   2.536  20.132  0.00  0.00    +0.000 C 
BRANCH  20  21
ATOM     21  C   UNK     1       2.057   2.551  21.443  0.00  0.00    +0.000 C 
ATOM     22  O   UNK     1       3.268   2.640  21.541  0.00  0.00    +0.000 OA
BRANCH  21  23
ATOM     23  O   UNK     1       1.247   2.394  22.517  0.00  0.00    +0.000 OA
ATOM     24  H   UNK     1       1.076   1.458  22.751  0.00  0.00    +0.000 HD
ENDBRANCH  21  23
ENDBRANCH  20  21
ENDBRANCH  19  20
ENDBRANCH  16  19
ENDBRANCH   1  16
BRANCH   1  25
ATOM     25  S   UNK     1       4.892   5.115  19.192  0.00  0.00    +0.000 S 
BRANCH  25  26
ATOM     26  C   UNK     1       5.482   4.713  17.496  0.00  0.00    +0.000 C 
BRANCH  26  27
ATOM     27  C   UNK     1       6.933   5.102  17.165  0.00  0.00    +0.000 C 
BRANCH  27  28
ATOM     28  N   UNK     1       7.829   4.143  17.878  0.00  0.00    +0.000 NA
ATOM     29  H   UNK     1       8.631   3.939  17.273  0.00  0.00    +0.000 HD
ATOM     30  H   UNK     1       7.346   3.237  17.920  0.00  0.00    +0.000 HD
ENDBRANCH  27  28
BRANCH  27  31
ATOM     31  C   UNK     1       7.294   6.535  17.622  0.00  0.00    +0.000 C 
ATOM     32  O   UNK     1       6.863   7.548  17.090  0.00  0.00    +0.000 OA
BRANCH  31  33
ATOM     33  O   UNK     1       8.089   6.584  18.714  0.00  0.00    +0.000 OA
ATOM     34  H   UNK     1       7.947   7.377  19.272  0.00  0.00    +0.000 HD
ENDBRANCH  31  33
ENDBRANCH  27  31
ENDBRANCH  26  27
ENDBRANCH  25  26
ENDBRANCH   1  25
TORSDOF 24
ENDMDL
MODEL 8
REMARK VINA RESULT:      -5.4      2.120      3.415
REMARK  Name = 
REMARK  25 active torsions:
REMARK  status: ('A' for Active; 'I' for Inactive)
REMARK    1  A    between atoms: C_1  and  C_2
REMARK    2  A    between atoms: C_2  and  C_3
REMARK    3  A    between atoms: C_3  and  C_4
REMARK    4  A    between atoms: C_4  and  C_5
REMARK    5  A    between atoms: C_5  and  C_6
REMARK    6  A    between atoms: C_6  and  C_7
REMARK    7  A    between atoms: C_7  and  C_8
REMARK    8  A    between atoms: C_8  and  C_9
REMARK    9  A    between atoms: C_9  and  C_10
REMARK   10  A    between atoms: C_10  and  C_11
REMARK   11  A    between atoms: C_11  and  C_12
REMARK   12  A    between atoms: C_12  and  C_13
REMARK   13  A    between atoms: C_14  and  C_15
REMARK   14  A    between atoms: C_15  and  S_16
REMARK   15  A    between atoms: C_15  and  C_23
REMARK   16  A    between atoms: S_16  and  C_17
REMARK   17  A    between atoms: C_17  and  C_18
REMARK   18  A    between atoms: C_18  and  N_19
REMARK   19  A    between atoms: C_18  and  C_20
REMARK   20  A    between atoms: C_20  and  O_22
REMARK   21  A    between atoms: C_23  and  O_24
REMARK   22  A    between atoms: C_23  and  C_25
REMARK   23  A    between atoms: C_25  and  C_26
REMARK   24  A    between atoms: C_26  and  C_27
REMARK   25  A    between atoms: C_27  and  O_29
REMARK                            x       y       z     vdW  Elec       q    Type
REMARK                         _______ _______ _______ _____ _____    ______ ____
ROOT
ATOM      1  C   UNK     1       3.026   6.665  18.055  0.00  0.00    +0.000 C 
ENDROOT
BRANCH   1   3
ATOM      2  C   UNK     1       1.647   8.624  18.847  0.00  0.00    +0.000 C 
ATOM      3  C   UNK     1       2.474   8.054  17.960  0.00  0.00    +0.000 C 
BRANCH   2   4
ATOM      4  C   UNK     1       0.968   9.920  18.544  0.00  0.00    +0.000 C 
BRANCH   4   5
ATOM      5  C   UNK     1      -0.085  10.303  19.582  0.00  0.00    +0.000 C 
BRANCH   5   6
ATOM      6  C   UNK     1       0.268   9.748  20.964  0.00  0.00    +0.000 C 
BRANCH   6   7
ATOM      7  C   UNK     1      -0.311  10.606  22.085  0.00  0.00    +0.000 C 
BRANCH   7   8
ATOM      8  C   UNK     1      -1.088  11.794  21.546  0.00  0.00    +0.000 C 
BRANCH   8   9
ATOM      9  C   UNK     1      -0.512  13.081  22.126  0.00  0.00    +0.000 C 
BRANCH   9  10
ATOM     10  C   UNK     1       0.701  13.530  21.329  0.00  0.00    +0.000 C 
BRANCH  10  11
ATOM     11  C   UNK     1       0.510  14.952  20.821  0.00  0.00    +0.000 C 
BRANCH  11  12
ATOM     12  C   UNK     1       0.932  15.055  19.361  0.00  0.00    +0.000 C 
BRANCH  12  13
ATOM     13  C   UNK     1       0.953  13.679  18.705  0.00  0.00    +0.000 C 
BRANCH  13  15
ATOM     14  C   UNK     1       3.204  14.619  18.116  0.00  0.00    +0.000 C 
ATOM     15  C   UNK     1       2.330  13.377  18.122  0.00  0.00    +0.000 C 
ENDBRANCH  13  15
ENDBRANCH  12  13
ENDBRANCH  11  12
ENDBRANCH  10  11
ENDBRANCH   9  10
ENDBRANCH   8   9
ENDBRANCH   7   8
ENDBRANCH   6   7
ENDBRANCH   5   6
ENDBRANCH   4   5
ENDBRANCH   2   4
ENDBRANCH   1   3
BRANCH   1  16
ATOM     16  C   UNK     1       2.946   6.108  19.509  0.00  0.00    +0.000 C 
BRANCH  16  17
ATOM     17  O   UNK     1       4.173   5.500  19.925  0.00  0.00    +0.000 OA
ATOM     18  H   UNK     1       3.992   4.559  20.105  0.00  0.00    +0.000 HD
ENDBRANCH  16  17
BRANCH  16  19
ATOM     19  C   UNK     1       1.838   5.047  19.708  0.00  0.00    +0.000 C 
BRANCH  19  20
ATOM     20  C   UNK     1       2.341   3.612  19.506  0.00  0.00    +0.000 C 
BRANCH  20  21
ATOM     21  C   UNK     1       1.911   3.051  18.178  0.00  0.00    +0.000 C 
ATOM     22  O   UNK     1       1.356   3.703  17.312  0.00  0.00    +0.000 OA
BRANCH  21  23
ATOM     23  O   UNK     1       2.144   1.722  18.055  0.00  0.00    +0.000 OA
ATOM     24  H   UNK     1       3.092   1.479  18.110  0.00  0.00    +0.000 HD
ENDBRANCH  21  23
ENDBRANCH  20  21
ENDBRANCH  19  20
ENDBRANCH  16  19
ENDBRANCH   1  16
BRANCH   1  25
ATOM     25  S   UNK     1       4.778   6.724  17.340  0.00  0.00    +0.000 S 
BRANCH  25  26
ATOM     26  C   UNK     1       4.757   5.252  16.234  0.00  0.00    +0.000 C 
BRANCH  26  27
ATOM     27  C   UNK     1       5.757   4.132  16.565  0.00  0.00    +0.000 C 
BRANCH  27  28
ATOM     28  N   UNK     1       5.535   3.739  17.989  0.00  0.00    +0.000 NA
ATOM     29  H   UNK     1       6.195   2.992  18.225  0.00  0.00    +0.000 HD
ATOM     30  H   UNK     1       4.628   3.260  18.043  0.00  0.00    +0.000 HD
ENDBRANCH  27  28
BRANCH  27  31
ATOM     31  C   UNK     1       7.232   4.571  16.407  0.00  0.00    +0.000 C 
ATOM     32  O   UNK     1       8.129   4.226  17.162  0.00  0.00    +0.000 OA
BRANCH  31  33
ATOM     33  O   UNK     1       7.468   5.332  15.315  0.00  0.00    +0.000 OA
ATOM     34  H   UNK     1       7.364   6.294  15.474  0.00  0.00    +0.000 HD
ENDBRANCH  31  33
ENDBRANCH  27  31
ENDBRANCH  26  27
ENDBRANCH  25  26
ENDBRANCH   1  25
TORSDOF 24
ENDMDL
MODEL 9
REMARK VINA RESULT:      -5.4      2.234      3.319
REMARK  Name = 
REMARK  25 active torsions:
REMARK  status: ('A' for Active; 'I' for Inactive)
REMARK    1  A    between atoms: C_1  and  C_2
REMARK    2  A    between atoms: C_2  and  C_3
REMARK    3  A    between atoms: C_3  and  C_4
REMARK    4  A    between atoms: C_4  and  C_5
REMARK    5  A    between atoms: C_5  and  C_6
REMARK    6  A    between atoms: C_6  and  C_7
REMARK    7  A    between atoms: C_7  and  C_8
REMARK    8  A    between atoms: C_8  and  C_9
REMARK    9  A    between atoms: C_9  and  C_10
REMARK   10  A    between atoms: C_10  and  C_11
REMARK   11  A    between atoms: C_11  and  C_12
REMARK   12  A    between atoms: C_12  and  C_13
REMARK   13  A    between atoms: C_14  and  C_15
REMARK   14  A    between atoms: C_15  and  S_16
REMARK   15  A    between atoms: C_15  and  C_23
REMARK   16  A    between atoms: S_16  and  C_17
REMARK   17  A    between atoms: C_17  and  C_18
REMARK   18  A    between atoms: C_18  and  N_19
REMARK   19  A    between atoms: C_18  and  C_20
REMARK   20  A    between atoms: C_20  and  O_22
REMARK   21  A    between atoms: C_23  and  O_24
REMARK   22  A    between atoms: C_23  and  C_25
REMARK   23  A    between atoms: C_25  and  C_26
REMARK   24  A    between atoms: C_26  and  C_27
REMARK   25  A    between atoms: C_27  and  O_29
REMARK                            x       y       z     vdW  Elec       q    Type
REMARK                         _______ _______ _______ _____ _____    ______ ____
ROOT
ATOM      1  C   UNK     1       2.558   6.219  18.134  0.00  0.00    +0.000 C 
ENDROOT
BRANCH   1   3
ATOM      2  C   UNK     1       2.278   8.696  17.742  0.00  0.00    +0.000 C 
ATOM      3  C   UNK     1       1.884   7.546  18.305  0.00  0.00    +0.000 C 
BRANCH   2   4
ATOM      4  C   UNK     1       1.684  10.002  18.162  0.00  0.00    +0.000 C 
BRANCH   4   5
ATOM      5  C   UNK     1       0.158   9.968  18.242  0.00  0.00    +0.000 C 
BRANCH   5   6
ATOM      6  C   UNK     1      -0.335  10.356  19.638  0.00  0.00    +0.000 C 
BRANCH   6   7
ATOM      7  C   UNK     1       0.747  10.160  20.697  0.00  0.00    +0.000 C 
BRANCH   7   8
ATOM      8  C   UNK     1       0.180  10.218  22.104  0.00  0.00    +0.000 C 
BRANCH   8   9
ATOM      9  C   UNK     1      -1.116  11.023  22.095  0.00  0.00    +0.000 C 
BRANCH   9  10
ATOM     10  C   UNK     1      -0.910  12.372  22.761  0.00  0.00    +0.000 C 
BRANCH  10  11
ATOM     11  C   UNK     1      -2.250  13.016  23.089  0.00  0.00    +0.000 C 
BRANCH  11  12
ATOM     12  C   UNK     1      -3.132  13.066  21.848  0.00  0.00    +0.000 C 
BRANCH  12  13
ATOM     13  C   UNK     1      -4.583  12.759  22.202  0.00  0.00    +0.000 C 
BRANCH  13  15
ATOM     14  C   UNK     1      -6.301  12.759  24.030  0.00  0.00    +0.000 C 
ATOM     15  C   UNK     1      -4.851  13.040  23.677  0.00  0.00    +0.000 C 
ENDBRANCH  13  15
ENDBRANCH  12  13
ENDBRANCH  11  12
ENDBRANCH  10  11
ENDBRANCH   9  10
ENDBRANCH   8   9
ENDBRANCH   7   8
ENDBRANCH   6   7
ENDBRANCH   5   6
ENDBRANCH   4   5
ENDBRANCH   2   4
ENDBRANCH   1   3
BRANCH   1  16
ATOM     16  C   UNK     1       2.600   5.414  19.468  0.00  0.00    +0.000 C 
BRANCH  16  17
ATOM     17  O   UNK     1       3.898   5.426  20.069  0.00  0.00    +0.000 OA
ATOM     18  H   UNK     1       4.082   4.526  20.396  0.00  0.00    +0.000 HD
ENDBRANCH  16  17
BRANCH  16  19
ATOM     19  C   UNK     1       2.200   3.929  19.309  0.00  0.00    +0.000 C 
BRANCH  19  20
ATOM     20  C   UNK     1       3.066   2.984  20.152  0.00  0.00    +0.000 C 
BRANCH  20  21
ATOM     21  C   UNK     1       3.851   2.031  19.292  0.00  0.00    +0.000 C 
ATOM     22  O   UNK     1       3.420   1.519  18.275  0.00  0.00    +0.000 OA
BRANCH  21  23
ATOM     23  O   UNK     1       5.077   1.741  19.792  0.00  0.00    +0.000 OA
ATOM     24  H   UNK     1       5.144   0.845  20.183  0.00  0.00    +0.000 HD
ENDBRANCH  21  23
ENDBRANCH  20  21
ENDBRANCH  19  20
ENDBRANCH  16  19
ENDBRANCH   1  16
BRANCH   1  25
ATOM     25  S   UNK     1       4.261   6.567  17.382  0.00  0.00    +0.000 S 
BRANCH  25  26
ATOM     26  C   UNK     1       4.692   4.910  16.705  0.00  0.00    +0.000 C 
BRANCH  26  27
ATOM     27  C   UNK     1       6.132   4.425  16.944  0.00  0.00    +0.000 C 
BRANCH  27  28
ATOM     28  N   UNK     1       6.303   4.236  18.415  0.00  0.00    +0.000 NA
ATOM     29  H   UNK     1       7.235   3.845  18.585  0.00  0.00    +0.000 HD
ATOM     30  H   UNK     1       5.683   3.470  18.706  0.00  0.00    +0.000 HD
ENDBRANCH  27  28
BRANCH  27  31
ATOM     31  C   UNK     1       7.198   5.434  16.456  0.00  0.00    +0.000 C 
ATOM     32  O   UNK     1       7.457   5.634  15.278  0.00  0.00    +0.000 OA
BRANCH  31  33
ATOM     33  O   UNK     1       7.790   6.136  17.449  0.00  0.00    +0.000 OA
ATOM     34  H   UNK     1       8.646   6.539  17.190  0.00  0.00    +0.000 HD
ENDBRANCH  31  33
ENDBRANCH  27  31
ENDBRANCH  26  27
ENDBRANCH  25  26
ENDBRANCH   1  25
TORSDOF 24
ENDMDL
