MODEL 1
REMARK VINA RESULT:      -9.0      0.000      0.000
REMARK  Name = 
REMARK  9 active torsions:
REMARK  status: ('A' for Active; 'I' for Inactive)
REMARK    1  A    between atoms: C_1  and  O_2
REMARK    2  A    between atoms: O_2  and  C_3
REMARK    3  A    between atoms: C_6  and  N_7
REMARK    4  A    between atoms: C_12  and  O_13
REMARK    5  A    between atoms: O_13  and  C_14
REMARK    6  A    between atoms: C_18  and  N_19
REMARK    7  A    between atoms: C_20  and  C_22
REMARK    8  A    between atoms: C_23  and  C_24
REMARK    9  A    between atoms: C_23  and  C_25
REMARK                            x       y       z     vdW  Elec       q    Type
REMARK                         _______ _______ _______ _____ _____    ______ ____
ROOT
ATOM      1  N   UNL     1       1.392   7.557  20.623  0.00  0.00    +0.000 N 
ATOM      2  C   UNL     1       2.000   6.497  19.950  0.00  0.00    +0.000 A 
ATOM      3  N   UNL     1       1.563   5.268  20.258  0.00  0.00    +0.000 NA
ATOM      4  C   UNL     1       2.109   4.208  19.611  0.00  0.00    +0.000 A 
ATOM      5  C   UNL     1       3.140   4.345  18.699  0.00  0.00    +0.000 A 
ATOM      6  C   UNL     1       3.497   5.651  18.440  0.00  0.00    +0.000 A 
ATOM      7  N   UNL     1       2.946   6.715  19.037  0.00  0.00    +0.000 NA
ATOM      8  C   UNL     1       3.820   3.228  17.973  0.00  0.00    +0.000 C 
ATOM      9  S   UNL     1       3.559   1.583  18.677  0.00  0.00    +0.000 S 
ATOM     10  C   UNL     1       1.783   1.753  18.978  0.00  0.00    +0.000 C 
ATOM     11  C   UNL     1       1.525   2.868  19.982  0.00  0.00    +0.000 C 
ATOM     12  H   UNL     1       0.654   7.192  21.208  0.00  0.00    +0.000 HD
ENDROOT
BRANCH   1  16
ATOM     13  C   UNL     1       1.232  11.635  19.498  0.00  0.00    +0.000 A 
ATOM     14  C   UNL     1       1.430  10.633  18.549  0.00  0.00    +0.000 A 
ATOM     15  C   UNL     1       1.443   9.284  18.927  0.00  0.00    +0.000 A 
ATOM     16  C   UNL     1       1.299   8.912  20.271  0.00  0.00    +0.000 A 
ATOM     17  C   UNL     1       1.057   9.931  21.198  0.00  0.00    +0.000 A 
ATOM     18  C   UNL     1       1.041  11.277  20.827  0.00  0.00    +0.000 A 
BRANCH  13  20
ATOM     19  C   UNL     1       1.921  13.855  19.886  0.00  0.00    +0.000 C 
ATOM     20  O   UNL     1       1.273  12.919  19.031  0.00  0.00    +0.000 OA
ENDBRANCH  13  20
ENDBRANCH   1  16
BRANCH   6  21
ATOM     21  O   UNL     1       4.412   5.854  17.413  0.00  0.00    +0.000 OA
BRANCH  21  22
ATOM     22  C   UNL     1       5.693   6.260  17.707  0.00  0.00    +0.000 A 
ATOM     23  C   UNL     1       6.461   5.337  18.423  0.00  0.00    +0.000 A 
ATOM     24  C   UNL     1       7.730   5.686  18.864  0.00  0.00    +0.000 A 
ATOM     25  C   UNL     1       8.237   6.955  18.578  0.00  0.00    +0.000 A 
ATOM     26  C   UNL     1       7.490   7.886  17.848  0.00  0.00    +0.000 A 
ATOM     27  C   UNL     1       6.193   7.542  17.443  0.00  0.00    +0.000 A 
BRANCH  26  28
ATOM     28  N   UNL     1       7.989   9.173  17.519  0.00  0.00    +0.000 N 
ATOM     29  C   UNL     1       8.673   9.994  18.395  0.00  0.00    +0.000 C 
ATOM     30  O   UNL     1       9.032   9.687  19.531  0.00  0.00    +0.000 OA
ATOM     31  H   UNL     1       7.917   9.455  16.551  0.00  0.00    +0.000 HD
BRANCH  29  32
ATOM     32  C   UNL     1       9.063  11.315  17.821  0.00  0.00    +0.000 C 
ATOM     33  C   UNL     1      10.282  11.864  18.003  0.00  0.00    +0.000 C 
ATOM     34  C   UNL     1      11.352  11.351  18.937  0.00  0.00    +0.000 C 
ATOM     35  C   UNL     1      10.710  13.080  17.224  0.00  0.00    +0.000 C 
ENDBRANCH  29  32
ENDBRANCH  26  28
ENDBRANCH  21  22
ENDBRANCH   6  21
TORSDOF 6
ENDMDL
MODEL 2
REMARK VINA RESULT:      -8.8      1.224      1.778
REMARK  Name = 
REMARK  9 active torsions:
REMARK  status: ('A' for Active; 'I' for Inactive)
REMARK    1  A    between atoms: C_1  and  O_2
REMARK    2  A    between atoms: O_2  and  C_3
REMARK    3  A    between atoms: C_6  and  N_7
REMARK    4  A    between atoms: C_12  and  O_13
REMARK    5  A    between atoms: O_13  and  C_14
REMARK    6  A    between atoms: C_18  and  N_19
REMARK    7  A    between atoms: C_20  and  C_22
REMARK    8  A    between atoms: C_23  and  C_24
REMARK    9  A    between atoms: C_23  and  C_25
REMARK                            x       y       z     vdW  Elec       q    Type
REMARK                         _______ _______ _______ _____ _____    ______ ____
ROOT
ATOM      1  N   UNL     1       1.474   7.665  21.009  0.00  0.00    +0.000 N 
ATOM      2  C   UNL     1       1.920   6.604  20.221  0.00  0.00    +0.000 A 
ATOM      3  N   UNL     1       1.717   5.373  20.711  0.00  0.00    +0.000 NA
ATOM      4  C   UNL     1       2.113   4.309  19.968  0.00  0.00    +0.000 A 
ATOM      5  C   UNL     1       2.774   4.450  18.762  0.00  0.00    +0.000 A 
ATOM      6  C   UNL     1       2.912   5.756  18.341  0.00  0.00    +0.000 A 
ATOM      7  N   UNL     1       2.495   6.820  19.038  0.00  0.00    +0.000 NA
ATOM      8  C   UNL     1       3.276   3.333  17.903  0.00  0.00    +0.000 C 
ATOM      9  S   UNL     1       3.403   1.729  18.726  0.00  0.00    +0.000 S 
ATOM     10  C   UNL     1       1.814   1.799  19.590  0.00  0.00    +0.000 C 
ATOM     11  C   UNL     1       1.801   2.963  20.571  0.00  0.00    +0.000 C 
ATOM     12  H   UNL     1       1.002   7.294  21.821  0.00  0.00    +0.000 HD
ENDROOT
BRANCH   1  16
ATOM     13  C   UNL     1       0.391  11.627  19.983  0.00  0.00    +0.000 A 
ATOM     14  C   UNL     1       0.422  11.211  21.313  0.00  0.00    +0.000 A 
ATOM     15  C   UNL     1       0.819   9.909  21.644  0.00  0.00    +0.000 A 
ATOM     16  C   UNL     1       1.154   8.983  20.647  0.00  0.00    +0.000 A 
ATOM     17  C   UNL     1       1.159   9.437  19.323  0.00  0.00    +0.000 A 
ATOM     18  C   UNL     1       0.767  10.734  18.988  0.00  0.00    +0.000 A 
BRANCH  13  20
ATOM     19  C   UNL     1       0.546  13.565  18.651  0.00  0.00    +0.000 C 
ATOM     20  O   UNL     1      -0.044  12.905  19.766  0.00  0.00    +0.000 OA
ENDBRANCH  13  20
ENDBRANCH   1  16
BRANCH   6  21
ATOM     21  O   UNL     1       3.421   5.946  17.061  0.00  0.00    +0.000 OA
BRANCH  21  22
ATOM     22  C   UNL     1       4.781   6.016  16.869  0.00  0.00    +0.000 A 
ATOM     23  C   UNL     1       5.284   5.191  15.860  0.00  0.00    +0.000 A 
ATOM     24  C   UNL     1       6.654   5.104  15.654  0.00  0.00    +0.000 A 
ATOM     25  C   UNL     1       7.522   5.853  16.450  0.00  0.00    +0.000 A 
ATOM     26  C   UNL     1       7.037   6.699  17.454  0.00  0.00    +0.000 A 
ATOM     27  C   UNL     1       5.655   6.749  17.684  0.00  0.00    +0.000 A 
BRANCH  26  28
ATOM     28  N   UNL     1       7.893   7.493  18.260  0.00  0.00    +0.000 N 
ATOM     29  C   UNL     1       8.157   8.831  18.038  0.00  0.00    +0.000 C 
ATOM     30  O   UNL     1       7.615   9.536  17.189  0.00  0.00    +0.000 OA
ATOM     31  H   UNL     1       8.250   7.064  19.103  0.00  0.00    +0.000 HD
BRANCH  29  32
ATOM     32  C   UNL     1       9.120   9.435  19.006  0.00  0.00    +0.000 C 
ATOM     33  C   UNL     1       9.434  10.747  19.008  0.00  0.00    +0.000 C 
ATOM     34  C   UNL     1       9.031  11.753  17.957  0.00  0.00    +0.000 C 
ATOM     35  C   UNL     1      10.227  11.354  20.136  0.00  0.00    +0.000 C 
ENDBRANCH  29  32
ENDBRANCH  26  28
ENDBRANCH  21  22
ENDBRANCH   6  21
TORSDOF 6
ENDMDL
MODEL 3
REMARK VINA RESULT:      -8.7      0.534      1.010
REMARK  Name = 
REMARK  9 active torsions:
REMARK  status: ('A' for Active; 'I' for Inactive)
REMARK    1  A    between atoms: C_1  and  O_2
REMARK    2  A    between atoms: O_2  and  C_3
REMARK    3  A    between atoms: C_6  and  N_7
REMARK    4  A    between atoms: C_12  and  O_13
REMARK    5  A    between atoms: O_13  and  C_14
REMARK    6  A    between atoms: C_18  and  N_19
REMARK    7  A    between atoms: C_20  and  C_22
REMARK    8  A    between atoms: C_23  and  C_24
REMARK    9  A    between atoms: C_23  and  C_25
REMARK                            x       y       z     vdW  Elec       q    Type
REMARK                         _______ _______ _______ _____ _____    ______ ____
ROOT
ATOM      1  N   UNL     1       1.421   7.559  20.558  0.00  0.00    +0.000 N 
ATOM      2  C   UNL     1       2.026   6.491  19.895  0.00  0.00    +0.000 A 
ATOM      3  N   UNL     1       1.566   5.268  20.194  0.00  0.00    +0.000 NA
ATOM      4  C   UNL     1       2.108   4.200  19.556  0.00  0.00    +0.000 A 
ATOM      5  C   UNL     1       3.157   4.323  18.663  0.00  0.00    +0.000 A 
ATOM      6  C   UNL     1       3.538   5.624  18.411  0.00  0.00    +0.000 A 
ATOM      7  N   UNL     1       2.992   6.696  18.998  0.00  0.00    +0.000 NA
ATOM      8  C   UNL     1       3.834   3.197  17.948  0.00  0.00    +0.000 C 
ATOM      9  S   UNL     1       3.536   1.556  18.647  0.00  0.00    +0.000 S 
ATOM     10  C   UNL     1       1.757   1.751  18.917  0.00  0.00    +0.000 C 
ATOM     11  C   UNL     1       1.498   2.870  19.916  0.00  0.00    +0.000 C 
ATOM     12  H   UNL     1       0.668   7.206  21.129  0.00  0.00    +0.000 HD
ENDROOT
BRANCH   1  16
ATOM     13  C   UNL     1       1.098  11.658  19.549  0.00  0.00    +0.000 A 
ATOM     14  C   UNL     1       0.942  11.226  20.865  0.00  0.00    +0.000 A 
ATOM     15  C   UNL     1       1.089   9.872  21.194  0.00  0.00    +0.000 A 
ATOM     16  C   UNL     1       1.355   8.916  20.204  0.00  0.00    +0.000 A 
ATOM     17  C   UNL     1       1.551   9.379  18.899  0.00  0.00    +0.000 A 
ATOM     18  C   UNL     1       1.408  10.727  18.565  0.00  0.00    +0.000 A 
BRANCH  13  20
ATOM     19  C   UNL     1       2.078  13.747  19.068  0.00  0.00    +0.000 C 
ATOM     20  O   UNL     1       0.899  12.993  19.329  0.00  0.00    +0.000 OA
ENDBRANCH  13  20
ENDBRANCH   1  16
BRANCH   6  21
ATOM     21  O   UNL     1       4.473   5.813  17.400  0.00  0.00    +0.000 OA
BRANCH  21  22
ATOM     22  C   UNL     1       5.743   6.239  17.714  0.00  0.00    +0.000 A 
ATOM     23  C   UNL     1       6.507   5.337  18.460  0.00  0.00    +0.000 A 
ATOM     24  C   UNL     1       7.762   5.708  18.922  0.00  0.00    +0.000 A 
ATOM     25  C   UNL     1       8.261   6.977  18.626  0.00  0.00    +0.000 A 
ATOM     26  C   UNL     1       7.519   7.888  17.865  0.00  0.00    +0.000 A 
ATOM     27  C   UNL     1       6.234   7.522  17.439  0.00  0.00    +0.000 A 
BRANCH  26  28
ATOM     28  N   UNL     1       8.010   9.175  17.525  0.00  0.00    +0.000 N 
ATOM     29  C   UNL     1       8.747   9.979  18.373  0.00  0.00    +0.000 C 
ATOM     30  O   UNL     1       9.164   9.656  19.484  0.00  0.00    +0.000 OA
ATOM     31  H   UNL     1       7.888   9.470  16.566  0.00  0.00    +0.000 HD
BRANCH  29  32
ATOM     32  C   UNL     1       9.117  11.305  17.794  0.00  0.00    +0.000 C 
ATOM     33  C   UNL     1       9.410  12.381  18.553  0.00  0.00    +0.000 C 
ATOM     34  C   UNL     1       9.236  12.481  20.049  0.00  0.00    +0.000 C 
ATOM     35  C   UNL     1       9.996  13.626  17.941  0.00  0.00    +0.000 C 
ENDBRANCH  29  32
ENDBRANCH  26  28
ENDBRANCH  21  22
ENDBRANCH   6  21
TORSDOF 6
ENDMDL
MODEL 4
REMARK VINA RESULT:      -8.4      5.222      8.786
REMARK  Name = 
REMARK  9 active torsions:
REMARK  status: ('A' for Active; 'I' for Inactive)
REMARK    1  A    between atoms: C_1  and  O_2
REMARK    2  A    between atoms: O_2  and  C_3
REMARK    3  A    between atoms: C_6  and  N_7
REMARK    4  A    between atoms: C_12  and  O_13
REMARK    5  A    between atoms: O_13  and  C_14
REMARK    6  A    between atoms: C_18  and  N_19
REMARK    7  A    between atoms: C_20  and  C_22
REMARK    8  A    between atoms: C_23  and  C_24
REMARK    9  A    between atoms: C_23  and  C_25
REMARK                            x       y       z     vdW  Elec       q    Type
REMARK                         _______ _______ _______ _____ _____    ______ ____
ROOT
ATOM      1  N   UNL     1      -4.738  13.157  21.434  0.00  0.00    +0.000 N 
ATOM      2  C   UNL     1      -3.999  12.551  20.417  0.00  0.00    +0.000 A 
ATOM      3  N   UNL     1      -4.677  12.206  19.314  0.00  0.00    +0.000 NA
ATOM      4  C   UNL     1      -3.996  11.635  18.289  0.00  0.00    +0.000 A 
ATOM      5  C   UNL     1      -2.647  11.339  18.368  0.00  0.00    +0.000 A 
ATOM      6  C   UNL     1      -2.042  11.756  19.536  0.00  0.00    +0.000 A 
ATOM      7  N   UNL     1      -2.686  12.356  20.544  0.00  0.00    +0.000 NA
ATOM      8  C   UNL     1      -1.832  10.679  17.302  0.00  0.00    +0.000 C 
ATOM      9  S   UNL     1      -2.786   9.830  16.022  0.00  0.00    +0.000 S 
ATOM     10  C   UNL     1      -4.034  11.120  15.787  0.00  0.00    +0.000 C 
ATOM     11  C   UNL     1      -4.826  11.324  17.071  0.00  0.00    +0.000 C 
ATOM     12  H   UNL     1      -5.687  13.286  21.117  0.00  0.00    +0.000 HD
ENDROOT
BRANCH   1  16
ATOM     13  C   UNL     1      -3.372  15.715  24.519  0.00  0.00    +0.000 A 
ATOM     14  C   UNL     1      -3.892  16.231  23.333  0.00  0.00    +0.000 A 
ATOM     15  C   UNL     1      -4.377  15.376  22.335  0.00  0.00    +0.000 A 
ATOM     16  C   UNL     1      -4.312  13.984  22.485  0.00  0.00    +0.000 A 
ATOM     17  C   UNL     1      -3.828  13.491  23.702  0.00  0.00    +0.000 A 
ATOM     18  C   UNL     1      -3.346  14.338  24.701  0.00  0.00    +0.000 A 
BRANCH  13  20
ATOM     19  C   UNL     1      -1.531  16.457  25.791  0.00  0.00    +0.000 C 
ATOM     20  O   UNL     1      -2.893  16.633  25.412  0.00  0.00    +0.000 OA
ENDBRANCH  13  20
ENDBRANCH   1  16
BRANCH   6  21
ATOM     21  O   UNL     1      -0.659  11.632  19.598  0.00  0.00    +0.000 OA
BRANCH  21  22
ATOM     22  C   UNL     1      -0.098  10.541  20.220  0.00  0.00    +0.000 A 
ATOM     23  C   UNL     1      -0.358  10.437  21.590  0.00  0.00    +0.000 A 
ATOM     24  C   UNL     1       0.247   9.435  22.335  0.00  0.00    +0.000 A 
ATOM     25  C   UNL     1       1.104   8.528  21.709  0.00  0.00    +0.000 A 
ATOM     26  C   UNL     1       1.363   8.605  20.336  0.00  0.00    +0.000 A 
ATOM     27  C   UNL     1       0.782   9.646  19.597  0.00  0.00    +0.000 A 
BRANCH  26  28
ATOM     28  N   UNL     1       2.207   7.681  19.667  0.00  0.00    +0.000 N 
ATOM     29  C   UNL     1       2.252   6.327  19.936  0.00  0.00    +0.000 C 
ATOM     30  O   UNL     1       1.506   5.724  20.705  0.00  0.00    +0.000 OA
ATOM     31  H   UNL     1       2.734   8.035  18.880  0.00  0.00    +0.000 HD
BRANCH  29  32
ATOM     32  C   UNL     1       3.250   5.573  19.121  0.00  0.00    +0.000 C 
ATOM     33  C   UNL     1       2.905   4.785  18.082  0.00  0.00    +0.000 C 
ATOM     34  C   UNL     1       1.497   4.393  17.700  0.00  0.00    +0.000 C 
ATOM     35  C   UNL     1       3.948   4.227  17.150  0.00  0.00    +0.000 C 
ENDBRANCH  29  32
ENDBRANCH  26  28
ENDBRANCH  21  22
ENDBRANCH   6  21
TORSDOF 6
ENDMDL
MODEL 5
REMARK VINA RESULT:      -8.3      2.006      7.137
REMARK  Name = 
REMARK  9 active torsions:
REMARK  status: ('A' for Active; 'I' for Inactive)
REMARK    1  A    between atoms: C_1  and  O_2
REMARK    2  A    between atoms: O_2  and  C_3
REMARK    3  A    between atoms: C_6  and  N_7
REMARK    4  A    between atoms: C_12  and  O_13
REMARK    5  A    between atoms: O_13  and  C_14
REMARK    6  A    between atoms: C_18  and  N_19
REMARK    7  A    between atoms: C_20  and  C_22
REMARK    8  A    between atoms: C_23  and  C_24
REMARK    9  A    between atoms: C_23  and  C_25
REMARK                            x       y       z     vdW  Elec       q    Type
REMARK                         _______ _______ _______ _____ _____    ______ ____
ROOT
ATOM      1  N   UNL     1       6.336   5.714  17.458  0.00  0.00    +0.000 N 
ATOM      2  C   UNL     1       5.109   5.310  17.986  0.00  0.00    +0.000 A 
ATOM      3  N   UNL     1       4.770   4.028  17.789  0.00  0.00    +0.000 NA
ATOM      4  C   UNL     1       3.597   3.584  18.305  0.00  0.00    +0.000 A 
ATOM      5  C   UNL     1       2.713   4.418  18.965  0.00  0.00    +0.000 A 
ATOM      6  C   UNL     1       3.169   5.709  19.132  0.00  0.00    +0.000 A 
ATOM      7  N   UNL     1       4.340   6.160  18.666  0.00  0.00    +0.000 NA
ATOM      8  C   UNL     1       1.387   4.018  19.529  0.00  0.00    +0.000 C 
ATOM      9  S   UNL     1       0.731   2.451  18.909  0.00  0.00    +0.000 S 
ATOM     10  C   UNL     1       2.276   1.512  19.007  0.00  0.00    +0.000 C 
ATOM     11  C   UNL     1       3.318   2.120  18.079  0.00  0.00    +0.000 C 
ATOM     12  H   UNL     1       6.798   4.913  17.054  0.00  0.00    +0.000 HD
ENDROOT
BRANCH   1  16
ATOM     13  C   UNL     1       8.764   8.967  18.662  0.00  0.00    +0.000 A 
ATOM     14  C   UNL     1       8.807   7.748  19.337  0.00  0.00    +0.000 A 
ATOM     15  C   UNL     1       8.028   6.666  18.907  0.00  0.00    +0.000 A 
ATOM     16  C   UNL     1       7.157   6.795  17.816  0.00  0.00    +0.000 A 
ATOM     17  C   UNL     1       7.165   8.013  17.127  0.00  0.00    +0.000 A 
ATOM     18  C   UNL     1       7.941   9.093  17.550  0.00  0.00    +0.000 A 
BRANCH  13  20
ATOM     19  C   UNL     1       9.166  11.286  18.789  0.00  0.00    +0.000 C 
ATOM     20  O   UNL     1       9.535   9.968  19.184  0.00  0.00    +0.000 OA
ENDBRANCH  13  20
ENDBRANCH   1  16
BRANCH   6  21
ATOM     21  O   UNL     1       2.395   6.543  19.930  0.00  0.00    +0.000 OA
BRANCH  21  22
ATOM     22  C   UNL     1       1.929   7.734  19.424  0.00  0.00    +0.000 A 
ATOM     23  C   UNL     1       2.322   8.021  18.114  0.00  0.00    +0.000 A 
ATOM     24  C   UNL     1       1.997   9.244  17.545  0.00  0.00    +0.000 A 
ATOM     25  C   UNL     1       1.265  10.177  18.281  0.00  0.00    +0.000 A 
ATOM     26  C   UNL     1       0.847   9.902  19.588  0.00  0.00    +0.000 A 
ATOM     27  C   UNL     1       1.216   8.682  20.172  0.00  0.00    +0.000 A 
BRANCH  26  28
ATOM     28  N   UNL     1       0.079  10.820  20.351  0.00  0.00    +0.000 N 
ATOM     29  C   UNL     1       0.606  11.892  21.045  0.00  0.00    +0.000 C 
ATOM     30  O   UNL     1       1.780  12.258  21.014  0.00  0.00    +0.000 OA
ATOM     31  H   UNL     1      -0.926  10.728  20.296  0.00  0.00    +0.000 HD
BRANCH  29  32
ATOM     32  C   UNL     1      -0.404  12.690  21.801  0.00  0.00    +0.000 C 
ATOM     33  C   UNL     1      -1.144  12.175  22.805  0.00  0.00    +0.000 C 
ATOM     34  C   UNL     1      -1.214  10.718  23.193  0.00  0.00    +0.000 C 
ATOM     35  C   UNL     1      -1.980  13.064  23.687  0.00  0.00    +0.000 C 
ENDBRANCH  29  32
ENDBRANCH  26  28
ENDBRANCH  21  22
ENDBRANCH   6  21
TORSDOF 6
ENDMDL
MODEL 6
REMARK VINA RESULT:      -8.3      2.212      7.338
REMARK  Name = 
REMARK  9 active torsions:
REMARK  status: ('A' for Active; 'I' for Inactive)
REMARK    1  A    between atoms: C_1  and  O_2
REMARK    2  A    between atoms: O_2  and  C_3
REMARK    3  A    between atoms: C_6  and  N_7
REMARK    4  A    between atoms: C_12  and  O_13
REMARK    5  A    between atoms: O_13  and  C_14
REMARK    6  A    between atoms: C_18  and  N_19
REMARK    7  A    between atoms: C_20  and  C_22
REMARK    8  A    between atoms: C_23  and  C_24
REMARK    9  A    between atoms: C_23  and  C_25
REMARK                            x       y       z     vdW  Elec       q    Type
REMARK                         _______ _______ _______ _____ _____    ______ ____
ROOT
ATOM      1  N   UNL     1       6.364   6.181  17.263  0.00  0.00    +0.000 N 
ATOM      2  C   UNL     1       5.202   5.668  17.841  0.00  0.00    +0.000 A 
ATOM      3  N   UNL     1       4.897   4.399  17.538  0.00  0.00    +0.000 NA
ATOM      4  C   UNL     1       3.789   3.850  18.095  0.00  0.00    +0.000 A 
ATOM      5  C   UNL     1       2.932   4.570  18.906  0.00  0.00    +0.000 A 
ATOM      6  C   UNL     1       3.350   5.858  19.171  0.00  0.00    +0.000 A 
ATOM      7  N   UNL     1       4.459   6.408  18.665  0.00  0.00    +0.000 NA
ATOM      8  C   UNL     1       1.673   4.053  19.528  0.00  0.00    +0.000 C 
ATOM      9  S   UNL     1       1.029   2.528  18.801  0.00  0.00    +0.000 S 
ATOM     10  C   UNL     1       2.612   1.658  18.678  0.00  0.00    +0.000 C 
ATOM     11  C   UNL     1       3.549   2.405  17.740  0.00  0.00    +0.000 C 
ATOM     12  H   UNL     1       6.821   5.448  16.741  0.00  0.00    +0.000 HD
ENDROOT
BRANCH   1  16
ATOM     13  C   UNL     1       8.756   9.406  18.606  0.00  0.00    +0.000 A 
ATOM     14  C   UNL     1       8.905   8.127  19.141  0.00  0.00    +0.000 A 
ATOM     15  C   UNL     1       8.135   7.059  18.663  0.00  0.00    +0.000 A 
ATOM     16  C   UNL     1       7.169   7.258  17.666  0.00  0.00    +0.000 A 
ATOM     17  C   UNL     1       7.070   8.539  17.114  0.00  0.00    +0.000 A 
ATOM     18  C   UNL     1       7.836   9.607  17.585  0.00  0.00    +0.000 A 
BRANCH  13  20
ATOM     19  C   UNL     1       9.237  10.680  20.530  0.00  0.00    +0.000 C 
ATOM     20  O   UNL     1       9.529  10.384  19.168  0.00  0.00    +0.000 OA
ENDBRANCH  13  20
ENDBRANCH   1  16
BRANCH   6  21
ATOM     21  O   UNL     1       2.613   6.570  20.111  0.00  0.00    +0.000 OA
BRANCH  21  22
ATOM     22  C   UNL     1       1.917   7.692  19.728  0.00  0.00    +0.000 A 
ATOM     23  C   UNL     1       2.185   8.146  18.433  0.00  0.00    +0.000 A 
ATOM     24  C   UNL     1       1.618   9.331  17.984  0.00  0.00    +0.000 A 
ATOM     25  C   UNL     1       0.772  10.056  18.823  0.00  0.00    +0.000 A 
ATOM     26  C   UNL     1       0.477   9.608  20.117  0.00  0.00    +0.000 A 
ATOM     27  C   UNL     1       1.087   8.433  20.580  0.00  0.00    +0.000 A 
BRANCH  26  28
ATOM     28  N   UNL     1      -0.401  10.309  20.984  0.00  0.00    +0.000 N 
ATOM     29  C   UNL     1      -0.237  10.405  22.352  0.00  0.00    +0.000 C 
ATOM     30  O   UNL     1       0.733   9.993  22.987  0.00  0.00    +0.000 OA
ATOM     31  H   UNL     1      -1.136  10.848  20.547  0.00  0.00    +0.000 HD
BRANCH  29  32
ATOM     32  C   UNL     1      -1.315  11.167  23.048  0.00  0.00    +0.000 C 
ATOM     33  C   UNL     1      -1.446  12.506  22.953  0.00  0.00    +0.000 C 
ATOM     34  C   UNL     1      -0.455  13.448  22.311  0.00  0.00    +0.000 C 
ATOM     35  C   UNL     1      -2.672  13.206  23.478  0.00  0.00    +0.000 C 
ENDBRANCH  29  32
ENDBRANCH  26  28
ENDBRANCH  21  22
ENDBRANCH   6  21
TORSDOF 6
ENDMDL
MODEL 7
REMARK VINA RESULT:      -8.2      5.047      8.600
REMARK  Name = 
REMARK  9 active torsions:
REMARK  status: ('A' for Active; 'I' for Inactive)
REMARK    1  A    between atoms: C_1  and  O_2
REMARK    2  A    between atoms: O_2  and  C_3
REMARK    3  A    between atoms: C_6  and  N_7
REMARK    4  A    between atoms: C_12  and  O_13
REMARK    5  A    between atoms: O_13  and  C_14
REMARK    6  A    between atoms: C_18  and  N_19
REMARK    7  A    between atoms: C_20  and  C_22
REMARK    8  A    between atoms: C_23  and  C_24
REMARK    9  A    between atoms: C_23  and  C_25
REMARK                            x       y       z     vdW  Elec       q    Type
REMARK                         _______ _______ _______ _____ _____    ______ ____
ROOT
ATOM      1  N   UNL     1      -4.348  13.274  21.406  0.00  0.00    +0.000 N 
ATOM      2  C   UNL     1      -3.688  12.604  20.375  0.00  0.00    +0.000 A 
ATOM      3  N   UNL     1      -4.428  12.285  19.304  0.00  0.00    +0.000 NA
ATOM      4  C   UNL     1      -3.823  11.653  18.267  0.00  0.00    +0.000 A 
ATOM      5  C   UNL     1      -2.495  11.270  18.303  0.00  0.00    +0.000 A 
ATOM      6  C   UNL     1      -1.822  11.666  19.440  0.00  0.00    +0.000 A 
ATOM      7  N   UNL     1      -2.388  12.325  20.459  0.00  0.00    +0.000 NA
ATOM      8  C   UNL     1      -1.765  10.539  17.222  0.00  0.00    +0.000 C 
ATOM      9  S   UNL     1      -2.819   9.733  15.994  0.00  0.00    +0.000 S 
ATOM     10  C   UNL     1      -3.987  11.098  15.778  0.00  0.00    +0.000 C 
ATOM     11  C   UNL     1      -4.717  11.376  17.085  0.00  0.00    +0.000 C 
ATOM     12  H   UNL     1      -5.298  13.460  21.120  0.00  0.00    +0.000 HD
ENDROOT
BRANCH   1  16
ATOM     13  C   UNL     1      -2.898  15.705  24.554  0.00  0.00    +0.000 A 
ATOM     14  C   UNL     1      -3.246  14.373  24.774  0.00  0.00    +0.000 A 
ATOM     15  C   UNL     1      -3.688  13.566  23.718  0.00  0.00    +0.000 A 
ATOM     16  C   UNL     1      -3.831  14.089  22.425  0.00  0.00    +0.000 A 
ATOM     17  C   UNL     1      -3.434  15.415  22.220  0.00  0.00    +0.000 A 
ATOM     18  C   UNL     1      -2.990  16.222  23.268  0.00  0.00    +0.000 A 
BRANCH  13  20
ATOM     19  C   UNL     1      -1.152  16.246  26.042  0.00  0.00    +0.000 C 
ATOM     20  O   UNL     1      -2.513  16.413  25.658  0.00  0.00    +0.000 OA
ENDBRANCH  13  20
ENDBRANCH   1  16
BRANCH   6  21
ATOM     21  O   UNL     1      -0.448  11.452  19.456  0.00  0.00    +0.000 OA
BRANCH  21  22
ATOM     22  C   UNL     1       0.072  10.397  20.168  0.00  0.00    +0.000 A 
ATOM     23  C   UNL     1      -0.215  10.403  21.536  0.00  0.00    +0.000 A 
ATOM     24  C   UNL     1       0.349   9.443  22.366  0.00  0.00    +0.000 A 
ATOM     25  C   UNL     1       1.190   8.469  21.826  0.00  0.00    +0.000 A 
ATOM     26  C   UNL     1       1.475   8.436  20.456  0.00  0.00    +0.000 A 
ATOM     27  C   UNL     1       0.936   9.434  19.631  0.00  0.00    +0.000 A 
BRANCH  26  28
ATOM     28  N   UNL     1       2.304   7.443  19.874  0.00  0.00    +0.000 N 
ATOM     29  C   UNL     1       2.568   7.339  18.522  0.00  0.00    +0.000 C 
ATOM     30  O   UNL     1       2.215   8.141  17.659  0.00  0.00    +0.000 OA
ATOM     31  H   UNL     1       2.803   6.838  20.511  0.00  0.00    +0.000 HD
BRANCH  29  32
ATOM     32  C   UNL     1       3.442   6.185  18.155  0.00  0.00    +0.000 C 
ATOM     33  C   UNL     1       2.955   4.984  17.783  0.00  0.00    +0.000 C 
ATOM     34  C   UNL     1       1.508   4.556  17.857  0.00  0.00    +0.000 C 
ATOM     35  C   UNL     1       3.856   3.925  17.205  0.00  0.00    +0.000 C 
ENDBRANCH  29  32
ENDBRANCH  26  28
ENDBRANCH  21  22
ENDBRANCH   6  21
TORSDOF 6
ENDMDL
MODEL 8
REMARK VINA RESULT:      -8.2      3.148      5.112
REMARK  Name = 
REMARK  9 active torsions:
REMARK  status: ('A' for Active; 'I' for Inactive)
REMARK    1  A    between atoms: C_1  and  O_2
REMARK    2  A    between atoms: O_2  and  C_3
REMARK    3  A    between atoms: C_6  and  N_7
REMARK    4  A    between atoms: C_12  and  O_13
REMARK    5  A    between atoms: O_13  and  C_14
REMARK    6  A    between atoms: C_18  and  N_19
REMARK    7  A    between atoms: C_20  and  C_22
REMARK    8  A    between atoms: C_23  and  C_24
REMARK    9  A    between atoms: C_23  and  C_25
REMARK                            x       y       z     vdW  Elec       q    Type
REMARK                         _______ _______ _______ _____ _____    ______ ____
ROOT
ATOM      1  N   UNL     1       1.115   8.171  21.279  0.00  0.00    +0.000 N 
ATOM      2  C   UNL     1       1.627   7.117  20.520  0.00  0.00    +0.000 A 
ATOM      3  N   UNL     1       1.462   5.887  21.025  0.00  0.00    +0.000 NA
ATOM      4  C   UNL     1       1.922   4.829  20.311  0.00  0.00    +0.000 A 
ATOM      5  C   UNL     1       2.609   4.979  19.121  0.00  0.00    +0.000 A 
ATOM      6  C   UNL     1       2.703   6.283  18.681  0.00  0.00    +0.000 A 
ATOM      7  N   UNL     1       2.223   7.339  19.349  0.00  0.00    +0.000 NA
ATOM      8  C   UNL     1       3.180   3.871  18.294  0.00  0.00    +0.000 C 
ATOM      9  S   UNL     1       3.353   2.287  19.147  0.00  0.00    +0.000 S 
ATOM     10  C   UNL     1       1.739   2.303  19.968  0.00  0.00    +0.000 C 
ATOM     11  C   UNL     1       1.651   3.480  20.929  0.00  0.00    +0.000 C 
ATOM     12  H   UNL     1       0.637   7.793  22.083  0.00  0.00    +0.000 HD
ENDROOT
BRANCH   1  16
ATOM     13  C   UNL     1      -0.105  12.068  20.160  0.00  0.00    +0.000 A 
ATOM     14  C   UNL     1      -0.070  11.681  21.498  0.00  0.00    +0.000 A 
ATOM     15  C   UNL     1       0.372  10.401  21.860  0.00  0.00    +0.000 A 
ATOM     16  C   UNL     1       0.749   9.468  20.885  0.00  0.00    +0.000 A 
ATOM     17  C   UNL     1       0.749   9.894  19.553  0.00  0.00    +0.000 A 
ATOM     18  C   UNL     1       0.312  11.168  19.186  0.00  0.00    +0.000 A 
BRANCH  13  20
ATOM     19  C   UNL     1      -0.146  13.910  18.691  0.00  0.00    +0.000 C 
ATOM     20  O   UNL     1      -0.586  13.323  19.912  0.00  0.00    +0.000 OA
ENDBRANCH  13  20
ENDBRANCH   1  16
BRANCH   6  21
ATOM     21  O   UNL     1       3.237   6.474  17.412  0.00  0.00    +0.000 OA
BRANCH  21  22
ATOM     22  C   UNL     1       4.505   6.022  17.128  0.00  0.00    +0.000 A 
ATOM     23  C   UNL     1       5.528   6.606  17.880  0.00  0.00    +0.000 A 
ATOM     24  C   UNL     1       6.853   6.300  17.602  0.00  0.00    +0.000 A 
ATOM     25  C   UNL     1       7.156   5.401  16.579  0.00  0.00    +0.000 A 
ATOM     26  C   UNL     1       6.144   4.792  15.827  0.00  0.00    +0.000 A 
ATOM     27  C   UNL     1       4.810   5.138  16.085  0.00  0.00    +0.000 A 
BRANCH  26  28
ATOM     28  N   UNL     1       6.420   3.853  14.799  0.00  0.00    +0.000 N 
ATOM     29  C   UNL     1       6.802   4.190  13.515  0.00  0.00    +0.000 C 
ATOM     30  O   UNL     1       7.056   5.325  13.117  0.00  0.00    +0.000 OA
ATOM     31  H   UNL     1       6.426   2.878  15.064  0.00  0.00    +0.000 HD
BRANCH  29  32
ATOM     32  C   UNL     1       6.998   3.021  12.607  0.00  0.00    +0.000 C 
ATOM     33  C   UNL     1       6.044   2.579  11.762  0.00  0.00    +0.000 C 
ATOM     34  C   UNL     1       4.609   3.048  11.726  0.00  0.00    +0.000 C 
ATOM     35  C   UNL     1       6.357   1.550  10.707  0.00  0.00    +0.000 C 
ENDBRANCH  29  32
ENDBRANCH  26  28
ENDBRANCH  21  22
ENDBRANCH   6  21
TORSDOF 6
ENDMDL
MODEL 9
REMARK VINA RESULT:      -8.0      2.164      7.527
REMARK  Name = 
REMARK  9 active torsions:
REMARK  status: ('A' for Active; 'I' for Inactive)
REMARK    1  A    between atoms: C_1  and  O_2
REMARK    2  A    between atoms: O_2  and  C_3
REMARK    3  A    between atoms: C_6  and  N_7
REMARK    4  A    between atoms: C_12  and  O_13
REMARK    5  A    between atoms: O_13  and  C_14
REMARK    6  A    between atoms: C_18  and  N_19
REMARK    7  A    between atoms: C_20  and  C_22
REMARK    8  A    between atoms: C_23  and  C_24
REMARK    9  A    between atoms: C_23  and  C_25
REMARK                            x       y       z     vdW  Elec       q    Type
REMARK                         _______ _______ _______ _____ _____    ______ ____
ROOT
ATOM      1  N   UNL     1       6.335   6.189  17.307  0.00  0.00    +0.000 N 
ATOM      2  C   UNL     1       5.184   5.630  17.862  0.00  0.00    +0.000 A 
ATOM      3  N   UNL     1       4.878   4.386  17.470  0.00  0.00    +0.000 NA
ATOM      4  C   UNL     1       3.780   3.792  18.002  0.00  0.00    +0.000 A 
ATOM      5  C   UNL     1       2.934   4.446  18.879  0.00  0.00    +0.000 A 
ATOM      6  C   UNL     1       3.353   5.712  19.233  0.00  0.00    +0.000 A 
ATOM      7  N   UNL     1       4.453   6.303  18.751  0.00  0.00    +0.000 NA
ATOM      8  C   UNL     1       1.687   3.879  19.480  0.00  0.00    +0.000 C 
ATOM      9  S   UNL     1       1.036   2.411  18.650  0.00  0.00    +0.000 S 
ATOM     10  C   UNL     1       2.618   1.558  18.437  0.00  0.00    +0.000 C 
ATOM     11  C   UNL     1       3.539   2.377  17.543  0.00  0.00    +0.000 C 
ATOM     12  H   UNL     1       6.786   5.499  16.724  0.00  0.00    +0.000 HD
ENDROOT
BRANCH   1  16
ATOM     13  C   UNL     1       8.813   9.371  18.596  0.00  0.00    +0.000 A 
ATOM     14  C   UNL     1       7.832   9.570  17.626  0.00  0.00    +0.000 A 
ATOM     15  C   UNL     1       6.992   8.519  17.234  0.00  0.00    +0.000 A 
ATOM     16  C   UNL     1       7.144   7.236  17.776  0.00  0.00    +0.000 A 
ATOM     17  C   UNL     1       8.105   7.072  18.780  0.00  0.00    +0.000 A 
ATOM     18  C   UNL     1       8.943   8.115  19.176  0.00  0.00    +0.000 A 
BRANCH  13  20
ATOM     19  C   UNL     1       9.892  11.298  17.772  0.00  0.00    +0.000 C 
ATOM     20  O   UNL     1       9.602  10.451  18.880  0.00  0.00    +0.000 OA
ENDBRANCH  13  20
ENDBRANCH   1  16
BRANCH   6  21
ATOM     21  O   UNL     1       2.630   6.349  20.235  0.00  0.00    +0.000 OA
BRANCH  21  22
ATOM     22  C   UNL     1       1.903   7.479  19.942  0.00  0.00    +0.000 A 
ATOM     23  C   UNL     1       2.120   8.014  18.669  0.00  0.00    +0.000 A 
ATOM     24  C   UNL     1       1.520   9.212  18.309  0.00  0.00    +0.000 A 
ATOM     25  C   UNL     1       0.690   9.871  19.218  0.00  0.00    +0.000 A 
ATOM     26  C   UNL     1       0.446   9.342  20.491  0.00  0.00    +0.000 A 
ATOM     27  C   UNL     1       1.090   8.153  20.863  0.00  0.00    +0.000 A 
BRANCH  26  28
ATOM     28  N   UNL     1      -0.414   9.974  21.426  0.00  0.00    +0.000 N 
ATOM     29  C   UNL     1      -0.185  11.219  21.981  0.00  0.00    +0.000 C 
ATOM     30  O   UNL     1       0.725  11.985  21.669  0.00  0.00    +0.000 OA
ATOM     31  H   UNL     1      -1.294   9.516  21.616  0.00  0.00    +0.000 HD
BRANCH  29  32
ATOM     32  C   UNL     1      -1.219  11.650  22.968  0.00  0.00    +0.000 C 
ATOM     33  C   UNL     1      -2.359  12.276  22.610  0.00  0.00    +0.000 C 
ATOM     34  C   UNL     1      -2.686  12.798  21.231  0.00  0.00    +0.000 C 
ATOM     35  C   UNL     1      -3.472  12.488  23.602  0.00  0.00    +0.000 C 
ENDBRANCH  29  32
ENDBRANCH  26  28
ENDBRANCH  21  22
ENDBRANCH   6  21
TORSDOF 6
ENDMDL
