MODEL 1
REMARK VINA RESULT:      -8.5      0.000      0.000
REMARK  Name = 
REMARK  8 active torsions:
REMARK  status: ('A' for Active; 'I' for Inactive)
REMARK    1  A    between atoms: C_1  and  N_2
REMARK    2  A    between atoms: C_3  and  C_5
REMARK    3  A    between atoms: C_5  and  O_6
REMARK    4  A    between atoms: O_6  and  C_7
REMARK    5  A    between atoms: C_11  and  N_12
REMARK    6  A    between atoms: C_18  and  N_19
REMARK    7  A    between atoms: N_19  and  C_20
REMARK    8  A    between atoms: C_23  and  C_24
REMARK                            x       y       z     vdW  Elec       q    Type
REMARK                         _______ _______ _______ _____ _____    ______ ____
ROOT
ATOM      1  N   UNL     1       1.776   6.551  20.819  0.00  0.00    +0.000 N 
ATOM      2  C   UNL     1       1.456   7.912  20.853  0.00  0.00    +0.000 A 
ATOM      3  N   UNL     1       1.537   8.538  22.032  0.00  0.00    +0.000 NA
ATOM      4  C   UNL     1       1.256   9.861  22.025  0.00  0.00    +0.000 A 
ATOM      5  C   UNL     1       0.885  10.565  20.903  0.00  0.00    +0.000 A 
ATOM      6  F   UNL     1       0.585  11.869  20.967  0.00  0.00    +0.000 F 
ATOM      7  C   UNL     1       0.795   9.852  19.731  0.00  0.00    +0.000 A 
ATOM      8  N   UNL     1       1.076   8.534  19.724  0.00  0.00    +0.000 NA
ATOM      9  H   UNL     1       1.929   6.174  21.744  0.00  0.00    +0.000 HD
ENDROOT
BRANCH   1  14
ATOM     10  C   UNL     1       3.809   5.431  17.865  0.00  0.00    +0.000 C 
ATOM     11  C   UNL     1       3.101   4.403  17.377  0.00  0.00    +0.000 C 
ATOM     12  C   UNL     1       1.798   3.993  17.988  0.00  0.00    +0.000 C 
ATOM     13  C   UNL     1       1.578   4.502  19.429  0.00  0.00    +0.000 C 
ATOM     14  C   UNL     1       2.261   5.828  19.741  0.00  0.00    +0.000 C 
ATOM     15  C   UNL     1       3.302   6.202  18.968  0.00  0.00    +0.000 C 
BRANCH  10  16
ATOM     16  O   UNL     1       4.957   5.836  17.225  0.00  0.00    +0.000 OA
BRANCH  16  17
ATOM     17  C   UNL     1       6.021   4.882  17.140  0.00  0.00    +0.000 C 
BRANCH  17  20
ATOM     18  C   UNL     1       6.248   3.856  13.489  0.00  0.00    +0.000 C 
ATOM     19  N   UNL     1       5.868   4.022  14.864  0.00  0.00    +0.000 N 
ATOM     20  C   UNL     1       6.561   4.852  15.715  0.00  0.00    +0.000 C 
ATOM     21  O   UNL     1       7.537   5.514  15.372  0.00  0.00    +0.000 OA
ATOM     22  H   UNL     1       5.060   3.539  15.240  0.00  0.00    +0.000 HD
ENDBRANCH  17  20
ENDBRANCH  16  17
ENDBRANCH  10  16
ENDBRANCH   1  14
BRANCH   7  23
ATOM     23  N   UNL     1       0.335  10.468  18.543  0.00  0.00    +0.000 N 
ATOM     24  H   UNL     1       0.922  10.277  17.739  0.00  0.00    +0.000 HD
BRANCH  23  25
ATOM     25  C   UNL     1      -1.000  10.831  18.273  0.00  0.00    +0.000 A 
ATOM     26  C   UNL     1      -1.726  11.576  19.212  0.00  0.00    +0.000 A 
ATOM     27  C   UNL     1      -3.065  11.896  19.012  0.00  0.00    +0.000 A 
ATOM     28  C   UNL     1      -3.739  11.479  17.858  0.00  0.00    +0.000 A 
ATOM     29  C   UNL     1      -3.018  10.747  16.905  0.00  0.00    +0.000 A 
ATOM     30 CL   UNL     1      -3.762  10.187  15.450  0.00  0.00    +0.000 Cl
ATOM     31  C   UNL     1      -1.658  10.431  17.106  0.00  0.00    +0.000 A 
BRANCH  28  32
ATOM     32  C   UNL     1      -5.193  11.832  17.700  0.00  0.00    +0.000 C 
ATOM     33  F   UNL     1      -5.438  12.565  16.572  0.00  0.00    +0.000 F 
ATOM     34  F   UNL     1      -6.002  10.741  17.596  0.00  0.00    +0.000 F 
ATOM     35  F   UNL     1      -5.684  12.584  18.724  0.00  0.00    +0.000 F 
ENDBRANCH  28  32
ENDBRANCH  23  25
ENDBRANCH   7  23
TORSDOF 7
ENDMDL
MODEL 2
REMARK VINA RESULT:      -8.5      3.452      5.936
REMARK  Name = 
REMARK  8 active torsions:
REMARK  status: ('A' for Active; 'I' for Inactive)
REMARK    1  A    between atoms: C_1  and  N_2
REMARK    2  A    between atoms: C_3  and  C_5
REMARK    3  A    between atoms: C_5  and  O_6
REMARK    4  A    between atoms: O_6  and  C_7
REMARK    5  A    between atoms: C_11  and  N_12
REMARK    6  A    between atoms: C_18  and  N_19
REMARK    7  A    between atoms: N_19  and  C_20
REMARK    8  A    between atoms: C_23  and  C_24
REMARK                            x       y       z     vdW  Elec       q    Type
REMARK                         _______ _______ _______ _____ _____    ______ ____
ROOT
ATOM      1  N   UNL     1       3.584   3.532  16.788  0.00  0.00    +0.000 N 
ATOM      2  C   UNL     1       2.874   3.500  17.992  0.00  0.00    +0.000 A 
ATOM      3  N   UNL     1       2.140   2.412  18.251  0.00  0.00    +0.000 NA
ATOM      4  C   UNL     1       1.495   2.397  19.439  0.00  0.00    +0.000 A 
ATOM      5  C   UNL     1       1.540   3.422  20.355  0.00  0.00    +0.000 A 
ATOM      6  F   UNL     1       0.850   3.363  21.502  0.00  0.00    +0.000 F 
ATOM      7  C   UNL     1       2.291   4.522  20.011  0.00  0.00    +0.000 A 
ATOM      8  N   UNL     1       2.942   4.547  18.832  0.00  0.00    +0.000 NA
ATOM      9  H   UNL     1       3.359   2.745  16.195  0.00  0.00    +0.000 HD
ENDROOT
BRANCH   1  14
ATOM     10  C   UNL     1       6.285   6.143  16.755  0.00  0.00    +0.000 C 
ATOM     11  C   UNL     1       7.087   5.742  15.760  0.00  0.00    +0.000 C 
ATOM     12  C   UNL     1       6.767   4.531  14.939  0.00  0.00    +0.000 C 
ATOM     13  C   UNL     1       5.761   3.561  15.594  0.00  0.00    +0.000 C 
ATOM     14  C   UNL     1       4.750   4.230  16.517  0.00  0.00    +0.000 C 
ATOM     15  C   UNL     1       5.060   5.439  17.028  0.00  0.00    +0.000 C 
BRANCH  10  16
ATOM     16  O   UNL     1       6.562   7.309  17.430  0.00  0.00    +0.000 OA
BRANCH  16  17
ATOM     17  C   UNL     1       7.884   7.450  17.960  0.00  0.00    +0.000 C 
BRANCH  17  20
ATOM     18  C   UNL     1       9.462  10.533  19.521  0.00  0.00    +0.000 C 
ATOM     19  N   UNL     1       9.068   9.194  19.184  0.00  0.00    +0.000 N 
ATOM     20  C   UNL     1       8.198   8.929  18.152  0.00  0.00    +0.000 C 
ATOM     21  O   UNL     1       7.703   9.800  17.441  0.00  0.00    +0.000 OA
ATOM     22  H   UNL     1       9.440   8.401  19.694  0.00  0.00    +0.000 HD
ENDBRANCH  17  20
ENDBRANCH  16  17
ENDBRANCH  10  16
ENDBRANCH   1  14
BRANCH   7  23
ATOM     23  N   UNL     1       2.327   5.663  20.847  0.00  0.00    +0.000 N 
ATOM     24  H   UNL     1       3.080   5.640  21.524  0.00  0.00    +0.000 HD
BRANCH  23  25
ATOM     25  C   UNL     1       1.818   6.936  20.517  0.00  0.00    +0.000 A 
ATOM     26  C   UNL     1       2.160   7.531  19.296  0.00  0.00    +0.000 A 
ATOM     27  C   UNL     1       1.733   8.813  18.964  0.00  0.00    +0.000 A 
ATOM     28  C   UNL     1       0.942   9.559  19.847  0.00  0.00    +0.000 A 
ATOM     29  C   UNL     1       0.581   8.966  21.064  0.00  0.00    +0.000 A 
ATOM     30 CL   UNL     1      -0.389   9.806  22.221  0.00  0.00    +0.000 Cl
ATOM     31  C   UNL     1       1.009   7.663  21.395  0.00  0.00    +0.000 A 
BRANCH  28  32
ATOM     32  C   UNL     1       0.525  10.949  19.450  0.00  0.00    +0.000 C 
ATOM     33  F   UNL     1       0.922  11.895  20.354  0.00  0.00    +0.000 F 
ATOM     34  F   UNL     1       1.057  11.350  18.262  0.00  0.00    +0.000 F 
ATOM     35  F   UNL     1      -0.823  11.103  19.345  0.00  0.00    +0.000 F 
ENDBRANCH  28  32
ENDBRANCH  23  25
ENDBRANCH   7  23
TORSDOF 7
ENDMDL
MODEL 3
REMARK VINA RESULT:      -8.5      1.088      1.530
REMARK  Name = 
REMARK  8 active torsions:
REMARK  status: ('A' for Active; 'I' for Inactive)
REMARK    1  A    between atoms: C_1  and  N_2
REMARK    2  A    between atoms: C_3  and  C_5
REMARK    3  A    between atoms: C_5  and  O_6
REMARK    4  A    between atoms: O_6  and  C_7
REMARK    5  A    between atoms: C_11  and  N_12
REMARK    6  A    between atoms: C_18  and  N_19
REMARK    7  A    between atoms: N_19  and  C_20
REMARK    8  A    between atoms: C_23  and  C_24
REMARK                            x       y       z     vdW  Elec       q    Type
REMARK                         _______ _______ _______ _____ _____    ______ ____
ROOT
ATOM      1  N   UNL     1       1.635   6.753  20.943  0.00  0.00    +0.000 N 
ATOM      2  C   UNL     1       1.362   8.123  20.896  0.00  0.00    +0.000 A 
ATOM      3  N   UNL     1       1.529   8.828  22.019  0.00  0.00    +0.000 NA
ATOM      4  C   UNL     1       1.291  10.157  21.932  0.00  0.00    +0.000 A 
ATOM      5  C   UNL     1       0.880  10.793  20.783  0.00  0.00    +0.000 A 
ATOM      6  F   UNL     1       0.627  12.108  20.769  0.00  0.00    +0.000 F 
ATOM      7  C   UNL     1       0.701  10.002  19.673  0.00  0.00    +0.000 A 
ATOM      8  N   UNL     1       0.938   8.678  19.747  0.00  0.00    +0.000 NA
ATOM      9  H   UNL     1       1.828   6.437  21.883  0.00  0.00    +0.000 HD
ENDROOT
BRANCH   1  14
ATOM     10  C   UNL     1       3.318   5.440  17.851  0.00  0.00    +0.000 C 
ATOM     11  C   UNL     1       2.673   4.289  17.617  0.00  0.00    +0.000 C 
ATOM     12  C   UNL     1       1.535   3.841  18.480  0.00  0.00    +0.000 C 
ATOM     13  C   UNL     1       1.476   4.521  19.865  0.00  0.00    +0.000 C 
ATOM     14  C   UNL     1       2.035   5.939  19.895  0.00  0.00    +0.000 C 
ATOM     15  C   UNL     1       2.895   6.303  18.922  0.00  0.00    +0.000 C 
BRANCH  10  16
ATOM     16  O   UNL     1       4.300   5.863  16.986  0.00  0.00    +0.000 OA
BRANCH  16  17
ATOM     17  C   UNL     1       5.507   5.096  16.953  0.00  0.00    +0.000 C 
BRANCH  17  20
ATOM     18  C   UNL     1       7.789   8.064  17.602  0.00  0.00    +0.000 C 
ATOM     19  N   UNL     1       6.748   7.075  17.649  0.00  0.00    +0.000 N 
ATOM     20  C   UNL     1       6.696   6.030  16.756  0.00  0.00    +0.000 C 
ATOM     21  O   UNL     1       7.525   5.855  15.867  0.00  0.00    +0.000 OA
ATOM     22  H   UNL     1       6.028   7.115  18.362  0.00  0.00    +0.000 HD
ENDBRANCH  17  20
ENDBRANCH  16  17
ENDBRANCH  10  16
ENDBRANCH   1  14
BRANCH   7  23
ATOM     23  N   UNL     1       0.194  10.548  18.470  0.00  0.00    +0.000 N 
ATOM     24  H   UNL     1       0.747  10.306  17.656  0.00  0.00    +0.000 HD
BRANCH  23  25
ATOM     25  C   UNL     1      -1.149  10.904  18.234  0.00  0.00    +0.000 A 
ATOM     26  C   UNL     1      -1.869  11.605  19.210  0.00  0.00    +0.000 A 
ATOM     27  C   UNL     1      -3.215  11.914  19.043  0.00  0.00    +0.000 A 
ATOM     28  C   UNL     1      -3.903  11.531  17.885  0.00  0.00    +0.000 A 
ATOM     29  C   UNL     1      -3.188  10.843  16.896  0.00  0.00    +0.000 A 
ATOM     30 CL   UNL     1      -3.947  10.326  15.433  0.00  0.00    +0.000 Cl
ATOM     31  C   UNL     1      -1.821  10.537  17.064  0.00  0.00    +0.000 A 
BRANCH  28  32
ATOM     32  C   UNL     1      -5.363  11.870  17.763  0.00  0.00    +0.000 C 
ATOM     33  F   UNL     1      -5.823  12.606  18.821  0.00  0.00    +0.000 F 
ATOM     34  F   UNL     1      -5.651  12.616  16.661  0.00  0.00    +0.000 F 
ATOM     35  F   UNL     1      -6.173  10.777  17.716  0.00  0.00    +0.000 F 
ENDBRANCH  28  32
ENDBRANCH  23  25
ENDBRANCH   7  23
TORSDOF 7
ENDMDL
MODEL 4
REMARK VINA RESULT:      -8.4      3.193      5.411
REMARK  Name = 
REMARK  8 active torsions:
REMARK  status: ('A' for Active; 'I' for Inactive)
REMARK    1  A    between atoms: C_1  and  N_2
REMARK    2  A    between atoms: C_3  and  C_5
REMARK    3  A    between atoms: C_5  and  O_6
REMARK    4  A    between atoms: O_6  and  C_7
REMARK    5  A    between atoms: C_11  and  N_12
REMARK    6  A    between atoms: C_18  and  N_19
REMARK    7  A    between atoms: N_19  and  C_20
REMARK    8  A    between atoms: C_23  and  C_24
REMARK                            x       y       z     vdW  Elec       q    Type
REMARK                         _______ _______ _______ _____ _____    ______ ____
ROOT
ATOM      1  N   UNL     1       3.201   3.433  17.019  0.00  0.00    +0.000 N 
ATOM      2  C   UNL     1       2.653   3.419  18.305  0.00  0.00    +0.000 A 
ATOM      3  N   UNL     1       2.035   2.302  18.704  0.00  0.00    +0.000 NA
ATOM      4  C   UNL     1       1.547   2.308  19.965  0.00  0.00    +0.000 A 
ATOM      5  C   UNL     1       1.638   3.380  20.822  0.00  0.00    +0.000 A 
ATOM      6  F   UNL     1       1.103   3.336  22.050  0.00  0.00    +0.000 F 
ATOM      7  C   UNL     1       2.260   4.505  20.336  0.00  0.00    +0.000 A 
ATOM      8  N   UNL     1       2.754   4.511  19.083  0.00  0.00    +0.000 NA
ATOM      9  H   UNL     1       2.958   2.604  16.494  0.00  0.00    +0.000 HD
ENDROOT
BRANCH   1  14
ATOM     10  C   UNL     1       6.305   4.557  15.224  0.00  0.00    +0.000 C 
ATOM     11  C   UNL     1       6.605   5.715  15.827  0.00  0.00    +0.000 C 
ATOM     12  C   UNL     1       5.789   6.236  16.970  0.00  0.00    +0.000 C 
ATOM     13  C   UNL     1       4.378   5.620  17.082  0.00  0.00    +0.000 C 
ATOM     14  C   UNL     1       4.272   4.188  16.569  0.00  0.00    +0.000 C 
ATOM     15  C   UNL     1       5.208   3.755  15.699  0.00  0.00    +0.000 C 
BRANCH  10  16
ATOM     16  O   UNL     1       7.127   4.066  14.238  0.00  0.00    +0.000 OA
BRANCH  16  17
ATOM     17  C   UNL     1       6.820   4.445  12.892  0.00  0.00    +0.000 C 
BRANCH  17  20
ATOM     18  C   UNL     1       6.240   1.119  11.150  0.00  0.00    +0.000 C 
ATOM     19  N   UNL     1       6.806   2.256  11.820  0.00  0.00    +0.000 N 
ATOM     20  C   UNL     1       6.037   3.325  12.216  0.00  0.00    +0.000 C 
ATOM     21  O   UNL     1       4.823   3.389  12.042  0.00  0.00    +0.000 OA
ATOM     22  H   UNL     1       7.797   2.290  12.034  0.00  0.00    +0.000 HD
ENDBRANCH  17  20
ENDBRANCH  16  17
ENDBRANCH  10  16
ENDBRANCH   1  14
BRANCH   7  23
ATOM     23  N   UNL     1       2.323   5.688  21.110  0.00  0.00    +0.000 N 
ATOM     24  H   UNL     1       3.093   5.696  21.769  0.00  0.00    +0.000 HD
BRANCH  23  25
ATOM     25  C   UNL     1       1.811   6.945  20.727  0.00  0.00    +0.000 A 
ATOM     26  C   UNL     1       0.873   7.594  21.540  0.00  0.00    +0.000 A 
ATOM     27  C   UNL     1       0.294   8.803  21.164  0.00  0.00    +0.000 A 
ATOM     28  C   UNL     1       0.631   9.414  19.950  0.00  0.00    +0.000 A 
ATOM     29  C   UNL     1       1.580   8.780  19.137  0.00  0.00    +0.000 A 
ATOM     30 CL   UNL     1       2.060   9.455  17.621  0.00  0.00    +0.000 Cl
ATOM     31  C   UNL     1       2.172   7.560  19.524  0.00  0.00    +0.000 A 
BRANCH  28  32
ATOM     32  C   UNL     1      -0.040  10.709  19.579  0.00  0.00    +0.000 C 
ATOM     33  F   UNL     1      -0.951  11.116  20.515  0.00  0.00    +0.000 F 
ATOM     34  F   UNL     1       0.830  11.749  19.457  0.00  0.00    +0.000 F 
ATOM     35  F   UNL     1      -0.737  10.645  18.412  0.00  0.00    +0.000 F 
ENDBRANCH  28  32
ENDBRANCH  23  25
ENDBRANCH   7  23
TORSDOF 7
ENDMDL
MODEL 5
REMARK VINA RESULT:      -8.4      4.027      5.929
REMARK  Name = 
REMARK  8 active torsions:
REMARK  status: ('A' for Active; 'I' for Inactive)
REMARK    1  A    between atoms: C_1  and  N_2
REMARK    2  A    between atoms: C_3  and  C_5
REMARK    3  A    between atoms: C_5  and  O_6
REMARK    4  A    between atoms: O_6  and  C_7
REMARK    5  A    between atoms: C_11  and  N_12
REMARK    6  A    between atoms: C_18  and  N_19
REMARK    7  A    between atoms: N_19  and  C_20
REMARK    8  A    between atoms: C_23  and  C_24
REMARK                            x       y       z     vdW  Elec       q    Type
REMARK                         _______ _______ _______ _____ _____    ______ ____
ROOT
ATOM      1  N   UNL     1       4.796   5.461  17.251  0.00  0.00    +0.000 N 
ATOM      2  C   UNL     1       3.633   5.115  17.945  0.00  0.00    +0.000 A 
ATOM      3  N   UNL     1       2.900   4.105  17.464  0.00  0.00    +0.000 NA
ATOM      4  C   UNL     1       1.801   3.772  18.177  0.00  0.00    +0.000 A 
ATOM      5  C   UNL     1       1.404   4.415  19.327  0.00  0.00    +0.000 A 
ATOM      6  F   UNL     1       0.284   4.060  19.971  0.00  0.00    +0.000 F 
ATOM      7  C   UNL     1       2.188   5.462  19.748  0.00  0.00    +0.000 A 
ATOM      8  N   UNL     1       3.288   5.801  19.048  0.00  0.00    +0.000 NA
ATOM      9  H   UNL     1       4.882   4.955  16.380  0.00  0.00    +0.000 HD
ENDROOT
BRANCH   1  14
ATOM     10  C   UNL     1       7.610   7.860  17.918  0.00  0.00    +0.000 C 
ATOM     11  C   UNL     1       8.431   7.156  18.710  0.00  0.00    +0.000 C 
ATOM     12  C   UNL     1       8.133   5.737  19.079  0.00  0.00    +0.000 C 
ATOM     13  C   UNL     1       6.658   5.321  18.888  0.00  0.00    +0.000 C 
ATOM     14  C   UNL     1       5.937   6.057  17.765  0.00  0.00    +0.000 C 
ATOM     15  C   UNL     1       6.436   7.243  17.360  0.00  0.00    +0.000 C 
BRANCH  10  16
ATOM     16  O   UNL     1       7.959   9.131  17.527  0.00  0.00    +0.000 OA
BRANCH  16  17
ATOM     17  C   UNL     1       8.763   9.890  18.436  0.00  0.00    +0.000 C 
BRANCH  17  20
ATOM     18  C   UNL     1      10.738  12.940  17.330  0.00  0.00    +0.000 C 
ATOM     19  N   UNL     1      10.327  11.656  17.824  0.00  0.00    +0.000 N 
ATOM     20  C   UNL     1       9.004  11.280  17.860  0.00  0.00    +0.000 C 
ATOM     21  O   UNL     1       8.084  11.995  17.472  0.00  0.00    +0.000 OA
ATOM     22  H   UNL     1      11.012  10.981  18.145  0.00  0.00    +0.000 HD
ENDBRANCH  17  20
ENDBRANCH  16  17
ENDBRANCH  10  16
ENDBRANCH   1  14
BRANCH   7  23
ATOM     23  N   UNL     1       1.813   6.242  20.869  0.00  0.00    +0.000 N 
ATOM     24  H   UNL     1       2.315   5.996  21.714  0.00  0.00    +0.000 HD
BRANCH  23  25
ATOM     25  C   UNL     1       1.269   7.541  20.817  0.00  0.00    +0.000 A 
ATOM     26  C   UNL     1       0.334   7.946  21.778  0.00  0.00    +0.000 A 
ATOM     27  C   UNL     1      -0.276   9.195  21.722  0.00  0.00    +0.000 A 
ATOM     28  C   UNL     1       0.024  10.097  20.693  0.00  0.00    +0.000 A 
ATOM     29  C   UNL     1       0.970   9.707  19.735  0.00  0.00    +0.000 A 
ATOM     30 CL   UNL     1       1.406  10.747  18.426  0.00  0.00    +0.000 Cl
ATOM     31  C   UNL     1       1.593   8.443  19.799  0.00  0.00    +0.000 A 
BRANCH  28  32
ATOM     32  C   UNL     1      -0.680  11.426  20.665  0.00  0.00    +0.000 C 
ATOM     33  F   UNL     1       0.186  12.482  20.741  0.00  0.00    +0.000 F 
ATOM     34  F   UNL     1      -1.390  11.633  19.522  0.00  0.00    +0.000 F 
ATOM     35  F   UNL     1      -1.546  11.605  21.700  0.00  0.00    +0.000 F 
ENDBRANCH  28  32
ENDBRANCH  23  25
ENDBRANCH   7  23
TORSDOF 7
ENDMDL
MODEL 6
REMARK VINA RESULT:      -8.2      1.050      1.406
REMARK  Name = 
REMARK  8 active torsions:
REMARK  status: ('A' for Active; 'I' for Inactive)
REMARK    1  A    between atoms: C_1  and  N_2
REMARK    2  A    between atoms: C_3  and  C_5
REMARK    3  A    between atoms: C_5  and  O_6
REMARK    4  A    between atoms: O_6  and  C_7
REMARK    5  A    between atoms: C_11  and  N_12
REMARK    6  A    between atoms: C_18  and  N_19
REMARK    7  A    between atoms: N_19  and  C_20
REMARK    8  A    between atoms: C_23  and  C_24
REMARK                            x       y       z     vdW  Elec       q    Type
REMARK                         _______ _______ _______ _____ _____    ______ ____
ROOT
ATOM      1  N   UNL     1       1.857   6.420  20.921  0.00  0.00    +0.000 N 
ATOM      2  C   UNL     1       1.524   7.776  20.993  0.00  0.00    +0.000 A 
ATOM      3  N   UNL     1       1.577   8.366  22.191  0.00  0.00    +0.000 NA
ATOM      4  C   UNL     1       1.283   9.685  22.221  0.00  0.00    +0.000 A 
ATOM      5  C   UNL     1       0.925  10.421  21.115  0.00  0.00    +0.000 A 
ATOM      6  F   UNL     1       0.612  11.720  21.214  0.00  0.00    +0.000 F 
ATOM      7  C   UNL     1       0.863   9.744  19.920  0.00  0.00    +0.000 A 
ATOM      8  N   UNL     1       1.157   8.430  19.877  0.00  0.00    +0.000 NA
ATOM      9  H   UNL     1       1.998   6.016  21.836  0.00  0.00    +0.000 HD
ENDROOT
BRANCH   1  14
ATOM     10  C   UNL     1       4.090   5.259  18.131  0.00  0.00    +0.000 C 
ATOM     11  C   UNL     1       3.300   4.434  17.430  0.00  0.00    +0.000 C 
ATOM     12  C   UNL     1       1.870   4.210  17.812  0.00  0.00    +0.000 C 
ATOM     13  C   UNL     1       1.527   4.598  19.266  0.00  0.00    +0.000 C 
ATOM     14  C   UNL     1       2.369   5.736  19.830  0.00  0.00    +0.000 C 
ATOM     15  C   UNL     1       3.561   5.991  19.251  0.00  0.00    +0.000 C 
BRANCH  10  16
ATOM     16  O   UNL     1       5.371   5.510  17.701  0.00  0.00    +0.000 OA
BRANCH  16  17
ATOM     17  C   UNL     1       5.514   6.092  16.401  0.00  0.00    +0.000 C 
BRANCH  17  20
ATOM     18  C   UNL     1       6.303   3.837  13.448  0.00  0.00    +0.000 C 
ATOM     19  N   UNL     1       5.686   4.731  14.386  0.00  0.00    +0.000 N 
ATOM     20  C   UNL     1       6.339   5.163  15.517  0.00  0.00    +0.000 C 
ATOM     21  O   UNL     1       7.485   4.833  15.807  0.00  0.00    +0.000 OA
ATOM     22  H   UNL     1       4.748   5.084  14.226  0.00  0.00    +0.000 HD
ENDBRANCH  17  20
ENDBRANCH  16  17
ENDBRANCH  10  16
ENDBRANCH   1  14
BRANCH   7  23
ATOM     23  N   UNL     1       0.418  10.393  18.743  0.00  0.00    +0.000 N 
ATOM     24  H   UNL     1       1.086  10.345  17.982  0.00  0.00    +0.000 HD
BRANCH  23  25
ATOM     25  C   UNL     1      -0.928  10.606  18.385  0.00  0.00    +0.000 A 
ATOM     26  C   UNL     1      -1.430  10.060  17.197  0.00  0.00    +0.000 A 
ATOM     27  C   UNL     1      -2.733  10.304  16.774  0.00  0.00    +0.000 A 
ATOM     28  C   UNL     1      -3.594  11.111  17.529  0.00  0.00    +0.000 A 
ATOM     29  C   UNL     1      -3.106  11.649  18.727  0.00  0.00    +0.000 A 
ATOM     30 CL   UNL     1      -4.090  12.659  19.726  0.00  0.00    +0.000 Cl
ATOM     31  C   UNL     1      -1.787  11.394  19.157  0.00  0.00    +0.000 A 
BRANCH  28  32
ATOM     32  C   UNL     1      -4.986  11.362  17.017  0.00  0.00    +0.000 C 
ATOM     33  F   UNL     1      -5.319  12.689  17.027  0.00  0.00    +0.000 F 
ATOM     34  F   UNL     1      -5.165  10.962  15.728  0.00  0.00    +0.000 F 
ATOM     35  F   UNL     1      -5.955  10.750  17.752  0.00  0.00    +0.000 F 
ENDBRANCH  28  32
ENDBRANCH  23  25
ENDBRANCH   7  23
TORSDOF 7
ENDMDL
MODEL 7
REMARK VINA RESULT:      -8.2      3.596      5.803
REMARK  Name = 
REMARK  8 active torsions:
REMARK  status: ('A' for Active; 'I' for Inactive)
REMARK    1  A    between atoms: C_1  and  N_2
REMARK    2  A    between atoms: C_3  and  C_5
REMARK    3  A    between atoms: C_5  and  O_6
REMARK    4  A    between atoms: O_6  and  C_7
REMARK    5  A    between atoms: C_11  and  N_12
REMARK    6  A    between atoms: C_18  and  N_19
REMARK    7  A    between atoms: N_19  and  C_20
REMARK    8  A    between atoms: C_23  and  C_24
REMARK                            x       y       z     vdW  Elec       q    Type
REMARK                         _______ _______ _______ _____ _____    ______ ____
ROOT
ATOM      1  N   UNL     1       3.822   2.857  17.503  0.00  0.00    +0.000 N 
ATOM      2  C   UNL     1       3.081   2.944  18.686  0.00  0.00    +0.000 A 
ATOM      3  N   UNL     1       2.437   1.847  19.097  0.00  0.00    +0.000 NA
ATOM      4  C   UNL     1       1.758   1.954  20.262  0.00  0.00    +0.000 A 
ATOM      5  C   UNL     1       1.688   3.106  21.010  0.00  0.00    +0.000 A 
ATOM      6  F   UNL     1       0.970   3.159  22.140  0.00  0.00    +0.000 F 
ATOM      7  C   UNL     1       2.351   4.203  20.513  0.00  0.00    +0.000 A 
ATOM      8  N   UNL     1       3.032   4.108  19.356  0.00  0.00    +0.000 NA
ATOM      9  H   UNL     1       3.684   1.972  17.034  0.00  0.00    +0.000 HD
ENDROOT
BRANCH   1  14
ATOM     10  C   UNL     1       6.537   4.548  15.532  0.00  0.00    +0.000 C 
ATOM     11  C   UNL     1       7.368   5.001  16.481  0.00  0.00    +0.000 C 
ATOM     12  C   UNL     1       7.114   4.736  17.933  0.00  0.00    +0.000 C 
ATOM     13  C   UNL     1       5.658   4.344  18.267  0.00  0.00    +0.000 C 
ATOM     14  C   UNL     1       4.931   3.607  17.149  0.00  0.00    +0.000 C 
ATOM     15  C   UNL     1       5.395   3.749  15.889  0.00  0.00    +0.000 C 
BRANCH  10  16
ATOM     16  O   UNL     1       6.847   4.733  14.206  0.00  0.00    +0.000 OA
BRANCH  16  17
ATOM     17  C   UNL     1       5.880   4.291  13.248  0.00  0.00    +0.000 C 
BRANCH  17  20
ATOM     18  C   UNL     1       6.617   1.312  11.009  0.00  0.00    +0.000 C 
ATOM     19  N   UNL     1       6.071   2.218  11.980  0.00  0.00    +0.000 N 
ATOM     20  C   UNL     1       6.577   3.485  12.158  0.00  0.00    +0.000 C 
ATOM     21  O   UNL     1       7.513   3.940  11.506  0.00  0.00    +0.000 OA
ATOM     22  H   UNL     1       5.278   1.949  12.552  0.00  0.00    +0.000 HD
ENDBRANCH  17  20
ENDBRANCH  16  17
ENDBRANCH  10  16
ENDBRANCH   1  14
BRANCH   7  23
ATOM     23  N   UNL     1       2.262   5.457  21.164  0.00  0.00    +0.000 N 
ATOM     24  H   UNL     1       2.822   5.511  22.008  0.00  0.00    +0.000 HD
BRANCH  23  25
ATOM     25  C   UNL     1       1.944   6.682  20.543  0.00  0.00    +0.000 A 
ATOM     26  C   UNL     1       2.453   6.973  19.271  0.00  0.00    +0.000 A 
ATOM     27  C   UNL     1       2.217   8.198  18.653  0.00  0.00    +0.000 A 
ATOM     28  C   UNL     1       1.459   9.189  19.289  0.00  0.00    +0.000 A 
ATOM     29  C   UNL     1       0.932   8.901  20.555  0.00  0.00    +0.000 A 
ATOM     30 CL   UNL     1      -0.014  10.059  21.420  0.00  0.00    +0.000 Cl
ATOM     31  C   UNL     1       1.166   7.656  21.175  0.00  0.00    +0.000 A 
BRANCH  28  32
ATOM     32  C   UNL     1       1.252  10.504  18.588  0.00  0.00    +0.000 C 
ATOM     33  F   UNL     1      -0.044  10.692  18.192  0.00  0.00    +0.000 F 
ATOM     34  F   UNL     1       1.542  11.580  19.370  0.00  0.00    +0.000 F 
ATOM     35  F   UNL     1       1.991  10.638  17.452  0.00  0.00    +0.000 F 
ENDBRANCH  28  32
ENDBRANCH  23  25
ENDBRANCH   7  23
TORSDOF 7
ENDMDL
MODEL 8
REMARK VINA RESULT:      -8.1      0.758      1.040
REMARK  Name = 
REMARK  8 active torsions:
REMARK  status: ('A' for Active; 'I' for Inactive)
REMARK    1  A    between atoms: C_1  and  N_2
REMARK    2  A    between atoms: C_3  and  C_5
REMARK    3  A    between atoms: C_5  and  O_6
REMARK    4  A    between atoms: O_6  and  C_7
REMARK    5  A    between atoms: C_11  and  N_12
REMARK    6  A    between atoms: C_18  and  N_19
REMARK    7  A    between atoms: N_19  and  C_20
REMARK    8  A    between atoms: C_23  and  C_24
REMARK                            x       y       z     vdW  Elec       q    Type
REMARK                         _______ _______ _______ _____ _____    ______ ____
ROOT
ATOM      1  N   UNL     1       1.524   7.193  21.304  0.00  0.00    +0.000 N 
ATOM      2  C   UNL     1       1.263   8.551  21.096  0.00  0.00    +0.000 A 
ATOM      3  N   UNL     1       1.474   9.387  22.117  0.00  0.00    +0.000 NA
ATOM      4  C   UNL     1       1.245  10.698  21.873  0.00  0.00    +0.000 A 
ATOM      5  C   UNL     1       0.802  11.192  20.668  0.00  0.00    +0.000 A 
ATOM      6  F   UNL     1       0.560  12.498  20.498  0.00  0.00    +0.000 F 
ATOM      7  C   UNL     1       0.577  10.272  19.671  0.00  0.00    +0.000 A 
ATOM      8  N   UNL     1       0.805   8.964  19.901  0.00  0.00    +0.000 NA
ATOM      9  H   UNL     1       1.747   6.994  22.270  0.00  0.00    +0.000 HD
ENDROOT
BRANCH   1  14
ATOM     10  C   UNL     1       3.041   5.500  18.313  0.00  0.00    +0.000 C 
ATOM     11  C   UNL     1       2.421   4.313  18.286  0.00  0.00    +0.000 C 
ATOM     12  C   UNL     1       1.359   3.963  19.281  0.00  0.00    +0.000 C 
ATOM     13  C   UNL     1       1.370   4.829  20.559  0.00  0.00    +0.000 C 
ATOM     14  C   UNL     1       1.881   6.250  20.354  0.00  0.00    +0.000 C 
ATOM     15  C   UNL     1       2.661   6.495  19.281  0.00  0.00    +0.000 C 
BRANCH  10  16
ATOM     16  O   UNL     1       3.948   5.822  17.330  0.00  0.00    +0.000 OA
BRANCH  16  17
ATOM     17  C   UNL     1       4.932   4.834  17.010  0.00  0.00    +0.000 C 
BRANCH  17  20
ATOM     18  C   UNL     1       6.399   4.004  13.605  0.00  0.00    +0.000 C 
ATOM     19  N   UNL     1       5.853   3.953  14.932  0.00  0.00    +0.000 N 
ATOM     20  C   UNL     1       5.469   5.089  15.606  0.00  0.00    +0.000 C 
ATOM     21  O   UNL     1       5.550   6.219  15.133  0.00  0.00    +0.000 OA
ATOM     22  H   UNL     1       5.720   3.064  15.404  0.00  0.00    +0.000 HD
ENDBRANCH  17  20
ENDBRANCH  16  17
ENDBRANCH  10  16
ENDBRANCH   1  14
BRANCH   7  23
ATOM     23  N   UNL     1       0.035  10.672  18.427  0.00  0.00    +0.000 N 
ATOM     24  H   UNL     1       0.563  10.330  17.631  0.00  0.00    +0.000 HD
BRANCH  23  25
ATOM     25  C   UNL     1      -1.315  11.002  18.190  0.00  0.00    +0.000 A 
ATOM     26  C   UNL     1      -2.052  11.676  19.171  0.00  0.00    +0.000 A 
ATOM     27  C   UNL     1      -3.404  11.959  19.003  0.00  0.00    +0.000 A 
ATOM     28  C   UNL     1      -4.079  11.575  17.837  0.00  0.00    +0.000 A 
ATOM     29  C   UNL     1      -3.346  10.914  16.843  0.00  0.00    +0.000 A 
ATOM     30 CL   UNL     1      -4.090  10.398  15.371  0.00  0.00    +0.000 Cl
ATOM     31  C   UNL     1      -1.974  10.635  17.013  0.00  0.00    +0.000 A 
BRANCH  28  32
ATOM     32  C   UNL     1      -5.546  11.885  17.714  0.00  0.00    +0.000 C 
ATOM     33  F   UNL     1      -6.017  12.629  18.761  0.00  0.00    +0.000 F 
ATOM     34  F   UNL     1      -5.850  12.608  16.601  0.00  0.00    +0.000 F 
ATOM     35  F   UNL     1      -6.336  10.776  17.685  0.00  0.00    +0.000 F 
ENDBRANCH  28  32
ENDBRANCH  23  25
ENDBRANCH   7  23
TORSDOF 7
ENDMDL
MODEL 9
REMARK VINA RESULT:      -8.1      3.399      5.657
REMARK  Name = 
REMARK  8 active torsions:
REMARK  status: ('A' for Active; 'I' for Inactive)
REMARK    1  A    between atoms: C_1  and  N_2
REMARK    2  A    between atoms: C_3  and  C_5
REMARK    3  A    between atoms: C_5  and  O_6
REMARK    4  A    between atoms: O_6  and  C_7
REMARK    5  A    between atoms: C_11  and  N_12
REMARK    6  A    between atoms: C_18  and  N_19
REMARK    7  A    between atoms: N_19  and  C_20
REMARK    8  A    between atoms: C_23  and  C_24
REMARK                            x       y       z     vdW  Elec       q    Type
REMARK                         _______ _______ _______ _____ _____    ______ ____
ROOT
ATOM      1  N   UNL     1       3.255   3.423  16.848  0.00  0.00    +0.000 N 
ATOM      2  C   UNL     1       2.688   3.381  18.125  0.00  0.00    +0.000 A 
ATOM      3  N   UNL     1       2.045   2.265  18.483  0.00  0.00    +0.000 NA
ATOM      4  C   UNL     1       1.538   2.244  19.737  0.00  0.00    +0.000 A 
ATOM      5  C   UNL     1       1.635   3.289  20.626  0.00  0.00    +0.000 A 
ATOM      6  F   UNL     1       1.082   3.221  21.844  0.00  0.00    +0.000 F 
ATOM      7  C   UNL     1       2.285   4.416  20.181  0.00  0.00    +0.000 A 
ATOM      8  N   UNL     1       2.797   4.449  18.936  0.00  0.00    +0.000 NA
ATOM      9  H   UNL     1       3.005   2.614  16.297  0.00  0.00    +0.000 HD
ENDROOT
BRANCH   1  14
ATOM     10  C   UNL     1       6.408   4.538  15.135  0.00  0.00    +0.000 C 
ATOM     11  C   UNL     1       6.716   5.676  15.772  0.00  0.00    +0.000 C 
ATOM     12  C   UNL     1       5.889   6.182  16.913  0.00  0.00    +0.000 C 
ATOM     13  C   UNL     1       4.466   5.587  16.986  0.00  0.00    +0.000 C 
ATOM     14  C   UNL     1       4.347   4.170  16.436  0.00  0.00    +0.000 C 
ATOM     15  C   UNL     1       5.290   3.743  15.571  0.00  0.00    +0.000 C 
BRANCH  10  16
ATOM     16  O   UNL     1       7.238   4.058  14.151  0.00  0.00    +0.000 OA
BRANCH  16  17
ATOM     17  C   UNL     1       6.924   4.424  12.804  0.00  0.00    +0.000 C 
BRANCH  17  20
ATOM     18  C   UNL     1       6.277   1.079  11.123  0.00  0.00    +0.000 C 
ATOM     19  N   UNL     1       6.866   2.217  11.771  0.00  0.00    +0.000 N 
ATOM     20  C   UNL     1       6.118   3.308  12.149  0.00  0.00    +0.000 C 
ATOM     21  O   UNL     1       4.906   3.392  11.976  0.00  0.00    +0.000 OA
ATOM     22  H   UNL     1       7.858   2.236  11.983  0.00  0.00    +0.000 HD
ENDBRANCH  17  20
ENDBRANCH  16  17
ENDBRANCH  10  16
ENDBRANCH   1  14
BRANCH   7  23
ATOM     23  N   UNL     1       2.357   5.576  20.990  0.00  0.00    +0.000 N 
ATOM     24  H   UNL     1       3.146   5.573  21.625  0.00  0.00    +0.000 HD
BRANCH  23  25
ATOM     25  C   UNL     1       1.818   6.837  20.662  0.00  0.00    +0.000 A 
ATOM     26  C   UNL     1       2.184   7.464  19.464  0.00  0.00    +0.000 A 
ATOM     27  C   UNL     1       1.727   8.737  19.137  0.00  0.00    +0.000 A 
ATOM     28  C   UNL     1       0.881   9.441  20.003  0.00  0.00    +0.000 A 
ATOM     29  C   UNL     1       0.497   8.816  21.197  0.00  0.00    +0.000 A 
ATOM     30 CL   UNL     1      -0.542   9.604  22.331  0.00  0.00    +0.000 Cl
ATOM     31  C   UNL     1       0.955   7.523  21.522  0.00  0.00    +0.000 A 
BRANCH  28  32
ATOM     32  C   UNL     1       0.433  10.824  19.614  0.00  0.00    +0.000 C 
ATOM     33  F   UNL     1      -0.906  11.019  19.811  0.00  0.00    +0.000 F 
ATOM     34  F   UNL     1       1.043  11.807  20.331  0.00  0.00    +0.000 F 
ATOM     35  F   UNL     1       0.643  11.114  18.300  0.00  0.00    +0.000 F 
ENDBRANCH  28  32
ENDBRANCH  23  25
ENDBRANCH   7  23
TORSDOF 7
ENDMDL
