MODEL 1
REMARK VINA RESULT:      -7.2      0.000      0.000
REMARK  Name = 
REMARK  5 active torsions:
REMARK  status: ('A' for Active; 'I' for Inactive)
REMARK    1  A    between atoms: C_1  and  C_2
REMARK    2  A    between atoms: C_2  and  C_3
REMARK    3  A    between atoms: C_7  and  O_8
REMARK    4  A    between atoms: C_9  and  O_10
REMARK    5  A    between atoms: C_13  and  N_14
REMARK                            x       y       z     vdW  Elec       q    Type
REMARK                         _______ _______ _______ _____ _____    ______ ____
ROOT
ATOM      1  C   UNL     1       2.592   5.397  20.002  0.00  0.00    +0.000 A 
ATOM      2  C   UNL     1       3.472   6.188  19.236  0.00  0.00    +0.000 A 
ATOM      3  C   UNL     1       4.625   5.684  18.653  0.00  0.00    +0.000 A 
ATOM      4  N   UNL     1       5.397   6.539  17.957  0.00  0.00    +0.000 NA
ATOM      5  C   UNL     1       6.492   6.003  17.403  0.00  0.00    +0.000 A 
ATOM      6  C   UNL     1       6.823   4.667  17.514  0.00  0.00    +0.000 A 
ATOM      7  N   UNL     1       6.056   3.806  18.202  0.00  0.00    +0.000 NA
ATOM      8  C   UNL     1       4.944   4.310  18.799  0.00  0.00    +0.000 A 
ATOM      9  C   UNL     1       4.068   3.536  19.566  0.00  0.00    +0.000 A 
ATOM     10  C   UNL     1       2.908   4.044  20.180  0.00  0.00    +0.000 A 
ATOM     11 BR   UNL     1       1.793   2.937  21.267  0.00  0.00    +0.000 Br
ENDROOT
BRANCH   9  12
ATOM     12  N   UNL     1       4.392   2.140  19.699  0.00  0.00    +0.000 N 
ATOM     13  O   UNL     1       5.121   1.817  20.649  0.00  0.00    +0.000 OA
ATOM     14  O   UNL     1       3.873   1.363  18.886  0.00  0.00    +0.000 OA
ENDBRANCH   9  12
BRANCH   1  16
ATOM     15  C   UNL     1       1.561   7.542  20.803  0.00  0.00    +0.000 C 
ATOM     16  C   UNL     1       1.341   6.059  20.535  0.00  0.00    +0.000 C 
ENDBRANCH   1  16
BRANCH   5  17
ATOM     17  O   UNL     1       7.274   6.876  16.714  0.00  0.00    +0.000 OA
ATOM     18  H   UNL     1       6.740   6.991  15.905  0.00  0.00    +0.000 HD
ENDBRANCH   5  17
BRANCH   6  19
ATOM     19  O   UNL     1       7.945   4.155  16.932  0.00  0.00    +0.000 OA
ATOM     20  H   UNL     1       8.377   3.623  17.628  0.00  0.00    +0.000 HD
ENDBRANCH   6  19
TORSDOF 4
ENDMDL
MODEL 2
REMARK VINA RESULT:      -7.0      1.184      1.390
REMARK  Name = 
REMARK  5 active torsions:
REMARK  status: ('A' for Active; 'I' for Inactive)
REMARK    1  A    between atoms: C_1  and  C_2
REMARK    2  A    between atoms: C_2  and  C_3
REMARK    3  A    between atoms: C_7  and  O_8
REMARK    4  A    between atoms: C_9  and  O_10
REMARK    5  A    between atoms: C_13  and  N_14
REMARK                            x       y       z     vdW  Elec       q    Type
REMARK                         _______ _______ _______ _____ _____    ______ ____
ROOT
ATOM      1  C   UNL     1       2.340   5.481  19.992  0.00  0.00    +0.000 A 
ATOM      2  C   UNL     1       2.894   6.200  18.913  0.00  0.00    +0.000 A 
ATOM      3  C   UNL     1       3.790   5.640  18.016  0.00  0.00    +0.000 A 
ATOM      4  N   UNL     1       4.265   6.429  17.034  0.00  0.00    +0.000 NA
ATOM      5  C   UNL     1       5.118   5.839  16.185  0.00  0.00    +0.000 A 
ATOM      6  C   UNL     1       5.491   4.513  16.282  0.00  0.00    +0.000 A 
ATOM      7  N   UNL     1       5.017   3.718  17.255  0.00  0.00    +0.000 NA
ATOM      8  C   UNL     1       4.164   4.278  18.152  0.00  0.00    +0.000 A 
ATOM      9  C   UNL     1       3.614   3.578  19.229  0.00  0.00    +0.000 A 
ATOM     10  C   UNL     1       2.721   4.144  20.158  0.00  0.00    +0.000 A 
ATOM     11 BR   UNL     1       2.061   3.138  21.642  0.00  0.00    +0.000 Br
ENDROOT
BRANCH   9  12
ATOM     12  N   UNL     1       3.989   2.193  19.354  0.00  0.00    +0.000 N 
ATOM     13  O   UNL     1       3.369   1.375  18.659  0.00  0.00    +0.000 OA
ATOM     14  O   UNL     1       4.941   1.934  20.103  0.00  0.00    +0.000 OA
ENDBRANCH   9  12
BRANCH   1  16
ATOM     15  C   UNL     1       1.534   7.706  20.835  0.00  0.00    +0.000 C 
ATOM     16  C   UNL     1       1.331   6.197  20.863  0.00  0.00    +0.000 C 
ENDBRANCH   1  16
BRANCH   5  17
ATOM     17  O   UNL     1       5.604   6.646  15.205  0.00  0.00    +0.000 OA
ATOM     18  H   UNL     1       4.782   6.850  14.720  0.00  0.00    +0.000 HD
ENDBRANCH   5  17
BRANCH   6  19
ATOM     19  O   UNL     1       6.358   3.945  15.397  0.00  0.00    +0.000 OA
ATOM     20  H   UNL     1       5.796   3.531  14.715  0.00  0.00    +0.000 HD
ENDBRANCH   6  19
TORSDOF 4
ENDMDL
MODEL 3
REMARK VINA RESULT:      -6.7      2.059      2.188
REMARK  Name = 
REMARK  5 active torsions:
REMARK  status: ('A' for Active; 'I' for Inactive)
REMARK    1  A    between atoms: C_1  and  C_2
REMARK    2  A    between atoms: C_2  and  C_3
REMARK    3  A    between atoms: C_7  and  O_8
REMARK    4  A    between atoms: C_9  and  O_10
REMARK    5  A    between atoms: C_13  and  N_14
REMARK                            x       y       z     vdW  Elec       q    Type
REMARK                         _______ _______ _______ _____ _____    ______ ____
ROOT
ATOM      1  C   UNL     1       2.828   6.939  18.585  0.00  0.00    +0.000 A 
ATOM      2  C   UNL     1       3.729   7.132  17.518  0.00  0.00    +0.000 A 
ATOM      3  C   UNL     1       4.434   6.093  16.930  0.00  0.00    +0.000 A 
ATOM      4  N   UNL     1       5.279   6.401  15.928  0.00  0.00    +0.000 NA
ATOM      5  C   UNL     1       5.927   5.362  15.384  0.00  0.00    +0.000 A 
ATOM      6  C   UNL     1       5.750   4.057  15.796  0.00  0.00    +0.000 A 
ATOM      7  N   UNL     1       4.905   3.740  16.790  0.00  0.00    +0.000 NA
ATOM      8  C   UNL     1       4.240   4.764  17.386  0.00  0.00    +0.000 A 
ATOM      9  C   UNL     1       3.349   4.585  18.448  0.00  0.00    +0.000 A 
ATOM     10  C   UNL     1       2.646   5.636  19.067  0.00  0.00    +0.000 A 
ATOM     11 BR   UNL     1       1.493   5.320  20.556  0.00  0.00    +0.000 Br
ENDROOT
BRANCH   9  12
ATOM     12  N   UNL     1       3.148   3.232  18.897  0.00  0.00    +0.000 N 
ATOM     13  O   UNL     1       3.885   2.824  19.807  0.00  0.00    +0.000 OA
ATOM     14  O   UNL     1       2.218   2.600  18.378  0.00  0.00    +0.000 OA
ENDBRANCH   9  12
BRANCH   1  16
ATOM     15  C   UNL     1       1.657   9.072  17.962  0.00  0.00    +0.000 C 
ATOM     16  C   UNL     1       2.083   8.151  19.098  0.00  0.00    +0.000 C 
ENDBRANCH   1  16
BRANCH   5  17
ATOM     17  O   UNL     1       6.789   5.684  14.383  0.00  0.00    +0.000 OA
ATOM     18  H   UNL     1       6.213   5.562  13.606  0.00  0.00    +0.000 HD
ENDBRANCH   5  17
BRANCH   6  19
ATOM     19  O   UNL     1       6.424   3.023  15.215  0.00  0.00    +0.000 OA
ATOM     20  H   UNL     1       5.792   2.279  15.200  0.00  0.00    +0.000 HD
ENDBRANCH   6  19
TORSDOF 4
ENDMDL
MODEL 4
REMARK VINA RESULT:      -6.6      1.266      1.403
REMARK  Name = 
REMARK  5 active torsions:
REMARK  status: ('A' for Active; 'I' for Inactive)
REMARK    1  A    between atoms: C_1  and  C_2
REMARK    2  A    between atoms: C_2  and  C_3
REMARK    3  A    between atoms: C_7  and  O_8
REMARK    4  A    between atoms: C_9  and  O_10
REMARK    5  A    between atoms: C_13  and  N_14
REMARK                            x       y       z     vdW  Elec       q    Type
REMARK                         _______ _______ _______ _____ _____    ______ ____
ROOT
ATOM      1  C   UNL     1       2.659   5.520  19.726  0.00  0.00    +0.000 A 
ATOM      2  C   UNL     1       3.729   6.206  19.116  0.00  0.00    +0.000 A 
ATOM      3  C   UNL     1       4.555   5.624  18.166  0.00  0.00    +0.000 A 
ATOM      4  N   UNL     1       5.555   6.373  17.664  0.00  0.00    +0.000 NA
ATOM      5  C   UNL     1       6.316   5.770  16.742  0.00  0.00    +0.000 A 
ATOM      6  C   UNL     1       6.105   4.476  16.310  0.00  0.00    +0.000 A 
ATOM      7  N   UNL     1       5.107   3.723  16.800  0.00  0.00    +0.000 NA
ATOM      8  C   UNL     1       4.320   4.286  17.754  0.00  0.00    +0.000 A 
ATOM      9  C   UNL     1       3.261   3.614  18.371  0.00  0.00    +0.000 A 
ATOM     10  C   UNL     1       2.432   4.189  19.352  0.00  0.00    +0.000 A 
ATOM     11 BR   UNL     1       1.043   3.184  20.194  0.00  0.00    +0.000 Br
ENDROOT
BRANCH   9  12
ATOM     12  N   UNL     1       3.021   2.261  17.939  0.00  0.00    +0.000 N 
ATOM     13  O   UNL     1       3.647   1.363  18.522  0.00  0.00    +0.000 OA
ATOM     14  O   UNL     1       2.167   2.096  17.057  0.00  0.00    +0.000 OA
ENDBRANCH   9  12
BRANCH   1  16
ATOM     15  C   UNL     1       1.747   7.773  20.358  0.00  0.00    +0.000 C 
ATOM     16  C   UNL     1       1.803   6.291  20.705  0.00  0.00    +0.000 C 
ENDBRANCH   1  16
BRANCH   5  17
ATOM     17  O   UNL     1       7.332   6.529  16.251  0.00  0.00    +0.000 OA
ATOM     18  H   UNL     1       6.847   7.340  16.010  0.00  0.00    +0.000 HD
ENDBRANCH   5  17
BRANCH   6  19
ATOM     19  O   UNL     1       6.899   3.896  15.365  0.00  0.00    +0.000 OA
ATOM     20  H   UNL     1       7.736   4.396  15.389  0.00  0.00    +0.000 HD
ENDBRANCH   6  19
TORSDOF 4
ENDMDL
MODEL 5
REMARK VINA RESULT:      -6.6      2.665      4.503
REMARK  Name = 
REMARK  5 active torsions:
REMARK  status: ('A' for Active; 'I' for Inactive)
REMARK    1  A    between atoms: C_1  and  C_2
REMARK    2  A    between atoms: C_2  and  C_3
REMARK    3  A    between atoms: C_7  and  O_8
REMARK    4  A    between atoms: C_9  and  O_10
REMARK    5  A    between atoms: C_13  and  N_14
REMARK                            x       y       z     vdW  Elec       q    Type
REMARK                         _______ _______ _______ _____ _____    ______ ____
ROOT
ATOM      1  C   UNL     1       3.698   6.835  17.723  0.00  0.00    +0.000 A 
ATOM      2  C   UNL     1       2.698   5.869  17.954  0.00  0.00    +0.000 A 
ATOM      3  C   UNL     1       2.971   4.515  18.074  0.00  0.00    +0.000 A 
ATOM      4  N   UNL     1       1.932   3.683  18.277  0.00  0.00    +0.000 NA
ATOM      5  C   UNL     1       2.248   2.387  18.399  0.00  0.00    +0.000 A 
ATOM      6  C   UNL     1       3.543   1.913  18.335  0.00  0.00    +0.000 A 
ATOM      7  N   UNL     1       4.586   2.735  18.139  0.00  0.00    +0.000 NA
ATOM      8  C   UNL     1       4.311   4.057  17.989  0.00  0.00    +0.000 A 
ATOM      9  C   UNL     1       5.294   5.024  17.754  0.00  0.00    +0.000 A 
ATOM     10  C   UNL     1       5.023   6.397  17.608  0.00  0.00    +0.000 A 
ATOM     11 BR   UNL     1       6.414   7.649  17.226  0.00  0.00    +0.000 Br
ENDROOT
BRANCH   9  12
ATOM     12  N   UNL     1       6.653   4.553  17.682  0.00  0.00    +0.000 N 
ATOM     13  O   UNL     1       7.092   4.266  16.559  0.00  0.00    +0.000 OA
ATOM     14  O   UNL     1       7.295   4.525  18.741  0.00  0.00    +0.000 OA
ENDBRANCH   9  12
BRANCH   1  16
ATOM     15  C   UNL     1       1.772   8.438  17.904  0.00  0.00    +0.000 C 
ATOM     16  C   UNL     1       3.269   8.285  17.668  0.00  0.00    +0.000 C 
ENDBRANCH   1  16
BRANCH   5  17
ATOM     17  O   UNL     1       1.192   1.554  18.589  0.00  0.00    +0.000 OA
ATOM     18  H   UNL     1       0.988   1.737  19.525  0.00  0.00    +0.000 HD
ENDBRANCH   5  17
BRANCH   6  19
ATOM     19  O   UNL     1       3.828   0.586  18.468  0.00  0.00    +0.000 OA
ATOM     20  H   UNL     1       3.066   0.118  18.079  0.00  0.00    +0.000 HD
ENDBRANCH   6  19
TORSDOF 4
ENDMDL
MODEL 6
REMARK VINA RESULT:      -6.3      3.442      4.765
REMARK  Name = 
REMARK  5 active torsions:
REMARK  status: ('A' for Active; 'I' for Inactive)
REMARK    1  A    between atoms: C_1  and  C_2
REMARK    2  A    between atoms: C_2  and  C_3
REMARK    3  A    between atoms: C_7  and  O_8
REMARK    4  A    between atoms: C_9  and  O_10
REMARK    5  A    between atoms: C_13  and  N_14
REMARK                            x       y       z     vdW  Elec       q    Type
REMARK                         _______ _______ _______ _____ _____    ______ ____
ROOT
ATOM      1  C   UNL     1       4.216   3.958  16.959  0.00  0.00    +0.000 A 
ATOM      2  C   UNL     1       4.562   3.624  15.634  0.00  0.00    +0.000 A 
ATOM      3  C   UNL     1       5.642   4.186  14.972  0.00  0.00    +0.000 A 
ATOM      4  N   UNL     1       5.865   3.801  13.701  0.00  0.00    +0.000 NA
ATOM      5  C   UNL     1       6.927   4.363  13.109  0.00  0.00    +0.000 A 
ATOM      6  C   UNL     1       7.757   5.268  13.738  0.00  0.00    +0.000 A 
ATOM      7  N   UNL     1       7.546   5.654  15.007  0.00  0.00    +0.000 NA
ATOM      8  C   UNL     1       6.467   5.126  15.643  0.00  0.00    +0.000 A 
ATOM      9  C   UNL     1       6.111   5.455  16.954  0.00  0.00    +0.000 A 
ATOM     10  C   UNL     1       5.004   4.906  17.626  0.00  0.00    +0.000 A 
ATOM     11 BR   UNL     1       4.545   5.454  19.397  0.00  0.00    +0.000 Br
ENDROOT
BRANCH   9  12
ATOM     12  N   UNL     1       6.961   6.399  17.631  0.00  0.00    +0.000 N 
ATOM     13  O   UNL     1       7.809   5.939  18.410  0.00  0.00    +0.000 OA
ATOM     14  O   UNL     1       6.815   7.595  17.342  0.00  0.00    +0.000 OA
ENDBRANCH   9  12
BRANCH   1  16
ATOM     15  C   UNL     1       3.440   1.834  18.052  0.00  0.00    +0.000 C 
ATOM     16  C   UNL     1       3.047   3.229  17.582  0.00  0.00    +0.000 C 
ENDBRANCH   1  16
BRANCH   5  17
ATOM     17  O   UNL     1       7.137   3.979  11.822  0.00  0.00    +0.000 OA
ATOM     18  H   UNL     1       6.663   4.687  11.346  0.00  0.00    +0.000 HD
ENDBRANCH   5  17
BRANCH   6  19
ATOM     19  O   UNL     1       8.833   5.817  13.105  0.00  0.00    +0.000 OA
ATOM     20  H   UNL     1       9.243   5.083  12.609  0.00  0.00    +0.000 HD
ENDBRANCH   6  19
TORSDOF 4
ENDMDL
MODEL 7
REMARK VINA RESULT:      -6.3      2.431      4.381
REMARK  Name = 
REMARK  5 active torsions:
REMARK  status: ('A' for Active; 'I' for Inactive)
REMARK    1  A    between atoms: C_1  and  C_2
REMARK    2  A    between atoms: C_2  and  C_3
REMARK    3  A    between atoms: C_7  and  O_8
REMARK    4  A    between atoms: C_9  and  O_10
REMARK    5  A    between atoms: C_13  and  N_14
REMARK                            x       y       z     vdW  Elec       q    Type
REMARK                         _______ _______ _______ _____ _____    ______ ____
ROOT
ATOM      1  C   UNL     1       3.324   6.634  17.917  0.00  0.00    +0.000 A 
ATOM      2  C   UNL     1       2.813   5.938  19.030  0.00  0.00    +0.000 A 
ATOM      3  C   UNL     1       3.352   4.743  19.485  0.00  0.00    +0.000 A 
ATOM      4  N   UNL     1       2.768   4.160  20.549  0.00  0.00    +0.000 NA
ATOM      5  C   UNL     1       3.333   3.016  20.957  0.00  0.00    +0.000 A 
ATOM      6  C   UNL     1       4.442   2.458  20.353  0.00  0.00    +0.000 A 
ATOM      7  N   UNL     1       5.033   3.036  19.295  0.00  0.00    +0.000 NA
ATOM      8  C   UNL     1       4.483   4.189  18.833  0.00  0.00    +0.000 A 
ATOM      9  C   UNL     1       4.977   4.885  17.726  0.00  0.00    +0.000 A 
ATOM     10  C   UNL     1       4.423   6.085  17.244  0.00  0.00    +0.000 A 
ATOM     11 BR   UNL     1       5.117   6.945  15.686  0.00  0.00    +0.000 Br
ENDROOT
BRANCH   9  12
ATOM     12  N   UNL     1       6.133   4.322  17.077  0.00  0.00    +0.000 N 
ATOM     13  O   UNL     1       5.932   3.610  16.082  0.00  0.00    +0.000 OA
ATOM     14  O   UNL     1       7.241   4.639  17.531  0.00  0.00    +0.000 OA
ENDBRANCH   9  12
BRANCH   1  16
ATOM     15  C   UNL     1       1.885   8.525  18.731  0.00  0.00    +0.000 C 
ATOM     16  C   UNL     1       2.677   7.954  17.561  0.00  0.00    +0.000 C 
ENDBRANCH   1  16
BRANCH   5  17
ATOM     17  O   UNL     1       2.729   2.426  22.023  0.00  0.00    +0.000 OA
ATOM     18  H   UNL     1       2.481   1.567  21.633  0.00  0.00    +0.000 HD
ENDBRANCH   5  17
BRANCH   6  19
ATOM     19  O   UNL     1       4.992   1.293  20.800  0.00  0.00    +0.000 OA
ATOM     20  H   UNL     1       4.914   1.327  21.772  0.00  0.00    +0.000 HD
ENDBRANCH   6  19
TORSDOF 4
ENDMDL
MODEL 8
REMARK VINA RESULT:      -6.0      2.764      3.471
REMARK  Name = 
REMARK  5 active torsions:
REMARK  status: ('A' for Active; 'I' for Inactive)
REMARK    1  A    between atoms: C_1  and  C_2
REMARK    2  A    between atoms: C_2  and  C_3
REMARK    3  A    between atoms: C_7  and  O_8
REMARK    4  A    between atoms: C_9  and  O_10
REMARK    5  A    between atoms: C_13  and  N_14
REMARK                            x       y       z     vdW  Elec       q    Type
REMARK                         _______ _______ _______ _____ _____    ______ ____
ROOT
ATOM      1  C   UNL     1       2.708   7.650  18.568  0.00  0.00    +0.000 A 
ATOM      2  C   UNL     1       3.501   6.959  17.629  0.00  0.00    +0.000 A 
ATOM      3  C   UNL     1       3.719   5.591  17.688  0.00  0.00    +0.000 A 
ATOM      4  N   UNL     1       4.508   5.043  16.745  0.00  0.00    +0.000 NA
ATOM      5  C   UNL     1       4.678   3.717  16.837  0.00  0.00    +0.000 A 
ATOM      6  C   UNL     1       4.088   2.942  17.815  0.00  0.00    +0.000 A 
ATOM      7  N   UNL     1       3.295   3.479  18.757  0.00  0.00    +0.000 NA
ATOM      8  C   UNL     1       3.109   4.825  18.715  0.00  0.00    +0.000 A 
ATOM      9  C   UNL     1       2.331   5.522  19.644  0.00  0.00    +0.000 A 
ATOM     10  C   UNL     1       2.123   6.913  19.605  0.00  0.00    +0.000 A 
ATOM     11 BR   UNL     1       1.097   7.802  20.949  0.00  0.00    +0.000 Br
ENDROOT
BRANCH   9  12
ATOM     12  N   UNL     1       1.706   4.736  20.676  0.00  0.00    +0.000 N 
ATOM     13  O   UNL     1       0.573   4.291  20.439  0.00  0.00    +0.000 OA
ATOM     14  O   UNL     1       2.372   4.519  21.698  0.00  0.00    +0.000 OA
ENDBRANCH   9  12
BRANCH   1  16
ATOM     15  C   UNL     1       1.134   9.437  17.770  0.00  0.00    +0.000 C 
ATOM     16  C   UNL     1       2.507   9.134  18.355  0.00  0.00    +0.000 C 
ENDBRANCH   1  16
BRANCH   5  17
ATOM     17  O   UNL     1       5.487   3.175  15.889  0.00  0.00    +0.000 OA
ATOM     18  H   UNL     1       6.141   2.721  16.453  0.00  0.00    +0.000 HD
ENDBRANCH   5  17
BRANCH   6  19
ATOM     19  O   UNL     1       4.280   1.594  17.876  0.00  0.00    +0.000 OA
ATOM     20  H   UNL     1       4.456   1.400  18.816  0.00  0.00    +0.000 HD
ENDBRANCH   6  19
TORSDOF 4
ENDMDL
MODEL 9
REMARK VINA RESULT:      -6.0      3.302      4.848
REMARK  Name = 
REMARK  5 active torsions:
REMARK  status: ('A' for Active; 'I' for Inactive)
REMARK    1  A    between atoms: C_1  and  C_2
REMARK    2  A    between atoms: C_2  and  C_3
REMARK    3  A    between atoms: C_7  and  O_8
REMARK    4  A    between atoms: C_9  and  O_10
REMARK    5  A    between atoms: C_13  and  N_14
REMARK                            x       y       z     vdW  Elec       q    Type
REMARK                         _______ _______ _______ _____ _____    ______ ____
ROOT
ATOM      1  C   UNL     1       2.541   4.892  20.619  0.00  0.00    +0.000 A 
ATOM      2  C   UNL     1       1.773   6.066  20.758  0.00  0.00    +0.000 A 
ATOM      3  C   UNL     1       1.886   7.148  19.898  0.00  0.00    +0.000 A 
ATOM      4  N   UNL     1       1.112   8.222  20.140  0.00  0.00    +0.000 NA
ATOM      5  C   UNL     1       1.248   9.235  19.274  0.00  0.00    +0.000 A 
ATOM      6  C   UNL     1       2.106   9.200  18.194  0.00  0.00    +0.000 A 
ATOM      7  N   UNL     1       2.878   8.131  17.941  0.00  0.00    +0.000 NA
ATOM      8  C   UNL     1       2.789   7.086  18.805  0.00  0.00    +0.000 A 
ATOM      9  C   UNL     1       3.549   5.920  18.681  0.00  0.00    +0.000 A 
ATOM     10  C   UNL     1       3.458   4.827  19.562  0.00  0.00    +0.000 A 
ATOM     11 BR   UNL     1       4.578   3.292  19.362  0.00  0.00    +0.000 Br
ENDROOT
BRANCH   9  12
ATOM     12  N   UNL     1       4.454   5.860  17.563  0.00  0.00    +0.000 N 
ATOM     13  O   UNL     1       5.552   6.422  17.693  0.00  0.00    +0.000 OA
ATOM     14  O   UNL     1       4.088   5.204  16.578  0.00  0.00    +0.000 OA
ENDBRANCH   9  12
BRANCH   1  16
ATOM     15  C   UNL     1       1.195   2.824  21.087  0.00  0.00    +0.000 C 
ATOM     16  C   UNL     1       2.279   3.766  21.594  0.00  0.00    +0.000 C 
ENDBRANCH   1  16
BRANCH   5  17
ATOM     17  O   UNL     1       0.473  10.321  19.535  0.00  0.00    +0.000 OA
ATOM     18  H   UNL     1      -0.250  10.181  18.895  0.00  0.00    +0.000 HD
ENDBRANCH   5  17
BRANCH   6  19
ATOM     19  O   UNL     1       2.215  10.249  17.330  0.00  0.00    +0.000 OA
ATOM     20  H   UNL     1       2.859  10.857  17.741  0.00  0.00    +0.000 HD
ENDBRANCH   6  19
TORSDOF 4
ENDMDL
