MODEL 1
REMARK VINA RESULT:      -5.8      0.000      0.000
REMARK  Name = 
REMARK  8 active torsions:
REMARK  status: ('A' for Active; 'I' for Inactive)
REMARK    1  A    between atoms: N_1  and  C_2
REMARK    2  A    between atoms: N_11  and  C_12
REMARK    3  A    between atoms: C_12  and  O_13
REMARK    4  A    between atoms: O_13  and  C_14
REMARK    5  A    between atoms: C_14  and  C_15
REMARK    6  A    between atoms: C_14  and  C_17
REMARK    7  A    between atoms: C_15  and  O_16
REMARK    8  A    between atoms: C_17  and  O_18
REMARK                            x       y       z     vdW  Elec       q    Type
REMARK                         _______ _______ _______ _____ _____    ______ ____
ROOT
ATOM      1  C   UNL     1       1.650   4.089  19.304  0.00  0.00    +0.000 A 
ATOM      2  N   UNL     1       1.849   2.902  18.693  0.00  0.00    +0.000 NA
ATOM      3  C   UNL     1       2.720   2.843  17.671  0.00  0.00    +0.000 A 
ATOM      4  N   UNL     1       3.453   3.841  17.152  0.00  0.00    +0.000 NA
ATOM      5  C   UNL     1       3.216   5.008  17.775  0.00  0.00    +0.000 A 
ATOM      6  C   UNL     1       2.338   5.219  18.831  0.00  0.00    +0.000 A 
ATOM      7  C   UNL     1       2.421   6.606  19.133  0.00  0.00    +0.000 A 
ATOM      8  I   UNL     1       1.396   7.615  20.565  0.00  0.00    +0.000 I 
ATOM      9  C   UNL     1       3.332   7.194  18.288  0.00  0.00    +0.000 A 
ATOM     10  N   UNL     1       3.838   6.199  17.486  0.00  0.00    +0.000 N 
ENDROOT
BRANCH   1  11
ATOM     11  N   UNL     1       0.769   4.097  20.371  0.00  0.00    +0.000 N 
ATOM     12  H   UNL     1       0.993   4.820  21.043  0.00  0.00    +0.000 HD
ATOM     13  H   UNL     1       0.499   3.192  20.730  0.00  0.00    +0.000 HD
ENDBRANCH   1  11
BRANCH  10  14
ATOM     14  C   UNL     1       4.892   6.371  16.503  0.00  0.00    +0.000 C 
BRANCH  14  15
ATOM     15  O   UNL     1       6.150   6.665  17.129  0.00  0.00    +0.000 OA
BRANCH  15  16
ATOM     16  C   UNL     1       7.240   5.776  16.789  0.00  0.00    +0.000 C 
BRANCH  16  17
ATOM     17  C   UNL     1       7.579   4.802  17.927  0.00  0.00    +0.000 C 
BRANCH  17  18
ATOM     18  O   UNL     1       6.464   3.972  18.243  0.00  0.00    +0.000 OA
ATOM     19  H   UNL     1       6.725   3.417  18.998  0.00  0.00    +0.000 HD
ENDBRANCH  17  18
ENDBRANCH  16  17
BRANCH  16  20
ATOM     20  C   UNL     1       6.813   4.993  15.536  0.00  0.00    +0.000 C 
BRANCH  20  21
ATOM     21  O   UNL     1       7.634   5.350  14.423  0.00  0.00    +0.000 OA
ATOM     22  H   UNL     1       7.678   6.323  14.428  0.00  0.00    +0.000 HD
ENDBRANCH  20  21
ENDBRANCH  16  20
ENDBRANCH  15  16
ENDBRANCH  14  15
ENDBRANCH  10  14
TORSDOF 8
ENDMDL
MODEL 2
REMARK VINA RESULT:      -5.7      1.270      2.172
REMARK  Name = 
REMARK  8 active torsions:
REMARK  status: ('A' for Active; 'I' for Inactive)
REMARK    1  A    between atoms: N_1  and  C_2
REMARK    2  A    between atoms: N_11  and  C_12
REMARK    3  A    between atoms: C_12  and  O_13
REMARK    4  A    between atoms: O_13  and  C_14
REMARK    5  A    between atoms: C_14  and  C_15
REMARK    6  A    between atoms: C_14  and  C_17
REMARK    7  A    between atoms: C_15  and  O_16
REMARK    8  A    between atoms: C_17  and  O_18
REMARK                            x       y       z     vdW  Elec       q    Type
REMARK                         _______ _______ _______ _____ _____    ______ ____
ROOT
ATOM      1  C   UNL     1       1.612   3.670  19.402  0.00  0.00    +0.000 A 
ATOM      2  N   UNL     1       1.729   2.413  18.926  0.00  0.00    +0.000 NA
ATOM      3  C   UNL     1       2.668   2.162  17.997  0.00  0.00    +0.000 A 
ATOM      4  N   UNL     1       3.545   3.022  17.455  0.00  0.00    +0.000 NA
ATOM      5  C   UNL     1       3.387   4.265  17.941  0.00  0.00    +0.000 A 
ATOM      6  C   UNL     1       2.455   4.671  18.889  0.00  0.00    +0.000 A 
ATOM      7  C   UNL     1       2.664   6.066  19.066  0.00  0.00    +0.000 A 
ATOM      8  I   UNL     1       1.644   7.315  20.297  0.00  0.00    +0.000 I 
ATOM      9  C   UNL     1       3.699   6.469  18.255  0.00  0.00    +0.000 A 
ATOM     10  N   UNL     1       4.156   5.351  17.599  0.00  0.00    +0.000 N 
ENDROOT
BRANCH   1  11
ATOM     11  N   UNL     1       0.655   3.877  20.380  0.00  0.00    +0.000 N 
ATOM     12  H   UNL     1      -0.171   3.311  20.229  0.00  0.00    +0.000 HD
ATOM     13  H   UNL     1       0.519   4.834  20.671  0.00  0.00    +0.000 HD
ENDBRANCH   1  11
BRANCH  10  14
ATOM     14  C   UNL     1       5.298   5.314  16.704  0.00  0.00    +0.000 C 
BRANCH  14  15
ATOM     15  O   UNL     1       6.409   4.626  17.299  0.00  0.00    +0.000 OA
BRANCH  15  16
ATOM     16  C   UNL     1       7.353   5.462  18.010  0.00  0.00    +0.000 C 
BRANCH  16  17
ATOM     17  C   UNL     1       7.372   6.904  17.482  0.00  0.00    +0.000 C 
BRANCH  17  18
ATOM     18  O   UNL     1       8.208   7.735  18.283  0.00  0.00    +0.000 OA
ATOM     19  H   UNL     1       8.494   7.203  19.046  0.00  0.00    +0.000 HD
ENDBRANCH  17  18
ENDBRANCH  16  17
BRANCH  16  20
ATOM     20  C   UNL     1       6.944   5.451  19.492  0.00  0.00    +0.000 C 
BRANCH  20  21
ATOM     21  O   UNL     1       8.103   5.465  20.327  0.00  0.00    +0.000 OA
ATOM     22  H   UNL     1       8.325   6.406  20.454  0.00  0.00    +0.000 HD
ENDBRANCH  20  21
ENDBRANCH  16  20
ENDBRANCH  15  16
ENDBRANCH  14  15
ENDBRANCH  10  14
TORSDOF 8
ENDMDL
MODEL 3
REMARK VINA RESULT:      -5.7      1.245      1.562
REMARK  Name = 
REMARK  8 active torsions:
REMARK  status: ('A' for Active; 'I' for Inactive)
REMARK    1  A    between atoms: N_1  and  C_2
REMARK    2  A    between atoms: N_11  and  C_12
REMARK    3  A    between atoms: C_12  and  O_13
REMARK    4  A    between atoms: O_13  and  C_14
REMARK    5  A    between atoms: C_14  and  C_15
REMARK    6  A    between atoms: C_14  and  C_17
REMARK    7  A    between atoms: C_15  and  O_16
REMARK    8  A    between atoms: C_17  and  O_18
REMARK                            x       y       z     vdW  Elec       q    Type
REMARK                         _______ _______ _______ _____ _____    ______ ____
ROOT
ATOM      1  C   UNL     1       1.819   3.384  19.748  0.00  0.00    +0.000 A 
ATOM      2  N   UNL     1       2.024   2.126  19.307  0.00  0.00    +0.000 NA
ATOM      3  C   UNL     1       2.857   1.937  18.268  0.00  0.00    +0.000 A 
ATOM      4  N   UNL     1       3.544   2.862  17.582  0.00  0.00    +0.000 NA
ATOM      5  C   UNL     1       3.302   4.103  18.039  0.00  0.00    +0.000 A 
ATOM      6  C   UNL     1       2.460   4.448  19.090  0.00  0.00    +0.000 A 
ATOM      7  C   UNL     1       2.521   5.865  19.186  0.00  0.00    +0.000 A 
ATOM      8  I   UNL     1       1.527   7.050  20.499  0.00  0.00    +0.000 I 
ATOM      9  C   UNL     1       3.384   6.341  18.228  0.00  0.00    +0.000 A 
ATOM     10  N   UNL     1       3.883   5.251  17.557  0.00  0.00    +0.000 N 
ENDROOT
BRANCH   1  11
ATOM     11  N   UNL     1       0.980   3.530  20.839  0.00  0.00    +0.000 N 
ATOM     12  H   UNL     1       1.039   4.456  21.243  0.00  0.00    +0.000 HD
ATOM     13  H   UNL     1       0.937   2.745  21.474  0.00  0.00    +0.000 HD
ENDBRANCH   1  11
BRANCH  10  14
ATOM     14  C   UNL     1       4.894   5.299  16.517  0.00  0.00    +0.000 C 
BRANCH  14  15
ATOM     15  O   UNL     1       5.794   6.401  16.711  0.00  0.00    +0.000 OA
BRANCH  15  16
ATOM     16  C   UNL     1       7.138   6.046  17.114  0.00  0.00    +0.000 C 
BRANCH  16  17
ATOM     17  C   UNL     1       7.742   7.061  18.095  0.00  0.00    +0.000 C 
BRANCH  17  18
ATOM     18  O   UNL     1       8.247   6.412  19.260  0.00  0.00    +0.000 OA
ATOM     19  H   UNL     1       9.106   6.020  19.020  0.00  0.00    +0.000 HD
ENDBRANCH  17  18
ENDBRANCH  16  17
BRANCH  16  20
ATOM     20  C   UNL     1       7.063   4.658  17.772  0.00  0.00    +0.000 C 
BRANCH  20  21
ATOM     21  O   UNL     1       8.325   3.995  17.678  0.00  0.00    +0.000 OA
ATOM     22  H   UNL     1       8.165   3.197  17.142  0.00  0.00    +0.000 HD
ENDBRANCH  20  21
ENDBRANCH  16  20
ENDBRANCH  15  16
ENDBRANCH  14  15
ENDBRANCH  10  14
TORSDOF 8
ENDMDL
MODEL 4
REMARK VINA RESULT:      -5.6      3.608      6.028
REMARK  Name = 
REMARK  8 active torsions:
REMARK  status: ('A' for Active; 'I' for Inactive)
REMARK    1  A    between atoms: N_1  and  C_2
REMARK    2  A    between atoms: N_11  and  C_12
REMARK    3  A    between atoms: C_12  and  O_13
REMARK    4  A    between atoms: O_13  and  C_14
REMARK    5  A    between atoms: C_14  and  C_15
REMARK    6  A    between atoms: C_14  and  C_17
REMARK    7  A    between atoms: C_15  and  O_16
REMARK    8  A    between atoms: C_17  and  O_18
REMARK                            x       y       z     vdW  Elec       q    Type
REMARK                         _______ _______ _______ _____ _____    ______ ____
ROOT
ATOM      1  C   UNL     1       7.037   5.769  17.195  0.00  0.00    +0.000 A 
ATOM      2  N   UNL     1       7.350   6.185  18.440  0.00  0.00    +0.000 NA
ATOM      3  C   UNL     1       6.717   5.623  19.484  0.00  0.00    +0.000 A 
ATOM      4  N   UNL     1       5.780   4.663  19.462  0.00  0.00    +0.000 NA
ATOM      5  C   UNL     1       5.483   4.286  18.206  0.00  0.00    +0.000 A 
ATOM      6  C   UNL     1       6.045   4.787  17.037  0.00  0.00    +0.000 A 
ATOM      7  C   UNL     1       5.404   4.096  15.972  0.00  0.00    +0.000 A 
ATOM      8  I   UNL     1       5.727   4.335  13.984  0.00  0.00    +0.000 I 
ATOM      9  C   UNL     1       4.501   3.203  16.499  0.00  0.00    +0.000 A 
ATOM     10  N   UNL     1       4.585   3.303  17.867  0.00  0.00    +0.000 N 
ENDROOT
BRANCH   1  11
ATOM     11  N   UNL     1       7.735   6.353  16.152  0.00  0.00    +0.000 N 
ATOM     12  H   UNL     1       8.733   6.366  16.322  0.00  0.00    +0.000 HD
ATOM     13  H   UNL     1       7.319   7.179  15.747  0.00  0.00    +0.000 HD
ENDBRANCH   1  11
BRANCH  10  14
ATOM     14  C   UNL     1       3.858   2.476  18.813  0.00  0.00    +0.000 C 
BRANCH  14  15
ATOM     15  O   UNL     1       2.534   2.981  19.042  0.00  0.00    +0.000 OA
BRANCH  15  16
ATOM     16  C   UNL     1       2.360   3.748  20.257  0.00  0.00    +0.000 C 
BRANCH  16  17
ATOM     17  C   UNL     1       2.031   5.222  19.979  0.00  0.00    +0.000 C 
BRANCH  17  18
ATOM     18  O   UNL     1       3.162   6.055  20.219  0.00  0.00    +0.000 OA
ATOM     19  H   UNL     1       2.930   6.949  19.911  0.00  0.00    +0.000 HD
ENDBRANCH  17  18
ENDBRANCH  16  17
BRANCH  16  20
ATOM     20  C   UNL     1       1.213   3.093  21.046  0.00  0.00    +0.000 C 
BRANCH  20  21
ATOM     21  O   UNL     1       1.702   2.548  22.273  0.00  0.00    +0.000 OA
ATOM     22  H   UNL     1       2.511   2.059  22.041  0.00  0.00    +0.000 HD
ENDBRANCH  20  21
ENDBRANCH  16  20
ENDBRANCH  15  16
ENDBRANCH  14  15
ENDBRANCH  10  14
TORSDOF 8
ENDMDL
MODEL 5
REMARK VINA RESULT:      -5.6      1.847      2.718
REMARK  Name = 
REMARK  8 active torsions:
REMARK  status: ('A' for Active; 'I' for Inactive)
REMARK    1  A    between atoms: N_1  and  C_2
REMARK    2  A    between atoms: N_11  and  C_12
REMARK    3  A    between atoms: C_12  and  O_13
REMARK    4  A    between atoms: O_13  and  C_14
REMARK    5  A    between atoms: C_14  and  C_15
REMARK    6  A    between atoms: C_14  and  C_17
REMARK    7  A    between atoms: C_15  and  O_16
REMARK    8  A    between atoms: C_17  and  O_18
REMARK                            x       y       z     vdW  Elec       q    Type
REMARK                         _______ _______ _______ _____ _____    ______ ____
ROOT
ATOM      1  C   UNL     1       1.998   5.548  20.653  0.00  0.00    +0.000 A 
ATOM      2  N   UNL     1       1.974   4.409  21.376  0.00  0.00    +0.000 NA
ATOM      3  C   UNL     1       2.571   3.315  20.872  0.00  0.00    +0.000 A 
ATOM      4  N   UNL     1       3.217   3.191  19.702  0.00  0.00    +0.000 NA
ATOM      5  C   UNL     1       3.206   4.339  19.004  0.00  0.00    +0.000 A 
ATOM      6  C   UNL     1       2.620   5.539  19.392  0.00  0.00    +0.000 A 
ATOM      7  C   UNL     1       2.856   6.449  18.326  0.00  0.00    +0.000 A 
ATOM      8  I   UNL     1       2.265   8.386  18.212  0.00  0.00    +0.000 I 
ATOM      9  C   UNL     1       3.572   5.808  17.342  0.00  0.00    +0.000 A 
ATOM     10  N   UNL     1       3.811   4.529  17.785  0.00  0.00    +0.000 N 
ENDROOT
BRANCH   1  11
ATOM     11  N   UNL     1       1.400   6.658  21.223  0.00  0.00    +0.000 N 
ATOM     12  H   UNL     1       0.545   6.916  20.746  0.00  0.00    +0.000 HD
ATOM     13  H   UNL     1       2.023   7.402  21.503  0.00  0.00    +0.000 HD
ENDBRANCH   1  11
BRANCH  10  14
ATOM     14  C   UNL     1       4.608   3.537  17.087  0.00  0.00    +0.000 C 
BRANCH  14  15
ATOM     15  O   UNL     1       4.982   3.992  15.778  0.00  0.00    +0.000 OA
BRANCH  15  16
ATOM     16  C   UNL     1       6.394   3.913  15.469  0.00  0.00    +0.000 C 
BRANCH  16  17
ATOM     17  C   UNL     1       6.702   4.336  14.025  0.00  0.00    +0.000 C 
BRANCH  17  18
ATOM     18  O   UNL     1       6.308   3.328  13.099  0.00  0.00    +0.000 OA
ATOM     19  H   UNL     1       7.074   3.149  12.525  0.00  0.00    +0.000 HD
ENDBRANCH  17  18
ENDBRANCH  16  17
BRANCH  16  20
ATOM     20  C   UNL     1       7.127   4.838  16.456  0.00  0.00    +0.000 C 
BRANCH  20  21
ATOM     21  O   UNL     1       8.093   4.100  17.204  0.00  0.00    +0.000 OA
ATOM     22  H   UNL     1       8.558   3.540  16.556  0.00  0.00    +0.000 HD
ENDBRANCH  20  21
ENDBRANCH  16  20
ENDBRANCH  15  16
ENDBRANCH  14  15
ENDBRANCH  10  14
TORSDOF 8
ENDMDL
MODEL 6
REMARK VINA RESULT:      -5.6      1.042      1.681
REMARK  Name = 
REMARK  8 active torsions:
REMARK  status: ('A' for Active; 'I' for Inactive)
REMARK    1  A    between atoms: N_1  and  C_2
REMARK    2  A    between atoms: N_11  and  C_12
REMARK    3  A    between atoms: C_12  and  O_13
REMARK    4  A    between atoms: O_13  and  C_14
REMARK    5  A    between atoms: C_14  and  C_15
REMARK    6  A    between atoms: C_14  and  C_17
REMARK    7  A    between atoms: C_15  and  O_16
REMARK    8  A    between atoms: C_17  and  O_18
REMARK                            x       y       z     vdW  Elec       q    Type
REMARK                         _______ _______ _______ _____ _____    ______ ____
ROOT
ATOM      1  C   UNL     1       1.565   4.101  19.281  0.00  0.00    +0.000 A 
ATOM      2  N   UNL     1       1.733   2.928  18.637  0.00  0.00    +0.000 NA
ATOM      3  C   UNL     1       2.605   2.874  17.615  0.00  0.00    +0.000 A 
ATOM      4  N   UNL     1       3.366   3.866  17.126  0.00  0.00    +0.000 NA
ATOM      5  C   UNL     1       3.158   5.021  17.781  0.00  0.00    +0.000 A 
ATOM      6  C   UNL     1       2.283   5.226  18.842  0.00  0.00    +0.000 A 
ATOM      7  C   UNL     1       2.403   6.601  19.183  0.00  0.00    +0.000 A 
ATOM      8  I   UNL     1       1.402   7.596  20.641  0.00  0.00    +0.000 I 
ATOM      9  C   UNL     1       3.332   7.187  18.356  0.00  0.00    +0.000 A 
ATOM     10  N   UNL     1       3.813   6.202  17.527  0.00  0.00    +0.000 N 
ENDROOT
BRANCH   1  11
ATOM     11  N   UNL     1       0.681   4.103  20.347  0.00  0.00    +0.000 N 
ATOM     12  H   UNL     1       1.002   4.691  21.106  0.00  0.00    +0.000 HD
ATOM     13  H   UNL     1       0.275   3.210  20.587  0.00  0.00    +0.000 HD
ENDBRANCH   1  11
BRANCH  10  14
ATOM     14  C   UNL     1       4.874   6.374  16.552  0.00  0.00    +0.000 C 
BRANCH  14  15
ATOM     15  O   UNL     1       6.118   6.710  17.184  0.00  0.00    +0.000 OA
BRANCH  15  16
ATOM     16  C   UNL     1       6.581   5.775  18.187  0.00  0.00    +0.000 C 
BRANCH  16  17
ATOM     17  C   UNL     1       6.885   4.389  17.601  0.00  0.00    +0.000 C 
BRANCH  17  18
ATOM     18  O   UNL     1       8.083   4.409  16.829  0.00  0.00    +0.000 OA
ATOM     19  H   UNL     1       8.440   3.503  16.830  0.00  0.00    +0.000 HD
ENDBRANCH  17  18
ENDBRANCH  16  17
BRANCH  16  20
ATOM     20  C   UNL     1       7.853   6.373  18.812  0.00  0.00    +0.000 C 
BRANCH  20  21
ATOM     21  O   UNL     1       8.414   5.465  19.761  0.00  0.00    +0.000 OA
ATOM     22  H   UNL     1       7.995   4.604  19.584  0.00  0.00    +0.000 HD
ENDBRANCH  20  21
ENDBRANCH  16  20
ENDBRANCH  15  16
ENDBRANCH  14  15
ENDBRANCH  10  14
TORSDOF 8
ENDMDL
MODEL 7
REMARK VINA RESULT:      -5.6      3.747      6.179
REMARK  Name = 
REMARK  8 active torsions:
REMARK  status: ('A' for Active; 'I' for Inactive)
REMARK    1  A    between atoms: N_1  and  C_2
REMARK    2  A    between atoms: N_11  and  C_12
REMARK    3  A    between atoms: C_12  and  O_13
REMARK    4  A    between atoms: O_13  and  C_14
REMARK    5  A    between atoms: C_14  and  C_15
REMARK    6  A    between atoms: C_14  and  C_17
REMARK    7  A    between atoms: C_15  and  O_16
REMARK    8  A    between atoms: C_17  and  O_18
REMARK                            x       y       z     vdW  Elec       q    Type
REMARK                         _______ _______ _______ _____ _____    ______ ____
ROOT
ATOM      1  C   UNL     1       7.227   5.928  17.342  0.00  0.00    +0.000 A 
ATOM      2  N   UNL     1       7.711   6.338  18.532  0.00  0.00    +0.000 NA
ATOM      3  C   UNL     1       7.207   5.793  19.653  0.00  0.00    +0.000 A 
ATOM      4  N   UNL     1       6.252   4.856  19.759  0.00  0.00    +0.000 NA
ATOM      5  C   UNL     1       5.784   4.485  18.555  0.00  0.00    +0.000 A 
ATOM      6  C   UNL     1       6.199   4.970  17.320  0.00  0.00    +0.000 A 
ATOM      7  C   UNL     1       5.408   4.293  16.352  0.00  0.00    +0.000 A 
ATOM      8  I   UNL     1       5.472   4.521  14.337  0.00  0.00    +0.000 I 
ATOM      9  C   UNL     1       4.559   3.424  16.997  0.00  0.00    +0.000 A 
ATOM     10  N   UNL     1       4.825   3.525  18.342  0.00  0.00    +0.000 N 
ENDROOT
BRANCH   1  11
ATOM     11  N   UNL     1       7.796   6.492  16.213  0.00  0.00    +0.000 N 
ATOM     12  H   UNL     1       7.387   7.390  15.990  0.00  0.00    +0.000 HD
ATOM     13  H   UNL     1       7.983   5.859  15.448  0.00  0.00    +0.000 HD
ENDBRANCH   1  11
BRANCH  10  14
ATOM     14  C   UNL     1       4.209   2.718  19.378  0.00  0.00    +0.000 C 
BRANCH  14  15
ATOM     15  O   UNL     1       3.299   3.492  20.174  0.00  0.00    +0.000 OA
BRANCH  15  16
ATOM     16  C   UNL     1       1.895   3.317  19.866  0.00  0.00    +0.000 C 
BRANCH  16  17
ATOM     17  C   UNL     1       1.650   2.159  18.888  0.00  0.00    +0.000 C 
BRANCH  17  18
ATOM     18  O   UNL     1       0.287   2.115  18.474  0.00  0.00    +0.000 OA
ATOM     19  H   UNL     1       0.203   1.381  17.840  0.00  0.00    +0.000 HD
ENDBRANCH  17  18
ENDBRANCH  16  17
BRANCH  16  20
ATOM     20  C   UNL     1       1.169   3.046  21.195  0.00  0.00    +0.000 C 
BRANCH  20  21
ATOM     21  O   UNL     1       2.113   2.904  22.257  0.00  0.00    +0.000 OA
ATOM     22  H   UNL     1       2.237   1.945  22.374  0.00  0.00    +0.000 HD
ENDBRANCH  20  21
ENDBRANCH  16  20
ENDBRANCH  15  16
ENDBRANCH  14  15
ENDBRANCH  10  14
TORSDOF 8
ENDMDL
MODEL 8
REMARK VINA RESULT:      -5.6      3.594      5.853
REMARK  Name = 
REMARK  8 active torsions:
REMARK  status: ('A' for Active; 'I' for Inactive)
REMARK    1  A    between atoms: N_1  and  C_2
REMARK    2  A    between atoms: N_11  and  C_12
REMARK    3  A    between atoms: C_12  and  O_13
REMARK    4  A    between atoms: O_13  and  C_14
REMARK    5  A    between atoms: C_14  and  C_15
REMARK    6  A    between atoms: C_14  and  C_17
REMARK    7  A    between atoms: C_15  and  O_16
REMARK    8  A    between atoms: C_17  and  O_18
REMARK                            x       y       z     vdW  Elec       q    Type
REMARK                         _______ _______ _______ _____ _____    ______ ____
ROOT
ATOM      1  C   UNL     1       7.100   5.756  17.210  0.00  0.00    +0.000 A 
ATOM      2  N   UNL     1       7.518   6.234  18.401  0.00  0.00    +0.000 NA
ATOM      3  C   UNL     1       6.941   5.764  19.521  0.00  0.00    +0.000 A 
ATOM      4  N   UNL     1       5.969   4.845  19.626  0.00  0.00    +0.000 NA
ATOM      5  C   UNL     1       5.568   4.405  18.420  0.00  0.00    +0.000 A 
ATOM      6  C   UNL     1       6.062   4.809  17.185  0.00  0.00    +0.000 A 
ATOM      7  C   UNL     1       5.320   4.082  16.215  0.00  0.00    +0.000 A 
ATOM      8  I   UNL     1       5.506   4.185  14.197  0.00  0.00    +0.000 I 
ATOM      9  C   UNL     1       4.424   3.262  16.859  0.00  0.00    +0.000 A 
ATOM     10  N   UNL     1       4.610   3.443  18.209  0.00  0.00    +0.000 N 
ENDROOT
BRANCH   1  11
ATOM     11  N   UNL     1       7.742   6.244  16.086  0.00  0.00    +0.000 N 
ATOM     12  H   UNL     1       7.862   7.249  16.122  0.00  0.00    +0.000 HD
ATOM     13  H   UNL     1       7.461   5.839  15.204  0.00  0.00    +0.000 HD
ENDBRANCH   1  11
BRANCH  10  14
ATOM     14  C   UNL     1       3.923   2.707  19.254  0.00  0.00    +0.000 C 
BRANCH  14  15
ATOM     15  O   UNL     1       2.498   2.796  19.109  0.00  0.00    +0.000 OA
BRANCH  15  16
ATOM     16  C   UNL     1       1.827   3.662  20.055  0.00  0.00    +0.000 C 
BRANCH  16  17
ATOM     17  C   UNL     1       2.332   3.463  21.491  0.00  0.00    +0.000 C 
BRANCH  17  18
ATOM     18  O   UNL     1       1.610   2.426  22.151  0.00  0.00    +0.000 OA
ATOM     19  H   UNL     1       1.542   2.676  23.089  0.00  0.00    +0.000 HD
ENDBRANCH  17  18
ENDBRANCH  16  17
BRANCH  16  20
ATOM     20  C   UNL     1       2.081   5.111  19.604  0.00  0.00    +0.000 C 
BRANCH  20  21
ATOM     21  O   UNL     1       3.029   5.740  20.467  0.00  0.00    +0.000 OA
ATOM     22  H   UNL     1       3.344   6.526  19.985  0.00  0.00    +0.000 HD
ENDBRANCH  20  21
ENDBRANCH  16  20
ENDBRANCH  15  16
ENDBRANCH  14  15
ENDBRANCH  10  14
TORSDOF 8
ENDMDL
MODEL 9
REMARK VINA RESULT:      -5.5      1.802      3.257
REMARK  Name = 
REMARK  8 active torsions:
REMARK  status: ('A' for Active; 'I' for Inactive)
REMARK    1  A    between atoms: N_1  and  C_2
REMARK    2  A    between atoms: N_11  and  C_12
REMARK    3  A    between atoms: C_12  and  O_13
REMARK    4  A    between atoms: O_13  and  C_14
REMARK    5  A    between atoms: C_14  and  C_15
REMARK    6  A    between atoms: C_14  and  C_17
REMARK    7  A    between atoms: C_15  and  O_16
REMARK    8  A    between atoms: C_17  and  O_18
REMARK                            x       y       z     vdW  Elec       q    Type
REMARK                         _______ _______ _______ _____ _____    ______ ____
ROOT
ATOM      1  C   UNL     1       2.344   6.549  19.719  0.00  0.00    +0.000 A 
ATOM      2  N   UNL     1       2.528   7.712  19.062  0.00  0.00    +0.000 NA
ATOM      3  C   UNL     1       3.183   7.692  17.888  0.00  0.00    +0.000 A 
ATOM      4  N   UNL     1       3.699   6.630  17.250  0.00  0.00    +0.000 NA
ATOM      5  C   UNL     1       3.511   5.493  17.942  0.00  0.00    +0.000 A 
ATOM      6  C   UNL     1       2.868   5.367  19.167  0.00  0.00    +0.000 A 
ATOM      7  C   UNL     1       2.934   3.986  19.499  0.00  0.00    +0.000 A 
ATOM      8  I   UNL     1       2.203   3.088  21.165  0.00  0.00    +0.000 I 
ATOM      9  C   UNL     1       3.586   3.315  18.492  0.00  0.00    +0.000 A 
ATOM     10  N   UNL     1       3.902   4.243  17.528  0.00  0.00    +0.000 N 
ENDROOT
BRANCH   1  11
ATOM     11  N   UNL     1       1.638   6.612  20.908  0.00  0.00    +0.000 N 
ATOM     12  H   UNL     1       0.949   5.874  20.980  0.00  0.00    +0.000 HD
ATOM     13  H   UNL     1       1.368   7.536  21.214  0.00  0.00    +0.000 HD
ENDBRANCH   1  11
BRANCH  10  14
ATOM     14  C   UNL     1       4.527   3.944  16.253  0.00  0.00    +0.000 C 
BRANCH  14  15
ATOM     15  O   UNL     1       5.862   3.447  16.426  0.00  0.00    +0.000 OA
BRANCH  15  16
ATOM     16  C   UNL     1       6.922   4.384  16.120  0.00  0.00    +0.000 C 
BRANCH  16  17
ATOM     17  C   UNL     1       6.510   5.406  15.050  0.00  0.00    +0.000 C 
BRANCH  17  18
ATOM     18  O   UNL     1       7.337   5.303  13.894  0.00  0.00    +0.000 OA
ATOM     19  H   UNL     1       6.757   5.385  13.117  0.00  0.00    +0.000 HD
ENDBRANCH  17  18
ENDBRANCH  16  17
BRANCH  16  20
ATOM     20  C   UNL     1       7.280   5.107  17.429  0.00  0.00    +0.000 C 
BRANCH  20  21
ATOM     21  O   UNL     1       7.159   4.216  18.538  0.00  0.00    +0.000 OA
ATOM     22  H   UNL     1       8.070   4.036  18.833  0.00  0.00    +0.000 HD
ENDBRANCH  20  21
ENDBRANCH  16  20
ENDBRANCH  15  16
ENDBRANCH  14  15
ENDBRANCH  10  14
TORSDOF 8
ENDMDL
