MODEL 1
REMARK VINA RESULT:      -8.5      0.000      0.000
REMARK  Name = 
REMARK  7 active torsions:
REMARK  status: ('A' for Active; 'I' for Inactive)
REMARK    1  A    between atoms: C_1  and  C_2
REMARK    2  A    between atoms: C_7  and  N_8
REMARK    3  A    between atoms: C_10  and  C_11
REMARK    4  A    between atoms: C_14  and  N_15
REMARK    5  A    between atoms: C_18  and  C_19
REMARK    6  A    between atoms: C_23  and  C_24
REMARK    7  A    between atoms: C_24  and  N_25
REMARK                            x       y       z     vdW  Elec       q    Type
REMARK                         _______ _______ _______ _____ _____    ______ ____
ROOT
ATOM      1  C   UNL     1      -0.529  10.103  21.077  0.00  0.00    +0.000 A 
ATOM      2  C   UNL     1      -0.884  10.756  19.884  0.00  0.00    +0.000 A 
ATOM      3  N   UNL     1      -0.088  11.035  18.817  0.00  0.00    +0.000 NA
ATOM      4  C   UNL     1       1.102  10.419  18.731  0.00  0.00    +0.000 A 
ATOM      5  C   UNL     1       1.317   9.344  19.579  0.00  0.00    +0.000 A 
ATOM      6  O   UNL     1       2.156   8.332  19.239  0.00  0.00    +0.000 OA
ATOM      7  C   UNL     1       1.820   7.205  19.931  0.00  0.00    +0.000 A 
ATOM      8  C   UNL     1       0.898   7.645  20.928  0.00  0.00    +0.000 A 
ATOM      9  C   UNL     1       0.585   9.140  20.761  0.00  0.00    +0.000 A 
ENDROOT
BRANCH   7  10
ATOM     10  C   UNL     1       2.478   5.954  19.354  0.00  0.00    +0.000 A 
ATOM     11  C   UNL     1       2.703   5.740  17.972  0.00  0.00    +0.000 A 
ATOM     12  C   UNL     1       3.299   4.550  17.467  0.00  0.00    +0.000 A 
ATOM     13  C   UNL     1       3.701   3.512  18.310  0.00  0.00    +0.000 A 
ATOM     14  C   UNL     1       3.551   3.651  19.689  0.00  0.00    +0.000 A 
ATOM     15  C   UNL     1       2.959   4.861  20.181  0.00  0.00    +0.000 A 
BRANCH  14  16
ATOM     16  C   UNL     1       3.902   2.433  20.544  0.00  0.00    +0.000 C 
BRANCH  16  17
ATOM     17  N   UNL     1       5.158   1.772  20.207  0.00  0.00    +0.000 NA
ATOM     18  H   UNL     1       5.520   2.184  19.348  0.00  0.00    +0.000 HD
ATOM     19  H   UNL     1       4.951   0.798  19.967  0.00  0.00    +0.000 HD
ENDBRANCH  16  17
ENDBRANCH  14  16
ENDBRANCH   7  10
BRANCH   1  22
ATOM     20  N   UNL     1      -1.949  12.934  23.191  0.00  0.00    +0.000 N 
ATOM     21  C   UNL     1      -1.786  11.535  23.012  0.00  0.00    +0.000 A 
ATOM     22  C   UNL     1      -0.687  11.271  22.154  0.00  0.00    +0.000 A 
ATOM     23  C   UNL     1      -0.291  12.644  21.885  0.00  0.00    +0.000 A 
ATOM     24  N   UNL     1      -0.992  13.593  22.517  0.00  0.00    +0.000 NA
BRANCH  20  31
ATOM     25  C   UNL     1      -7.917  14.552  22.622  0.00  0.00    +0.000 C 
ATOM     26  C   UNL     1      -7.183  13.562  23.497  0.00  0.00    +0.000 C 
ATOM     27  O   UNL     1      -7.825  12.681  24.079  0.00  0.00    +0.000 OA
ATOM     28  N   UNL     1      -5.794  13.670  23.612  0.00  0.00    +0.000 N 
ATOM     29  C   UNL     1      -5.096  12.568  24.274  0.00  0.00    +0.000 C 
ATOM     30  C   UNL     1      -3.826  13.012  24.996  0.00  0.00    +0.000 C 
ATOM     31  C   UNL     1      -2.834  13.747  24.078  0.00  0.00    +0.000 C 
ATOM     32  C   UNL     1      -3.655  14.930  23.439  0.00  0.00    +0.000 C 
ATOM     33  C   UNL     1      -4.963  14.514  22.752  0.00  0.00    +0.000 C 
ENDBRANCH  20  31
ENDBRANCH   1  22
BRANCH   4  34
ATOM     34  N   UNL     1       1.911  10.732  17.646  0.00  0.00    +0.000 N 
ATOM     35  H   UNL     1       2.222  11.690  17.751  0.00  0.00    +0.000 HD
ATOM     36  H   UNL     1       1.426  10.538  16.775  0.00  0.00    +0.000 HD
ENDBRANCH   4  34
TORSDOF 6
ENDMDL
MODEL 2
REMARK VINA RESULT:      -8.5      2.317      3.193
REMARK  Name = 
REMARK  7 active torsions:
REMARK  status: ('A' for Active; 'I' for Inactive)
REMARK    1  A    between atoms: C_1  and  C_2
REMARK    2  A    between atoms: C_7  and  N_8
REMARK    3  A    between atoms: C_10  and  C_11
REMARK    4  A    between atoms: C_14  and  N_15
REMARK    5  A    between atoms: C_18  and  C_19
REMARK    6  A    between atoms: C_23  and  C_24
REMARK    7  A    between atoms: C_24  and  N_25
REMARK                            x       y       z     vdW  Elec       q    Type
REMARK                         _______ _______ _______ _____ _____    ______ ____
ROOT
ATOM      1  C   UNL     1       0.336  11.424  19.113  0.00  0.00    +0.000 A 
ATOM      2  C   UNL     1       0.819  11.799  20.379  0.00  0.00    +0.000 A 
ATOM      3  N   UNL     1       1.073  10.994  21.446  0.00  0.00    +0.000 NA
ATOM      4  C   UNL     1       1.131   9.667  21.246  0.00  0.00    +0.000 A 
ATOM      5  C   UNL     1       1.205   9.233  19.932  0.00  0.00    +0.000 A 
ATOM      6  O   UNL     1       1.816   8.063  19.609  0.00  0.00    +0.000 OA
ATOM      7  C   UNL     1       2.217   8.100  18.305  0.00  0.00    +0.000 A 
ATOM      8  C   UNL     1       1.577   9.252  17.754  0.00  0.00    +0.000 A 
ATOM      9  C   UNL     1       0.804  10.018  18.839  0.00  0.00    +0.000 A 
ENDROOT
BRANCH   7  10
ATOM     10  C   UNL     1       3.205   6.986  17.971  0.00  0.00    +0.000 A 
ATOM     11  C   UNL     1       4.283   7.125  17.063  0.00  0.00    +0.000 A 
ATOM     12  C   UNL     1       5.172   6.057  16.758  0.00  0.00    +0.000 A 
ATOM     13  C   UNL     1       5.037   4.795  17.341  0.00  0.00    +0.000 A 
ATOM     14  C   UNL     1       4.026   4.577  18.276  0.00  0.00    +0.000 A 
ATOM     15  C   UNL     1       3.145   5.668  18.579  0.00  0.00    +0.000 A 
BRANCH  14  16
ATOM     16  C   UNL     1       3.859   3.145  18.786  0.00  0.00    +0.000 C 
BRANCH  16  17
ATOM     17  N   UNL     1       4.944   2.650  19.626  0.00  0.00    +0.000 NA
ATOM     18  H   UNL     1       4.712   2.843  20.601  0.00  0.00    +0.000 HD
ATOM     19  H   UNL     1       5.777   3.214  19.437  0.00  0.00    +0.000 HD
ENDBRANCH  16  17
ENDBRANCH  14  16
ENDBRANCH   7  10
BRANCH   1  22
ATOM     20  N   UNL     1      -3.232  12.431  19.978  0.00  0.00    +0.000 N 
ATOM     21  C   UNL     1      -1.843  12.647  20.176  0.00  0.00    +0.000 A 
ATOM     22  C   UNL     1      -1.101  12.118  19.088  0.00  0.00    +0.000 A 
ATOM     23  C   UNL     1      -2.210  11.596  18.307  0.00  0.00    +0.000 A 
ATOM     24  N   UNL     1      -3.434  11.816  18.802  0.00  0.00    +0.000 NA
BRANCH  20  31
ATOM     25  C   UNL     1      -3.835  16.182  24.889  0.00  0.00    +0.000 C 
ATOM     26  C   UNL     1      -4.116  16.343  23.413  0.00  0.00    +0.000 C 
ATOM     27  O   UNL     1      -4.272  17.478  22.950  0.00  0.00    +0.000 OA
ATOM     28  N   UNL     1      -4.181  15.198  22.615  0.00  0.00    +0.000 N 
ATOM     29  C   UNL     1      -4.223  15.400  21.167  0.00  0.00    +0.000 C 
ATOM     30  C   UNL     1      -4.987  14.302  20.431  0.00  0.00    +0.000 C 
ATOM     31  C   UNL     1      -4.445  12.892  20.718  0.00  0.00    +0.000 C 
ATOM     32  C   UNL     1      -4.468  12.748  22.287  0.00  0.00    +0.000 C 
ATOM     33  C   UNL     1      -3.749  13.869  23.051  0.00  0.00    +0.000 C 
ENDBRANCH  20  31
ENDBRANCH   1  22
BRANCH   4  34
ATOM     34  N   UNL     1       1.370   8.861  22.351  0.00  0.00    +0.000 N 
ATOM     35  H   UNL     1       1.228   7.897  22.075  0.00  0.00    +0.000 HD
ATOM     36  H   UNL     1       0.804   9.162  23.139  0.00  0.00    +0.000 HD
ENDBRANCH   4  34
TORSDOF 6
ENDMDL
MODEL 3
REMARK VINA RESULT:      -8.4      0.849      1.348
REMARK  Name = 
REMARK  7 active torsions:
REMARK  status: ('A' for Active; 'I' for Inactive)
REMARK    1  A    between atoms: C_1  and  C_2
REMARK    2  A    between atoms: C_7  and  N_8
REMARK    3  A    between atoms: C_10  and  C_11
REMARK    4  A    between atoms: C_14  and  N_15
REMARK    5  A    between atoms: C_18  and  C_19
REMARK    6  A    between atoms: C_23  and  C_24
REMARK    7  A    between atoms: C_24  and  N_25
REMARK                            x       y       z     vdW  Elec       q    Type
REMARK                         _______ _______ _______ _____ _____    ______ ____
ROOT
ATOM      1  C   UNL     1      -0.495  10.014  21.142  0.00  0.00    +0.000 A 
ATOM      2  C   UNL     1      -0.898  10.518  19.894  0.00  0.00    +0.000 A 
ATOM      3  N   UNL     1      -0.139  10.689  18.778  0.00  0.00    +0.000 NA
ATOM      4  C   UNL     1       1.063  10.092  18.727  0.00  0.00    +0.000 A 
ATOM      5  C   UNL     1       1.327   9.127  19.685  0.00  0.00    +0.000 A 
ATOM      6  O   UNL     1       2.181   8.100  19.437  0.00  0.00    +0.000 OA
ATOM      7  C   UNL     1       1.892   7.053  20.263  0.00  0.00    +0.000 A 
ATOM      8  C   UNL     1       0.987   7.585  21.231  0.00  0.00    +0.000 A 
ATOM      9  C   UNL     1       0.633   9.044  20.905  0.00  0.00    +0.000 A 
ENDROOT
BRANCH   7  10
ATOM     10  C   UNL     1       2.563   5.758  19.813  0.00  0.00    +0.000 A 
ATOM     11  C   UNL     1       2.477   4.532  20.516  0.00  0.00    +0.000 A 
ATOM     12  C   UNL     1       3.135   3.348  20.078  0.00  0.00    +0.000 A 
ATOM     13  C   UNL     1       3.913   3.323  18.919  0.00  0.00    +0.000 A 
ATOM     14  C   UNL     1       4.024   4.475  18.142  0.00  0.00    +0.000 A 
ATOM     15  C   UNL     1       3.345   5.656  18.592  0.00  0.00    +0.000 A 
BRANCH  14  16
ATOM     16  C   UNL     1       4.983   4.412  16.952  0.00  0.00    +0.000 C 
BRANCH  16  17
ATOM     17  N   UNL     1       6.361   4.064  17.277  0.00  0.00    +0.000 NA
ATOM     18  H   UNL     1       6.546   3.120  16.937  0.00  0.00    +0.000 HD
ATOM     19  H   UNL     1       6.442   3.998  18.296  0.00  0.00    +0.000 HD
ENDBRANCH  16  17
ENDBRANCH  14  16
ENDBRANCH   7  10
BRANCH   1  22
ATOM     20  N   UNL     1      -1.961  12.935  23.096  0.00  0.00    +0.000 N 
ATOM     21  C   UNL     1      -1.645  11.551  23.063  0.00  0.00    +0.000 A 
ATOM     22  C   UNL     1      -0.651  11.293  22.083  0.00  0.00    +0.000 A 
ATOM     23  C   UNL     1      -0.476  12.652  21.595  0.00  0.00    +0.000 A 
ATOM     24  N   UNL     1      -1.199  13.596  22.208  0.00  0.00    +0.000 NA
BRANCH  20  31
ATOM     25  C   UNL     1      -7.916  14.639  22.676  0.00  0.00    +0.000 C 
ATOM     26  C   UNL     1      -7.176  13.637  23.532  0.00  0.00    +0.000 C 
ATOM     27  O   UNL     1      -7.816  12.766  24.129  0.00  0.00    +0.000 OA
ATOM     28  N   UNL     1      -5.783  13.726  23.613  0.00  0.00    +0.000 N 
ATOM     29  C   UNL     1      -5.084  12.613  24.256  0.00  0.00    +0.000 C 
ATOM     30  C   UNL     1      -3.791  13.038  24.946  0.00  0.00    +0.000 C 
ATOM     31  C   UNL     1      -2.811  13.759  24.005  0.00  0.00    +0.000 C 
ATOM     32  C   UNL     1      -3.631  14.955  23.388  0.00  0.00    +0.000 C 
ATOM     33  C   UNL     1      -4.962  14.558  22.732  0.00  0.00    +0.000 C 
ENDBRANCH  20  31
ENDBRANCH   1  22
BRANCH   4  34
ATOM     34  N   UNL     1       1.834  10.296  17.590  0.00  0.00    +0.000 N 
ATOM     35  H   UNL     1       1.522  11.151  17.147  0.00  0.00    +0.000 HD
ATOM     36  H   UNL     1       1.807   9.476  16.991  0.00  0.00    +0.000 HD
ENDBRANCH   4  34
TORSDOF 6
ENDMDL
MODEL 4
REMARK VINA RESULT:      -8.3      2.652      3.632
REMARK  Name = 
REMARK  7 active torsions:
REMARK  status: ('A' for Active; 'I' for Inactive)
REMARK    1  A    between atoms: C_1  and  C_2
REMARK    2  A    between atoms: C_7  and  N_8
REMARK    3  A    between atoms: C_10  and  C_11
REMARK    4  A    between atoms: C_14  and  N_15
REMARK    5  A    between atoms: C_18  and  C_19
REMARK    6  A    between atoms: C_23  and  C_24
REMARK    7  A    between atoms: C_24  and  N_25
REMARK                            x       y       z     vdW  Elec       q    Type
REMARK                         _______ _______ _______ _____ _____    ______ ____
ROOT
ATOM      1  C   UNL     1       0.317  11.359  18.967  0.00  0.00    +0.000 A 
ATOM      2  C   UNL     1       0.847  11.797  20.193  0.00  0.00    +0.000 A 
ATOM      3  N   UNL     1       1.126  11.050  21.295  0.00  0.00    +0.000 NA
ATOM      4  C   UNL     1       1.160   9.713  21.168  0.00  0.00    +0.000 A 
ATOM      5  C   UNL     1       1.185   9.205  19.879  0.00  0.00    +0.000 A 
ATOM      6  O   UNL     1       1.769   8.010  19.603  0.00  0.00    +0.000 OA
ATOM      7  C   UNL     1       2.127   7.969  18.287  0.00  0.00    +0.000 A 
ATOM      8  C   UNL     1       1.484   9.097  17.693  0.00  0.00    +0.000 A 
ATOM      9  C   UNL     1       0.757   9.934  18.757  0.00  0.00    +0.000 A 
ENDROOT
BRANCH   7  10
ATOM     10  C   UNL     1       3.089   6.823  17.984  0.00  0.00    +0.000 A 
ATOM     11  C   UNL     1       2.767   5.452  18.138  0.00  0.00    +0.000 A 
ATOM     12  C   UNL     1       3.698   4.411  17.868  0.00  0.00    +0.000 A 
ATOM     13  C   UNL     1       4.997   4.677  17.431  0.00  0.00    +0.000 A 
ATOM     14  C   UNL     1       5.391   5.997  17.218  0.00  0.00    +0.000 A 
ATOM     15  C   UNL     1       4.437   7.034  17.484  0.00  0.00    +0.000 A 
BRANCH  14  16
ATOM     16  C   UNL     1       6.859   6.225  16.855  0.00  0.00    +0.000 C 
BRANCH  16  17
ATOM     17  N   UNL     1       7.287   5.648  15.585  0.00  0.00    +0.000 NA
ATOM     18  H   UNL     1       6.480   5.600  14.963  0.00  0.00    +0.000 HD
ATOM     19  H   UNL     1       7.552   4.673  15.751  0.00  0.00    +0.000 HD
ENDBRANCH  16  17
ENDBRANCH  14  16
ENDBRANCH   7  10
BRANCH   1  22
ATOM     20  N   UNL     1      -3.174  12.534  19.930  0.00  0.00    +0.000 N 
ATOM     21  C   UNL     1      -1.772  12.746  20.008  0.00  0.00    +0.000 A 
ATOM     22  C   UNL     1      -1.111  12.073  18.949  0.00  0.00    +0.000 A 
ATOM     23  C   UNL     1      -2.276  11.479  18.313  0.00  0.00    +0.000 A 
ATOM     24  N   UNL     1      -3.461  11.781  18.855  0.00  0.00    +0.000 NA
BRANCH  20  31
ATOM     25  C   UNL     1      -3.382  15.852  25.174  0.00  0.00    +0.000 C 
ATOM     26  C   UNL     1      -3.579  16.193  23.715  0.00  0.00    +0.000 C 
ATOM     27  O   UNL     1      -3.543  17.377  23.364  0.00  0.00    +0.000 OA
ATOM     28  N   UNL     1      -3.788  15.152  22.807  0.00  0.00    +0.000 N 
ATOM     29  C   UNL     1      -3.745  15.495  21.385  0.00  0.00    +0.000 C 
ATOM     30  C   UNL     1      -4.639  14.604  20.527  0.00  0.00    +0.000 C 
ATOM     31  C   UNL     1      -4.330  13.105  20.685  0.00  0.00    +0.000 C 
ATOM     32  C   UNL     1      -4.433  12.819  22.231  0.00  0.00    +0.000 C 
ATOM     33  C   UNL     1      -3.581  13.737  23.118  0.00  0.00    +0.000 C 
ENDBRANCH  20  31
ENDBRANCH   1  22
BRANCH   4  34
ATOM     34  N   UNL     1       1.424   8.967  22.309  0.00  0.00    +0.000 N 
ATOM     35  H   UNL     1       0.585   8.947  22.875  0.00  0.00    +0.000 HD
ATOM     36  H   UNL     1       2.247   9.325  22.785  0.00  0.00    +0.000 HD
ENDBRANCH   4  34
TORSDOF 6
ENDMDL
MODEL 5
REMARK VINA RESULT:      -8.3      2.030      2.687
REMARK  Name = 
REMARK  7 active torsions:
REMARK  status: ('A' for Active; 'I' for Inactive)
REMARK    1  A    between atoms: C_1  and  C_2
REMARK    2  A    between atoms: C_7  and  N_8
REMARK    3  A    between atoms: C_10  and  C_11
REMARK    4  A    between atoms: C_14  and  N_15
REMARK    5  A    between atoms: C_18  and  C_19
REMARK    6  A    between atoms: C_23  and  C_24
REMARK    7  A    between atoms: C_24  and  N_25
REMARK                            x       y       z     vdW  Elec       q    Type
REMARK                         _______ _______ _______ _____ _____    ______ ____
ROOT
ATOM      1  C   UNL     1       0.675  11.335  19.158  0.00  0.00    +0.000 A 
ATOM      2  C   UNL     1       1.062  11.596  20.484  0.00  0.00    +0.000 A 
ATOM      3  N   UNL     1       1.157  10.712  21.513  0.00  0.00    +0.000 NA
ATOM      4  C   UNL     1       1.140   9.399  21.231  0.00  0.00    +0.000 A 
ATOM      5  C   UNL     1       1.306   9.039  19.904  0.00  0.00    +0.000 A 
ATOM      6  O   UNL     1       1.860   7.847  19.559  0.00  0.00    +0.000 OA
ATOM      7  C   UNL     1       2.383   7.932  18.301  0.00  0.00    +0.000 A 
ATOM      8  C   UNL     1       1.880   9.159  17.773  0.00  0.00    +0.000 A 
ATOM      9  C   UNL     1       1.065   9.917  18.833  0.00  0.00    +0.000 A 
ENDROOT
BRANCH   7  10
ATOM     10  C   UNL     1       3.317   6.767  17.984  0.00  0.00    +0.000 A 
ATOM     11  C   UNL     1       4.346   6.816  17.011  0.00  0.00    +0.000 A 
ATOM     12  C   UNL     1       5.184   5.702  16.726  0.00  0.00    +0.000 A 
ATOM     13  C   UNL     1       5.044   4.483  17.392  0.00  0.00    +0.000 A 
ATOM     14  C   UNL     1       4.081   4.355  18.392  0.00  0.00    +0.000 A 
ATOM     15  C   UNL     1       3.252   5.490  18.674  0.00  0.00    +0.000 A 
BRANCH  14  16
ATOM     16  C   UNL     1       3.901   2.962  18.998  0.00  0.00    +0.000 C 
BRANCH  16  17
ATOM     17  N   UNL     1       3.860   1.863  18.040  0.00  0.00    +0.000 NA
ATOM     18  H   UNL     1       2.966   1.380  18.139  0.00  0.00    +0.000 HD
ATOM     19  H   UNL     1       4.565   1.174  18.314  0.00  0.00    +0.000 HD
ENDBRANCH  16  17
ENDBRANCH  14  16
ENDBRANCH   7  10
BRANCH   1  22
ATOM     20  N   UNL     1      -2.581  13.105  20.032  0.00  0.00    +0.000 N 
ATOM     21  C   UNL     1      -1.172  13.192  19.875  0.00  0.00    +0.000 A 
ATOM     22  C   UNL     1      -0.701  12.138  19.051  0.00  0.00    +0.000 A 
ATOM     23  C   UNL     1      -1.973  11.481  18.795  0.00  0.00    +0.000 A 
ATOM     24  N   UNL     1      -3.054  12.065  19.325  0.00  0.00    +0.000 NA
BRANCH  20  31
ATOM     25  C   UNL     1      -7.916  11.860  22.953  0.00  0.00    +0.000 C 
ATOM     26  C   UNL     1      -6.550  12.305  23.421  0.00  0.00    +0.000 C 
ATOM     27  O   UNL     1      -6.260  12.202  24.618  0.00  0.00    +0.000 OA
ATOM     28  N   UNL     1      -5.653  12.814  22.479  0.00  0.00    +0.000 N 
ATOM     29  C   UNL     1      -4.273  13.018  22.920  0.00  0.00    +0.000 C 
ATOM     30  C   UNL     1      -3.576  14.166  22.194  0.00  0.00    +0.000 C 
ATOM     31  C   UNL     1      -3.588  14.010  20.663  0.00  0.00    +0.000 C 
ATOM     32  C   UNL     1      -5.105  13.832  20.275  0.00  0.00    +0.000 C 
ATOM     33  C   UNL     1      -5.841  12.716  21.030  0.00  0.00    +0.000 C 
ENDBRANCH  20  31
ENDBRANCH   1  22
BRANCH   4  34
ATOM     34  N   UNL     1       1.216   8.512  22.297  0.00  0.00    +0.000 N 
ATOM     35  H   UNL     1       0.511   7.797  22.164  0.00  0.00    +0.000 HD
ATOM     36  H   UNL     1       1.151   9.011  23.180  0.00  0.00    +0.000 HD
ENDBRANCH   4  34
TORSDOF 6
ENDMDL
MODEL 6
REMARK VINA RESULT:      -8.3      2.786     11.266
REMARK  Name = 
REMARK  7 active torsions:
REMARK  status: ('A' for Active; 'I' for Inactive)
REMARK    1  A    between atoms: C_1  and  C_2
REMARK    2  A    between atoms: C_7  and  N_8
REMARK    3  A    between atoms: C_10  and  C_11
REMARK    4  A    between atoms: C_14  and  N_15
REMARK    5  A    between atoms: C_18  and  C_19
REMARK    6  A    between atoms: C_23  and  C_24
REMARK    7  A    between atoms: C_24  and  N_25
REMARK                            x       y       z     vdW  Elec       q    Type
REMARK                         _______ _______ _______ _____ _____    ______ ____
ROOT
ATOM      1  C   UNL     1       1.193   9.959  19.954  0.00  0.00    +0.000 A 
ATOM      2  C   UNL     1       1.458  10.855  18.904  0.00  0.00    +0.000 A 
ATOM      3  N   UNL     1       0.573  11.645  18.238  0.00  0.00    +0.000 NA
ATOM      4  C   UNL     1      -0.649  11.820  18.766  0.00  0.00    +0.000 A 
ATOM      5  C   UNL     1      -0.830  11.415  20.079  0.00  0.00    +0.000 A 
ATOM      6  O   UNL     1      -1.750  12.011  20.882  0.00  0.00    +0.000 OA
ATOM      7  C   UNL     1      -1.402  11.831  22.189  0.00  0.00    +0.000 A 
ATOM      8  C   UNL     1      -0.363  10.853  22.164  0.00  0.00    +0.000 A 
ATOM      9  C   UNL     1       0.006  10.484  20.718  0.00  0.00    +0.000 A 
ENDROOT
BRANCH   7  10
ATOM     10  C   UNL     1      -2.176  12.755  23.126  0.00  0.00    +0.000 A 
ATOM     11  C   UNL     1      -3.563  12.640  23.389  0.00  0.00    +0.000 A 
ATOM     12  C   UNL     1      -4.257  13.534  24.252  0.00  0.00    +0.000 A 
ATOM     13  C   UNL     1      -3.609  14.589  24.897  0.00  0.00    +0.000 A 
ATOM     14  C   UNL     1      -2.235  14.757  24.725  0.00  0.00    +0.000 A 
ATOM     15  C   UNL     1      -1.549  13.841  23.861  0.00  0.00    +0.000 A 
BRANCH  14  16
ATOM     16  C   UNL     1      -1.610  15.998  25.364  0.00  0.00    +0.000 C 
BRANCH  16  17
ATOM     17  N   UNL     1      -1.039  15.798  26.691  0.00  0.00    +0.000 NA
ATOM     18  H   UNL     1      -1.656  16.232  27.378  0.00  0.00    +0.000 HD
ATOM     19  H   UNL     1      -0.166  16.331  26.746  0.00  0.00    +0.000 HD
ENDBRANCH  16  17
ENDBRANCH  14  16
ENDBRANCH   7  10
BRANCH   1  22
ATOM     20  N   UNL     1       2.894   6.691  18.994  0.00  0.00    +0.000 N 
ATOM     21  C   UNL     1       2.032   7.377  19.889  0.00  0.00    +0.000 A 
ATOM     22  C   UNL     1       1.517   8.550  19.278  0.00  0.00    +0.000 A 
ATOM     23  C   UNL     1       2.187   8.433  17.993  0.00  0.00    +0.000 A 
ATOM     24  N   UNL     1       2.943   7.342  17.820  0.00  0.00    +0.000 NA
BRANCH  20  31
ATOM     25  C   UNL     1       6.358   3.671  14.818  0.00  0.00    +0.000 C 
ATOM     26  C   UNL     1       6.675   4.412  16.097  0.00  0.00    +0.000 C 
ATOM     27  O   UNL     1       7.842   4.748  16.324  0.00  0.00    +0.000 OA
ATOM     28  N   UNL     1       5.631   4.701  16.980  0.00  0.00    +0.000 N 
ATOM     29  C   UNL     1       5.931   5.613  18.085  0.00  0.00    +0.000 C 
ATOM     30  C   UNL     1       5.094   5.337  19.331  0.00  0.00    +0.000 C 
ATOM     31  C   UNL     1       3.580   5.366  19.062  0.00  0.00    +0.000 C 
ATOM     32  C   UNL     1       3.345   4.338  17.892  0.00  0.00    +0.000 C 
ATOM     33  C   UNL     1       4.212   4.565  16.646  0.00  0.00    +0.000 C 
ENDBRANCH  20  31
ENDBRANCH   1  22
BRANCH   4  34
ATOM     34  N   UNL     1      -1.546  12.612  18.061  0.00  0.00    +0.000 N 
ATOM     35  H   UNL     1      -2.213  12.996  18.720  0.00  0.00    +0.000 HD
ATOM     36  H   UNL     1      -1.961  12.086  17.298  0.00  0.00    +0.000 HD
ENDBRANCH   4  34
TORSDOF 6
ENDMDL
MODEL 7
REMARK VINA RESULT:      -8.3      2.872     11.448
REMARK  Name = 
REMARK  7 active torsions:
REMARK  status: ('A' for Active; 'I' for Inactive)
REMARK    1  A    between atoms: C_1  and  C_2
REMARK    2  A    between atoms: C_7  and  N_8
REMARK    3  A    between atoms: C_10  and  C_11
REMARK    4  A    between atoms: C_14  and  N_15
REMARK    5  A    between atoms: C_18  and  C_19
REMARK    6  A    between atoms: C_23  and  C_24
REMARK    7  A    between atoms: C_24  and  N_25
REMARK                            x       y       z     vdW  Elec       q    Type
REMARK                         _______ _______ _______ _____ _____    ______ ____
ROOT
ATOM      1  C   UNL     1       1.929   8.612  19.820  0.00  0.00    +0.000 A 
ATOM      2  C   UNL     1       2.009   9.214  18.553  0.00  0.00    +0.000 A 
ATOM      3  N   UNL     1       0.998   9.760  17.824  0.00  0.00    +0.000 NA
ATOM      4  C   UNL     1      -0.170  10.008  18.439  0.00  0.00    +0.000 A 
ATOM      5  C   UNL     1      -0.176   9.952  19.823  0.00  0.00    +0.000 A 
ATOM      6  O   UNL     1      -1.047  10.692  20.557  0.00  0.00    +0.000 OA
ATOM      7  C   UNL     1      -0.548  10.876  21.813  0.00  0.00    +0.000 A 
ATOM      8  C   UNL     1       0.556   9.975  21.908  0.00  0.00    +0.000 A 
ATOM      9  C   UNL     1       0.794   9.261  20.569  0.00  0.00    +0.000 A 
ENDROOT
BRANCH   7  10
ATOM     10  C   UNL     1      -1.285  11.975  22.574  0.00  0.00    +0.000 A 
ATOM     11  C   UNL     1      -0.813  13.303  22.710  0.00  0.00    +0.000 A 
ATOM     12  C   UNL     1      -1.517  14.296  23.447  0.00  0.00    +0.000 A 
ATOM     13  C   UNL     1      -2.727  14.021  24.087  0.00  0.00    +0.000 A 
ATOM     14  C   UNL     1      -3.287  12.749  23.976  0.00  0.00    +0.000 A 
ATOM     15  C   UNL     1      -2.569  11.762  23.221  0.00  0.00    +0.000 A 
BRANCH  14  16
ATOM     16  C   UNL     1      -4.549  12.480  24.796  0.00  0.00    +0.000 C 
BRANCH  16  17
ATOM     17  N   UNL     1      -5.746  12.176  24.021  0.00  0.00    +0.000 NA
ATOM     18  H   UNL     1      -6.530  12.694  24.417  0.00  0.00    +0.000 HD
ATOM     19  H   UNL     1      -5.980  11.190  24.168  0.00  0.00    +0.000 HD
ENDBRANCH  16  17
ENDBRANCH  14  16
ENDBRANCH   7  10
BRANCH   1  22
ATOM     20  N   UNL     1       3.676   5.485  18.529  0.00  0.00    +0.000 N 
ATOM     21  C   UNL     1       3.549   6.447  19.565  0.00  0.00    +0.000 A 
ATOM     22  C   UNL     1       2.287   7.092  19.489  0.00  0.00    +0.000 A 
ATOM     23  C   UNL     1       1.764   6.400  18.322  0.00  0.00    +0.000 A 
ATOM     24  N   UNL     1       2.548   5.449  17.800  0.00  0.00    +0.000 NA
BRANCH  20  31
ATOM     25  C   UNL     1       6.448   3.915  13.199  0.00  0.00    +0.000 C 
ATOM     26  C   UNL     1       6.903   4.666  14.430  0.00  0.00    +0.000 C 
ATOM     27  O   UNL     1       7.930   5.350  14.372  0.00  0.00    +0.000 OA
ATOM     28  N   UNL     1       6.137   4.567  15.595  0.00  0.00    +0.000 N 
ATOM     29  C   UNL     1       6.473   5.480  16.688  0.00  0.00    +0.000 C 
ATOM     30  C   UNL     1       6.172   4.898  18.067  0.00  0.00    +0.000 C 
ATOM     31  C   UNL     1       4.709   4.449  18.228  0.00  0.00    +0.000 C 
ATOM     32  C   UNL     1       4.447   3.449  17.039  0.00  0.00    +0.000 C 
ATOM     33  C   UNL     1       4.791   3.994  15.646  0.00  0.00    +0.000 C 
ENDBRANCH  20  31
ENDBRANCH   1  22
BRANCH   4  34
ATOM     34  N   UNL     1      -1.197  10.545  17.674  0.00  0.00    +0.000 N 
ATOM     35  H   UNL     1      -1.013  11.533  17.547  0.00  0.00    +0.000 HD
ATOM     36  H   UNL     1      -2.099  10.334  18.091  0.00  0.00    +0.000 HD
ENDBRANCH   4  34
TORSDOF 6
ENDMDL
MODEL 8
REMARK VINA RESULT:      -8.3      2.320      3.096
REMARK  Name = 
REMARK  7 active torsions:
REMARK  status: ('A' for Active; 'I' for Inactive)
REMARK    1  A    between atoms: C_1  and  C_2
REMARK    2  A    between atoms: C_7  and  N_8
REMARK    3  A    between atoms: C_10  and  C_11
REMARK    4  A    between atoms: C_14  and  N_15
REMARK    5  A    between atoms: C_18  and  C_19
REMARK    6  A    between atoms: C_23  and  C_24
REMARK    7  A    between atoms: C_24  and  N_25
REMARK                            x       y       z     vdW  Elec       q    Type
REMARK                         _______ _______ _______ _____ _____    ______ ____
ROOT
ATOM      1  C   UNL     1       0.613  11.387  19.142  0.00  0.00    +0.000 A 
ATOM      2  C   UNL     1       1.114  11.756  20.403  0.00  0.00    +0.000 A 
ATOM      3  N   UNL     1       1.284  10.965  21.496  0.00  0.00    +0.000 NA
ATOM      4  C   UNL     1       1.228   9.633  21.336  0.00  0.00    +0.000 A 
ATOM      5  C   UNL     1       1.277   9.154  20.037  0.00  0.00    +0.000 A 
ATOM      6  O   UNL     1       1.785   7.926  19.755  0.00  0.00    +0.000 OA
ATOM      7  C   UNL     1       2.202   7.888  18.457  0.00  0.00    +0.000 A 
ATOM      8  C   UNL     1       1.672   9.074  17.864  0.00  0.00    +0.000 A 
ATOM      9  C   UNL     1       0.958   9.938  18.915  0.00  0.00    +0.000 A 
ENDROOT
BRANCH   7  10
ATOM     10  C   UNL     1       3.092   6.682  18.169  0.00  0.00    +0.000 A 
ATOM     11  C   UNL     1       2.964   5.428  18.814  0.00  0.00    +0.000 A 
ATOM     12  C   UNL     1       3.827   4.331  18.536  0.00  0.00    +0.000 A 
ATOM     13  C   UNL     1       4.862   4.424  17.603  0.00  0.00    +0.000 A 
ATOM     14  C   UNL     1       5.039   5.610  16.893  0.00  0.00    +0.000 A 
ATOM     15  C   UNL     1       4.154   6.702  17.177  0.00  0.00    +0.000 A 
BRANCH  14  16
ATOM     16  C   UNL     1       6.260   5.685  15.975  0.00  0.00    +0.000 C 
BRANCH  16  17
ATOM     17  N   UNL     1       7.396   6.431  16.503  0.00  0.00    +0.000 NA
ATOM     18  H   UNL     1       8.075   6.562  15.753  0.00  0.00    +0.000 HD
ATOM     19  H   UNL     1       7.873   5.842  17.191  0.00  0.00    +0.000 HD
ENDBRANCH  16  17
ENDBRANCH  14  16
ENDBRANCH   7  10
BRANCH   1  22
ATOM     20  N   UNL     1      -2.614  13.159  20.113  0.00  0.00    +0.000 N 
ATOM     21  C   UNL     1      -1.207  13.238  19.939  0.00  0.00    +0.000 A 
ATOM     22  C   UNL     1      -0.757  12.204  19.078  0.00  0.00    +0.000 A 
ATOM     23  C   UNL     1      -2.038  11.566  18.821  0.00  0.00    +0.000 A 
ATOM     24  N   UNL     1      -3.106  12.143  19.383  0.00  0.00    +0.000 NA
BRANCH  20  31
ATOM     25  C   UNL     1      -7.915  11.873  23.079  0.00  0.00    +0.000 C 
ATOM     26  C   UNL     1      -6.539  12.295  23.538  0.00  0.00    +0.000 C 
ATOM     27  O   UNL     1      -6.232  12.156  24.727  0.00  0.00    +0.000 OA
ATOM     28  N   UNL     1      -5.652  12.823  22.596  0.00  0.00    +0.000 N 
ATOM     29  C   UNL     1      -4.264  13.004  23.022  0.00  0.00    +0.000 C 
ATOM     30  C   UNL     1      -3.568  14.166  22.317  0.00  0.00    +0.000 C 
ATOM     31  C   UNL     1      -3.605  14.053  20.783  0.00  0.00    +0.000 C 
ATOM     32  C   UNL     1      -5.128  13.897  20.414  0.00  0.00    +0.000 C 
ATOM     33  C   UNL     1      -5.862  12.767  21.149  0.00  0.00    +0.000 C 
ENDBRANCH  20  31
ENDBRANCH   1  22
BRANCH   4  34
ATOM     34  N   UNL     1       1.382   8.842  22.467  0.00  0.00    +0.000 N 
ATOM     35  H   UNL     1       0.513   8.862  22.987  0.00  0.00    +0.000 HD
ATOM     36  H   UNL     1       2.198   9.135  22.996  0.00  0.00    +0.000 HD
ENDBRANCH   4  34
TORSDOF 6
ENDMDL
MODEL 9
REMARK VINA RESULT:      -8.2      2.771      3.470
REMARK  Name = 
REMARK  7 active torsions:
REMARK  status: ('A' for Active; 'I' for Inactive)
REMARK    1  A    between atoms: C_1  and  C_2
REMARK    2  A    between atoms: C_7  and  N_8
REMARK    3  A    between atoms: C_10  and  C_11
REMARK    4  A    between atoms: C_14  and  N_15
REMARK    5  A    between atoms: C_18  and  C_19
REMARK    6  A    between atoms: C_23  and  C_24
REMARK    7  A    between atoms: C_24  and  N_25
REMARK                            x       y       z     vdW  Elec       q    Type
REMARK                         _______ _______ _______ _____ _____    ______ ____
ROOT
ATOM      1  C   UNL     1       0.211  11.398  19.030  0.00  0.00    +0.000 A 
ATOM      2  C   UNL     1       0.703  11.855  20.265  0.00  0.00    +0.000 A 
ATOM      3  N   UNL     1       0.987  11.119  21.373  0.00  0.00    +0.000 NA
ATOM      4  C   UNL     1       1.069   9.784  21.249  0.00  0.00    +0.000 A 
ATOM      5  C   UNL     1       1.135   9.276  19.962  0.00  0.00    +0.000 A 
ATOM      6  O   UNL     1       1.764   8.101  19.698  0.00  0.00    +0.000 OA
ATOM      7  C   UNL     1       2.147   8.071  18.389  0.00  0.00    +0.000 A 
ATOM      8  C   UNL     1       1.477   9.175  17.781  0.00  0.00    +0.000 A 
ATOM      9  C   UNL     1       0.703   9.988  18.831  0.00  0.00    +0.000 A 
ENDROOT
BRANCH   7  10
ATOM     10  C   UNL     1       3.154   6.958  18.106  0.00  0.00    +0.000 A 
ATOM     11  C   UNL     1       4.263   7.092  17.235  0.00  0.00    +0.000 A 
ATOM     12  C   UNL     1       5.169   6.025  16.978  0.00  0.00    +0.000 A 
ATOM     13  C   UNL     1       5.020   4.771  17.572  0.00  0.00    +0.000 A 
ATOM     14  C   UNL     1       3.977   4.559  18.473  0.00  0.00    +0.000 A 
ATOM     15  C   UNL     1       3.079   5.648  18.729  0.00  0.00    +0.000 A 
BRANCH  14  16
ATOM     16  C   UNL     1       3.801   3.132  18.996  0.00  0.00    +0.000 C 
BRANCH  16  17
ATOM     17  N   UNL     1       5.000   2.518  19.553  0.00  0.00    +0.000 NA
ATOM     18  H   UNL     1       5.796   2.772  18.968  0.00  0.00    +0.000 HD
ATOM     19  H   UNL     1       4.913   1.502  19.456  0.00  0.00    +0.000 HD
ENDBRANCH  16  17
ENDBRANCH  14  16
ENDBRANCH   7  10
BRANCH   1  22
ATOM     20  N   UNL     1      -3.455  12.177  19.703  0.00  0.00    +0.000 N 
ATOM     21  C   UNL     1      -2.098  12.378  20.070  0.00  0.00    +0.000 A 
ATOM     22  C   UNL     1      -1.240  12.062  18.985  0.00  0.00    +0.000 A 
ATOM     23  C   UNL     1      -2.253  11.667  18.020  0.00  0.00    +0.000 A 
ATOM     24  N   UNL     1      -3.525  11.775  18.423  0.00  0.00    +0.000 NA
BRANCH  20  31
ATOM     25  C   UNL     1      -6.960  17.302  19.728  0.00  0.00    +0.000 C 
ATOM     26  C   UNL     1      -7.099  15.947  19.075  0.00  0.00    +0.000 C 
ATOM     27  O   UNL     1      -7.908  15.803  18.153  0.00  0.00    +0.000 OA
ATOM     28  N   UNL     1      -6.297  14.898  19.532  0.00  0.00    +0.000 N 
ATOM     29  C   UNL     1      -6.290  13.672  18.734  0.00  0.00    +0.000 C 
ATOM     30  C   UNL     1      -6.046  12.416  19.567  0.00  0.00    +0.000 C 
ATOM     31  C   UNL     1      -4.747  12.479  20.389  0.00  0.00    +0.000 C 
ATOM     32  C   UNL     1      -4.855  13.801  21.239  0.00  0.00    +0.000 C 
ATOM     33  C   UNL     1      -5.151  15.071  20.428  0.00  0.00    +0.000 C 
ENDBRANCH  20  31
ENDBRANCH   1  22
BRANCH   4  34
ATOM     34  N   UNL     1       1.338   9.048  22.396  0.00  0.00    +0.000 N 
ATOM     35  H   UNL     1       1.399   9.691  23.176  0.00  0.00    +0.000 HD
ATOM     36  H   UNL     1       2.161   8.469  22.261  0.00  0.00    +0.000 HD
ENDBRANCH   4  34
TORSDOF 6
ENDMDL
