MODEL 1
REMARK VINA RESULT:      -9.6      0.000      0.000
REMARK  Name = 
REMARK  2 active torsions:
REMARK  status: ('A' for Active; 'I' for Inactive)
REMARK    1  A    between atoms: N_3  and  C_4
REMARK    2  A    between atoms: C_7  and  C_8
REMARK                            x       y       z     vdW  Elec       q    Type
REMARK                         _______ _______ _______ _____ _____    ______ ____
ROOT
ATOM      1  C   UNL     1       8.477   8.889  18.355  0.00  0.00    +0.000 A 
ATOM      2  C   UNL     1       8.711   7.781  19.173  0.00  0.00    +0.000 A 
ATOM      3  C   UNL     1       8.085   6.562  18.906  0.00  0.00    +0.000 A 
ATOM      4  C   UNL     1       7.198   6.445  17.830  0.00  0.00    +0.000 A 
ATOM      5  C   UNL     1       6.893   7.581  17.074  0.00  0.00    +0.000 A 
ATOM      6  C   UNL     1       7.559   8.781  17.306  0.00  0.00    +0.000 A 
ENDROOT
BRANCH   4   7
ATOM      7  C   UNL     1       6.507   5.149  17.609  0.00  0.00    +0.000 C 
ATOM      8  O   UNL     1       7.201   4.212  17.211  0.00  0.00    +0.000 OA
ATOM      9  N   UNL     1       5.147   5.009  17.882  0.00  0.00    +0.000 N 
ATOM     10  C   UNL     1       4.608   3.660  17.954  0.00  0.00    +0.000 C 
ATOM     11  C   UNL     1       3.966   3.455  19.322  0.00  0.00    +0.000 C 
ATOM     12  C   UNL     1       2.860   4.503  19.633  0.00  0.00    +0.000 C 
ATOM     13  C   UNL     1       1.606   4.312  18.749  0.00  0.00    +0.000 C 
ATOM     14  C   UNL     1       0.874   3.004  19.046  0.00  0.00    +0.000 C 
ATOM     15  N   UNL     1       0.500   2.910  20.455  0.00  0.00    +0.000 NA
ATOM     16  C   UNL     1       1.646   3.048  21.352  0.00  0.00    +0.000 C 
ATOM     17  C   UNL     1       2.408   4.354  21.106  0.00  0.00    +0.000 C 
ATOM     18  C   UNL     1       3.444   5.925  19.406  0.00  0.00    +0.000 C 
ATOM     19  C   UNL     1       4.146   6.064  18.048  0.00  0.00    +0.000 C 
ATOM     20  H   UNL     1       0.049   2.010  20.621  0.00  0.00    +0.000 HD
ENDBRANCH   4   7
BRANCH   1  23
ATOM     21  O   UNL     1       9.133  10.339  20.839  0.00  0.00    +0.000 OA
ATOM     22  C   UNL     1       9.278  10.816  19.717  0.00  0.00    +0.000 C 
ATOM     23  N   UNL     1       9.066  10.136  18.534  0.00  0.00    +0.000 N 
ATOM     24  N   UNL     1       9.690  12.116  19.537  0.00  0.00    +0.000 N 
ATOM     25  C   UNL     1       9.726  12.844  18.269  0.00  0.00    +0.000 C 
ATOM     26  C   UNL     1       9.916  14.258  18.693  0.00  0.00    +0.000 A 
ATOM     27  C   UNL     1       9.856  15.407  17.922  0.00  0.00    +0.000 A 
ATOM     28  C   UNL     1      10.184  16.615  18.531  0.00  0.00    +0.000 A 
ATOM     29  C   UNL     1      10.611  16.649  19.870  0.00  0.00    +0.000 A 
ATOM     30  C   UNL     1      10.609  15.492  20.653  0.00  0.00    +0.000 A 
ATOM     31  C   UNL     1      10.202  14.314  20.060  0.00  0.00    +0.000 A 
ATOM     32  C   UNL     1       9.898  12.986  20.680  0.00  0.00    +0.000 C 
ATOM     33  H   UNL     1       9.465  10.558  17.716  0.00  0.00    +0.000 HD
ENDBRANCH   1  23
TORSDOF 2
ENDMDL
MODEL 2
REMARK VINA RESULT:      -8.9      1.295      1.589
REMARK  Name = 
REMARK  2 active torsions:
REMARK  status: ('A' for Active; 'I' for Inactive)
REMARK    1  A    between atoms: N_3  and  C_4
REMARK    2  A    between atoms: C_7  and  C_8
REMARK                            x       y       z     vdW  Elec       q    Type
REMARK                         _______ _______ _______ _____ _____    ______ ____
ROOT
ATOM      1  C   UNL     1       8.522   9.557  18.506  0.00  0.00    +0.000 A 
ATOM      2  C   UNL     1       8.886   8.449  19.274  0.00  0.00    +0.000 A 
ATOM      3  C   UNL     1       8.409   7.178  18.950  0.00  0.00    +0.000 A 
ATOM      4  C   UNL     1       7.540   7.005  17.867  0.00  0.00    +0.000 A 
ATOM      5  C   UNL     1       7.102   8.130  17.161  0.00  0.00    +0.000 A 
ATOM      6  C   UNL     1       7.621   9.389  17.450  0.00  0.00    +0.000 A 
ENDROOT
BRANCH   4   7
ATOM      7  C   UNL     1       7.008   5.648  17.585  0.00  0.00    +0.000 C 
ATOM      8  O   UNL     1       7.833   4.772  17.319  0.00  0.00    +0.000 OA
ATOM      9  N   UNL     1       5.640   5.387  17.659  0.00  0.00    +0.000 N 
ATOM     10  C   UNL     1       5.218   3.995  17.691  0.00  0.00    +0.000 C 
ATOM     11  C   UNL     1       4.402   3.753  18.955  0.00  0.00    +0.000 C 
ATOM     12  C   UNL     1       3.173   4.700  19.071  0.00  0.00    +0.000 C 
ATOM     13  C   UNL     1       2.086   4.380  18.019  0.00  0.00    +0.000 C 
ATOM     14  C   UNL     1       1.437   3.015  18.244  0.00  0.00    +0.000 C 
ATOM     15  N   UNL     1       0.868   2.909  19.585  0.00  0.00    +0.000 NA
ATOM     16  C   UNL     1       1.851   3.166  20.635  0.00  0.00    +0.000 C 
ATOM     17  C   UNL     1       2.522   4.533  20.466  0.00  0.00    +0.000 C 
ATOM     18  C   UNL     1       3.655   6.166  18.891  0.00  0.00    +0.000 C 
ATOM     19  C   UNL     1       4.536   6.348  17.647  0.00  0.00    +0.000 C 
ATOM     20  H   UNL     1       0.480   1.974  19.709  0.00  0.00    +0.000 HD
ENDBRANCH   4   7
BRANCH   1  23
ATOM     21  O   UNL     1      10.873  10.991  17.450  0.00  0.00    +0.000 OA
ATOM     22  C   UNL     1      10.116  11.461  18.293  0.00  0.00    +0.000 C 
ATOM     23  N   UNL     1       8.959  10.856  18.744  0.00  0.00    +0.000 N 
ATOM     24  N   UNL     1      10.359  12.683  18.878  0.00  0.00    +0.000 N 
ATOM     25  C   UNL     1       9.635  13.259  20.010  0.00  0.00    +0.000 C 
ATOM     26  C   UNL     1      10.505  14.393  20.429  0.00  0.00    +0.000 A 
ATOM     27  C   UNL     1      10.401  15.191  21.556  0.00  0.00    +0.000 A 
ATOM     28  C   UNL     1      11.274  16.268  21.670  0.00  0.00    +0.000 A 
ATOM     29  C   UNL     1      12.192  16.559  20.645  0.00  0.00    +0.000 A 
ATOM     30  C   UNL     1      12.327  15.711  19.543  0.00  0.00    +0.000 A 
ATOM     31  C   UNL     1      11.511  14.599  19.482  0.00  0.00    +0.000 A 
ATOM     32  C   UNL     1      11.567  13.422  18.559  0.00  0.00    +0.000 C 
ATOM     33  H   UNL     1       8.318  11.456  19.228  0.00  0.00    +0.000 HD
ENDBRANCH   1  23
TORSDOF 2
ENDMDL
MODEL 3
REMARK VINA RESULT:      -8.8      6.616      8.572
REMARK  Name = 
REMARK  2 active torsions:
REMARK  status: ('A' for Active; 'I' for Inactive)
REMARK    1  A    between atoms: N_3  and  C_4
REMARK    2  A    between atoms: C_7  and  C_8
REMARK                            x       y       z     vdW  Elec       q    Type
REMARK                         _______ _______ _______ _____ _____    ______ ____
ROOT
ATOM      1  C   UNL     1       0.661  10.002  19.737  0.00  0.00    +0.000 A 
ATOM      2  C   UNL     1       1.058  10.203  18.413  0.00  0.00    +0.000 A 
ATOM      3  C   UNL     1       1.873   9.270  17.771  0.00  0.00    +0.000 A 
ATOM      4  C   UNL     1       2.321   8.135  18.456  0.00  0.00    +0.000 A 
ATOM      5  C   UNL     1       2.001   7.987  19.809  0.00  0.00    +0.000 A 
ATOM      6  C   UNL     1       1.143   8.889  20.432  0.00  0.00    +0.000 A 
ENDROOT
BRANCH   4   7
ATOM      7  C   UNL     1       3.232   7.192  17.759  0.00  0.00    +0.000 C 
ATOM      8  O   UNL     1       4.163   7.687  17.122  0.00  0.00    +0.000 OA
ATOM      9  N   UNL     1       3.050   5.813  17.865  0.00  0.00    +0.000 N 
ATOM     10  C   UNL     1       4.142   4.952  17.437  0.00  0.00    +0.000 C 
ATOM     11  C   UNL     1       4.557   4.062  18.603  0.00  0.00    +0.000 C 
ATOM     12  C   UNL     1       3.380   3.215  19.165  0.00  0.00    +0.000 C 
ATOM     13  C   UNL     1       2.924   2.116  18.176  0.00  0.00    +0.000 C 
ATOM     14  C   UNL     1       3.991   1.045  17.958  0.00  0.00    +0.000 C 
ATOM     15  N   UNL     1       4.396   0.430  19.220  0.00  0.00    +0.000 NA
ATOM     16  C   UNL     1       4.872   1.410  20.195  0.00  0.00    +0.000 C 
ATOM     17  C   UNL     1       3.831   2.501  20.463  0.00  0.00    +0.000 C 
ATOM     18  C   UNL     1       2.188   4.162  19.475  0.00  0.00    +0.000 C 
ATOM     19  C   UNL     1       1.853   5.092  18.301  0.00  0.00    +0.000 C 
ATOM     20  H   UNL     1       5.133  -0.250  19.038  0.00  0.00    +0.000 HD
ENDBRANCH   4   7
BRANCH   1  23
ATOM     21  O   UNL     1       1.312  12.521  21.127  0.00  0.00    +0.000 OA
ATOM     22  C   UNL     1       0.203  11.996  21.160  0.00  0.00    +0.000 C 
ATOM     23  N   UNL     1      -0.160  10.868  20.451  0.00  0.00    +0.000 N 
ATOM     24  N   UNL     1      -0.815  12.513  21.929  0.00  0.00    +0.000 N 
ATOM     25  C   UNL     1      -2.109  11.882  22.187  0.00  0.00    +0.000 C 
ATOM     26  C   UNL     1      -2.660  12.684  23.314  0.00  0.00    +0.000 A 
ATOM     27  C   UNL     1      -3.787  12.437  24.080  0.00  0.00    +0.000 A 
ATOM     28  C   UNL     1      -4.163  13.402  25.010  0.00  0.00    +0.000 A 
ATOM     29  C   UNL     1      -3.446  14.607  25.121  0.00  0.00    +0.000 A 
ATOM     30  C   UNL     1      -2.277  14.817  24.386  0.00  0.00    +0.000 A 
ATOM     31  C   UNL     1      -1.868  13.816  23.527  0.00  0.00    +0.000 A 
ATOM     32  C   UNL     1      -0.579  13.663  22.783  0.00  0.00    +0.000 C 
ATOM     33  H   UNL     1      -1.147  10.706  20.373  0.00  0.00    +0.000 HD
ENDBRANCH   1  23
TORSDOF 2
ENDMDL
MODEL 4
REMARK VINA RESULT:      -8.6      6.853      9.218
REMARK  Name = 
REMARK  2 active torsions:
REMARK  status: ('A' for Active; 'I' for Inactive)
REMARK    1  A    between atoms: N_3  and  C_4
REMARK    2  A    between atoms: C_7  and  C_8
REMARK                            x       y       z     vdW  Elec       q    Type
REMARK                         _______ _______ _______ _____ _____    ______ ____
ROOT
ATOM      1  C   UNL     1       0.383  10.016  19.856  0.00  0.00    +0.000 A 
ATOM      2  C   UNL     1       0.992   8.953  20.528  0.00  0.00    +0.000 A 
ATOM      3  C   UNL     1       1.920   8.142  19.874  0.00  0.00    +0.000 A 
ATOM      4  C   UNL     1       2.230   8.370  18.528  0.00  0.00    +0.000 A 
ATOM      5  C   UNL     1       1.547   9.372  17.833  0.00  0.00    +0.000 A 
ATOM      6  C   UNL     1       0.664  10.215  18.501  0.00  0.00    +0.000 A 
ENDROOT
BRANCH   4   7
ATOM      7  C   UNL     1       3.180   7.452  17.847  0.00  0.00    +0.000 C 
ATOM      8  O   UNL     1       4.149   7.971  17.290  0.00  0.00    +0.000 OA
ATOM      9  N   UNL     1       2.987   6.072  17.881  0.00  0.00    +0.000 N 
ATOM     10  C   UNL     1       4.101   5.225  17.483  0.00  0.00    +0.000 C 
ATOM     11  C   UNL     1       4.442   4.282  18.632  0.00  0.00    +0.000 C 
ATOM     12  C   UNL     1       3.231   3.417  19.083  0.00  0.00    +0.000 C 
ATOM     13  C   UNL     1       2.833   2.366  18.021  0.00  0.00    +0.000 C 
ATOM     14  C   UNL     1       3.909   1.299  17.822  0.00  0.00    +0.000 C 
ATOM     15  N   UNL     1       4.234   0.628  19.078  0.00  0.00    +0.000 NA
ATOM     16  C   UNL     1       4.654   1.561  20.122  0.00  0.00    +0.000 C 
ATOM     17  C   UNL     1       3.601   2.646  20.374  0.00  0.00    +0.000 C 
ATOM     18  C   UNL     1       2.025   4.356  19.362  0.00  0.00    +0.000 C 
ATOM     19  C   UNL     1       1.764   5.338  18.212  0.00  0.00    +0.000 C 
ATOM     20  H   UNL     1       4.980  -0.048  18.911  0.00  0.00    +0.000 HD
ENDBRANCH   4   7
BRANCH   1  23
ATOM     21  O   UNL     1      -0.006  10.774  22.680  0.00  0.00    +0.000 OA
ATOM     22  C   UNL     1      -0.742  11.146  21.771  0.00  0.00    +0.000 C 
ATOM     23  N   UNL     1      -0.539  10.884  20.430  0.00  0.00    +0.000 N 
ATOM     24  N   UNL     1      -1.871  11.893  22.019  0.00  0.00    +0.000 N 
ATOM     25  C   UNL     1      -2.909  12.239  21.050  0.00  0.00    +0.000 C 
ATOM     26  C   UNL     1      -4.019  12.743  21.905  0.00  0.00    +0.000 A 
ATOM     27  C   UNL     1      -5.318  13.055  21.539  0.00  0.00    +0.000 A 
ATOM     28  C   UNL     1      -6.145  13.620  22.505  0.00  0.00    +0.000 A 
ATOM     29  C   UNL     1      -5.653  13.908  23.790  0.00  0.00    +0.000 A 
ATOM     30  C   UNL     1      -4.360  13.532  24.164  0.00  0.00    +0.000 A 
ATOM     31  C   UNL     1      -3.577  12.897  23.221  0.00  0.00    +0.000 A 
ATOM     32  C   UNL     1      -2.261  12.203  23.382  0.00  0.00    +0.000 C 
ATOM     33  H   UNL     1      -1.063  11.456  19.794  0.00  0.00    +0.000 HD
ENDBRANCH   1  23
TORSDOF 2
ENDMDL
MODEL 5
REMARK VINA RESULT:      -8.6      8.642     12.342
REMARK  Name = 
REMARK  2 active torsions:
REMARK  status: ('A' for Active; 'I' for Inactive)
REMARK    1  A    between atoms: N_3  and  C_4
REMARK    2  A    between atoms: C_7  and  C_8
REMARK                            x       y       z     vdW  Elec       q    Type
REMARK                         _______ _______ _______ _____ _____    ______ ____
ROOT
ATOM      1  C   UNL     1       0.557   9.592  21.465  0.00  0.00    +0.000 A 
ATOM      2  C   UNL     1       0.659  10.779  20.737  0.00  0.00    +0.000 A 
ATOM      3  C   UNL     1       0.095  11.958  21.226  0.00  0.00    +0.000 A 
ATOM      4  C   UNL     1      -0.601  11.956  22.441  0.00  0.00    +0.000 A 
ATOM      5  C   UNL     1      -0.783  10.747  23.118  0.00  0.00    +0.000 A 
ATOM      6  C   UNL     1      -0.173   9.584  22.658  0.00  0.00    +0.000 A 
ENDROOT
BRANCH   4   7
ATOM      7  C   UNL     1      -1.236  13.217  22.904  0.00  0.00    +0.000 C 
ATOM      8  O   UNL     1      -0.485  14.085  23.351  0.00  0.00    +0.000 OA
ATOM      9  N   UNL     1      -2.613  13.404  22.795  0.00  0.00    +0.000 N 
ATOM     10  C   UNL     1      -3.126  14.755  22.960  0.00  0.00    +0.000 C 
ATOM     11  C   UNL     1      -3.898  15.150  21.706  0.00  0.00    +0.000 C 
ATOM     12  C   UNL     1      -5.053  14.164  21.373  0.00  0.00    +0.000 C 
ATOM     13  C   UNL     1      -6.207  14.244  22.399  0.00  0.00    +0.000 C 
ATOM     14  C   UNL     1      -6.936  15.586  22.358  0.00  0.00    +0.000 C 
ATOM     15  N   UNL     1      -7.448  15.874  21.021  0.00  0.00    +0.000 NA
ATOM     16  C   UNL     1      -6.402  15.849  20.000  0.00  0.00    +0.000 C 
ATOM     17  C   UNL     1      -5.649  14.515  19.987  0.00  0.00    +0.000 C 
ATOM     18  C   UNL     1      -4.482  12.719  21.345  0.00  0.00    +0.000 C 
ATOM     19  C   UNL     1      -3.649  12.390  22.592  0.00  0.00    +0.000 C 
ATOM     20  H   UNL     1      -7.892  16.792  21.025  0.00  0.00    +0.000 HD
ENDBRANCH   4   7
BRANCH   1  23
ATOM     21  O   UNL     1       1.916   8.855  18.953  0.00  0.00    +0.000 OA
ATOM     22  C   UNL     1       1.653   8.051  19.842  0.00  0.00    +0.000 C 
ATOM     23  N   UNL     1       1.099   8.375  21.065  0.00  0.00    +0.000 N 
ATOM     24  N   UNL     1       1.906   6.706  19.693  0.00  0.00    +0.000 N 
ATOM     25  C   UNL     1       1.477   5.641  20.598  0.00  0.00    +0.000 C 
ATOM     26  C   UNL     1       1.715   4.403  19.805  0.00  0.00    +0.000 A 
ATOM     27  C   UNL     1       1.336   3.104  20.096  0.00  0.00    +0.000 A 
ATOM     28  C   UNL     1       1.778   2.094  19.247  0.00  0.00    +0.000 A 
ATOM     29  C   UNL     1       2.623   2.388  18.162  0.00  0.00    +0.000 A 
ATOM     30  C   UNL     1       2.948   3.709  17.844  0.00  0.00    +0.000 A 
ATOM     31  C   UNL     1       2.435   4.709  18.647  0.00  0.00    +0.000 A 
ATOM     32  C   UNL     1       2.431   6.192  18.442  0.00  0.00    +0.000 C 
ATOM     33  H   UNL     1       1.178   7.672  21.775  0.00  0.00    +0.000 HD
ENDBRANCH   1  23
TORSDOF 2
ENDMDL
MODEL 6
REMARK VINA RESULT:      -8.5      8.367     11.897
REMARK  Name = 
REMARK  2 active torsions:
REMARK  status: ('A' for Active; 'I' for Inactive)
REMARK    1  A    between atoms: N_3  and  C_4
REMARK    2  A    between atoms: C_7  and  C_8
REMARK                            x       y       z     vdW  Elec       q    Type
REMARK                         _______ _______ _______ _____ _____    ______ ____
ROOT
ATOM      1  C   UNL     1       0.863   9.671  20.085  0.00  0.00    +0.000 A 
ATOM      2  C   UNL     1       1.455  10.744  20.757  0.00  0.00    +0.000 A 
ATOM      3  C   UNL     1       0.779  11.959  20.878  0.00  0.00    +0.000 A 
ATOM      4  C   UNL     1      -0.488  12.122  20.306  0.00  0.00    +0.000 A 
ATOM      5  C   UNL     1      -1.033  11.078  19.553  0.00  0.00    +0.000 A 
ATOM      6  C   UNL     1      -0.384   9.849  19.480  0.00  0.00    +0.000 A 
ENDROOT
BRANCH   4   7
ATOM      7  C   UNL     1      -1.154  13.446  20.407  0.00  0.00    +0.000 C 
ATOM      8  O   UNL     1      -0.958  14.237  19.483  0.00  0.00    +0.000 OA
ATOM      9  N   UNL     1      -1.987  13.746  21.484  0.00  0.00    +0.000 N 
ATOM     10  C   UNL     1      -2.850  14.911  21.366  0.00  0.00    +0.000 C 
ATOM     11  C   UNL     1      -4.299  14.475  21.550  0.00  0.00    +0.000 C 
ATOM     12  C   UNL     1      -4.544  13.748  22.903  0.00  0.00    +0.000 C 
ATOM     13  C   UNL     1      -4.426  14.705  24.112  0.00  0.00    +0.000 C 
ATOM     14  C   UNL     1      -5.530  15.760  24.133  0.00  0.00    +0.000 C 
ATOM     15  N   UNL     1      -6.856  15.147  24.121  0.00  0.00    +0.000 NA
ATOM     16  C   UNL     1      -7.051  14.253  22.981  0.00  0.00    +0.000 C 
ATOM     17  C   UNL     1      -5.977  13.161  22.921  0.00  0.00    +0.000 C 
ATOM     18  C   UNL     1      -3.507  12.600  23.046  0.00  0.00    +0.000 C 
ATOM     19  C   UNL     1      -2.069  13.067  22.779  0.00  0.00    +0.000 C 
ATOM     20  H   UNL     1      -7.563  15.881  24.096  0.00  0.00    +0.000 HD
ENDBRANCH   4   7
BRANCH   1  23
ATOM     21  O   UNL     1       2.596   8.647  17.928  0.00  0.00    +0.000 OA
ATOM     22  C   UNL     1       2.190   7.955  18.857  0.00  0.00    +0.000 C 
ATOM     23  N   UNL     1       1.453   8.421  19.928  0.00  0.00    +0.000 N 
ATOM     24  N   UNL     1       2.453   6.606  18.917  0.00  0.00    +0.000 N 
ATOM     25  C   UNL     1       1.880   5.655  19.868  0.00  0.00    +0.000 C 
ATOM     26  C   UNL     1       2.231   4.332  19.281  0.00  0.00    +0.000 A 
ATOM     27  C   UNL     1       1.802   3.074  19.668  0.00  0.00    +0.000 A 
ATOM     28  C   UNL     1       2.364   1.972  19.030  0.00  0.00    +0.000 A 
ATOM     29  C   UNL     1       3.372   2.142  18.063  0.00  0.00    +0.000 A 
ATOM     30  C   UNL     1       3.752   3.417  17.639  0.00  0.00    +0.000 A 
ATOM     31  C   UNL     1       3.126   4.502  18.222  0.00  0.00    +0.000 A 
ATOM     32  C   UNL     1       3.166   5.948  17.837  0.00  0.00    +0.000 C 
ATOM     33  H   UNL     1       1.415   7.811  20.724  0.00  0.00    +0.000 HD
ENDBRANCH   1  23
TORSDOF 2
ENDMDL
MODEL 7
REMARK VINA RESULT:      -8.4      6.230      9.765
REMARK  Name = 
REMARK  2 active torsions:
REMARK  status: ('A' for Active; 'I' for Inactive)
REMARK    1  A    between atoms: N_3  and  C_4
REMARK    2  A    between atoms: C_7  and  C_8
REMARK                            x       y       z     vdW  Elec       q    Type
REMARK                         _______ _______ _______ _____ _____    ______ ____
ROOT
ATOM      1  C   UNL     1       3.094   6.584  18.457  0.00  0.00    +0.000 A 
ATOM      2  C   UNL     1       2.748   6.079  19.712  0.00  0.00    +0.000 A 
ATOM      3  C   UNL     1       1.982   6.844  20.594  0.00  0.00    +0.000 A 
ATOM      4  C   UNL     1       1.576   8.134  20.238  0.00  0.00    +0.000 A 
ATOM      5  C   UNL     1       2.007   8.672  19.021  0.00  0.00    +0.000 A 
ATOM      6  C   UNL     1       2.722   7.889  18.120  0.00  0.00    +0.000 A 
ENDROOT
BRANCH   4   7
ATOM      7  C   UNL     1       0.810   8.941  21.223  0.00  0.00    +0.000 C 
ATOM      8  O   UNL     1       1.077   8.764  22.413  0.00  0.00    +0.000 OA
ATOM      9  N   UNL     1      -0.135   9.875  20.800  0.00  0.00    +0.000 N 
ATOM     10  C   UNL     1      -0.609  10.845  21.775  0.00  0.00    +0.000 C 
ATOM     11  C   UNL     1      -0.334  12.250  21.251  0.00  0.00    +0.000 C 
ATOM     12  C   UNL     1      -0.979  12.513  19.861  0.00  0.00    +0.000 C 
ATOM     13  C   UNL     1      -2.522  12.582  19.933  0.00  0.00    +0.000 C 
ATOM     14  C   UNL     1      -3.017  13.789  20.728  0.00  0.00    +0.000 C 
ATOM     15  N   UNL     1      -2.496  15.039  20.181  0.00  0.00    +0.000 NA
ATOM     16  C   UNL     1      -1.036  15.058  20.114  0.00  0.00    +0.000 C 
ATOM     17  C   UNL     1      -0.486  13.874  19.312  0.00  0.00    +0.000 C 
ATOM     18  C   UNL     1      -0.555  11.374  18.892  0.00  0.00    +0.000 C 
ATOM     19  C   UNL     1      -0.780   9.978  19.490  0.00  0.00    +0.000 C 
ATOM     20  H   UNL     1      -2.816  15.816  20.759  0.00  0.00    +0.000 HD
ENDBRANCH   4   7
BRANCH   1  23
ATOM     21  O   UNL     1       5.785   7.138  17.381  0.00  0.00    +0.000 OA
ATOM     22  C   UNL     1       5.064   6.234  16.970  0.00  0.00    +0.000 C 
ATOM     23  N   UNL     1       3.839   5.891  17.509  0.00  0.00    +0.000 N 
ATOM     24  N   UNL     1       5.433   5.448  15.903  0.00  0.00    +0.000 N 
ATOM     25  C   UNL     1       4.591   4.469  15.218  0.00  0.00    +0.000 C 
ATOM     26  C   UNL     1       5.354   4.174  13.973  0.00  0.00    +0.000 A 
ATOM     27  C   UNL     1       4.955   3.441  12.868  0.00  0.00    +0.000 A 
ATOM     28  C   UNL     1       5.897   3.209  11.870  0.00  0.00    +0.000 A 
ATOM     29  C   UNL     1       7.220   3.663  12.014  0.00  0.00    +0.000 A 
ATOM     30  C   UNL     1       7.593   4.453  13.104  0.00  0.00    +0.000 A 
ATOM     31  C   UNL     1       6.627   4.746  14.047  0.00  0.00    +0.000 A 
ATOM     32  C   UNL     1       6.666   5.716  15.185  0.00  0.00    +0.000 C 
ATOM     33  H   UNL     1       3.489   4.988  17.246  0.00  0.00    +0.000 HD
ENDBRANCH   1  23
TORSDOF 2
ENDMDL
MODEL 8
REMARK VINA RESULT:      -8.3      8.874     11.718
REMARK  Name = 
REMARK  2 active torsions:
REMARK  status: ('A' for Active; 'I' for Inactive)
REMARK    1  A    between atoms: N_3  and  C_4
REMARK    2  A    between atoms: C_7  and  C_8
REMARK                            x       y       z     vdW  Elec       q    Type
REMARK                         _______ _______ _______ _____ _____    ______ ____
ROOT
ATOM      1  C   UNL     1       0.580  10.303  20.622  0.00  0.00    +0.000 A 
ATOM      2  C   UNL     1       0.496  11.639  20.223  0.00  0.00    +0.000 A 
ATOM      3  C   UNL     1      -0.078  12.592  21.064  0.00  0.00    +0.000 A 
ATOM      4  C   UNL     1      -0.599  12.214  22.307  0.00  0.00    +0.000 A 
ATOM      5  C   UNL     1      -0.600  10.861  22.661  0.00  0.00    +0.000 A 
ATOM      6  C   UNL     1       0.023   9.921  21.846  0.00  0.00    +0.000 A 
ENDROOT
BRANCH   4   7
ATOM      7  C   UNL     1      -1.253  13.245  23.153  0.00  0.00    +0.000 C 
ATOM      8  O   UNL     1      -0.510  14.002  23.780  0.00  0.00    +0.000 OA
ATOM      9  N   UNL     1      -2.643  13.360  23.192  0.00  0.00    +0.000 N 
ATOM     10  C   UNL     1      -3.204  14.570  23.772  0.00  0.00    +0.000 C 
ATOM     11  C   UNL     1      -4.095  15.248  22.737  0.00  0.00    +0.000 C 
ATOM     12  C   UNL     1      -5.225  14.318  22.211  0.00  0.00    +0.000 C 
ATOM     13  C   UNL     1      -6.293  14.025  23.291  0.00  0.00    +0.000 C 
ATOM     14  C   UNL     1      -7.086  15.270  23.684  0.00  0.00    +0.000 C 
ATOM     15  N   UNL     1      -7.720  15.888  22.522  0.00  0.00    +0.000 NA
ATOM     16  C   UNL     1      -6.762  16.225  21.471  0.00  0.00    +0.000 C 
ATOM     17  C   UNL     1      -5.949  15.004  21.027  0.00  0.00    +0.000 C 
ATOM     18  C   UNL     1      -4.590  12.983  21.733  0.00  0.00    +0.000 C 
ATOM     19  C   UNL     1      -3.642  12.374  22.776  0.00  0.00    +0.000 C 
ATOM     20  H   UNL     1      -8.206  16.734  22.818  0.00  0.00    +0.000 HD
ENDBRANCH   4   7
BRANCH   1  23
ATOM     21  O   UNL     1       1.279   7.534  21.363  0.00  0.00    +0.000 OA
ATOM     22  C   UNL     1       1.538   8.029  20.270  0.00  0.00    +0.000 C 
ATOM     23  N   UNL     1       1.148   9.289  19.859  0.00  0.00    +0.000 N 
ATOM     24  N   UNL     1       2.259   7.341  19.322  0.00  0.00    +0.000 N 
ATOM     25  C   UNL     1       2.777   7.884  18.067  0.00  0.00    +0.000 C 
ATOM     26  C   UNL     1       3.734   6.838  17.612  0.00  0.00    +0.000 A 
ATOM     27  C   UNL     1       4.640   6.891  16.566  0.00  0.00    +0.000 A 
ATOM     28  C   UNL     1       5.351   5.734  16.265  0.00  0.00    +0.000 A 
ATOM     29  C   UNL     1       5.112   4.541  16.970  0.00  0.00    +0.000 A 
ATOM     30  C   UNL     1       4.240   4.517  18.062  0.00  0.00    +0.000 A 
ATOM     31  C   UNL     1       3.602   5.693  18.403  0.00  0.00    +0.000 A 
ATOM     32  C   UNL     1       2.795   6.025  19.619  0.00  0.00    +0.000 C 
ATOM     33  H   UNL     1       1.204   9.457  18.872  0.00  0.00    +0.000 HD
ENDBRANCH   1  23
TORSDOF 2
ENDMDL
MODEL 9
REMARK VINA RESULT:      -8.2      8.934     11.618
REMARK  Name = 
REMARK  2 active torsions:
REMARK  status: ('A' for Active; 'I' for Inactive)
REMARK    1  A    between atoms: N_3  and  C_4
REMARK    2  A    between atoms: C_7  and  C_8
REMARK                            x       y       z     vdW  Elec       q    Type
REMARK                         _______ _______ _______ _____ _____    ______ ____
ROOT
ATOM      1  C   UNL     1       0.535  10.769  19.358  0.00  0.00    +0.000 A 
ATOM      2  C   UNL     1       1.161  11.748  20.134  0.00  0.00    +0.000 A 
ATOM      3  C   UNL     1       0.461  12.888  20.530  0.00  0.00    +0.000 A 
ATOM      4  C   UNL     1      -0.868  13.075  20.133  0.00  0.00    +0.000 A 
ATOM      5  C   UNL     1      -1.459  12.140  19.276  0.00  0.00    +0.000 A 
ATOM      6  C   UNL     1      -0.779  10.977  18.928  0.00  0.00    +0.000 A 
ENDROOT
BRANCH   4   7
ATOM      7  C   UNL     1      -1.564  14.326  20.526  0.00  0.00    +0.000 C 
ATOM      8  O   UNL     1      -1.204  15.362  19.962  0.00  0.00    +0.000 OA
ATOM      9  N   UNL     1      -2.599  14.305  21.460  0.00  0.00    +0.000 N 
ATOM     10  C   UNL     1      -3.442  15.486  21.562  0.00  0.00    +0.000 C 
ATOM     11  C   UNL     1      -4.891  15.083  21.313  0.00  0.00    +0.000 C 
ATOM     12  C   UNL     1      -5.385  13.973  22.284  0.00  0.00    +0.000 C 
ATOM     13  C   UNL     1      -5.525  14.485  23.736  0.00  0.00    +0.000 C 
ATOM     14  C   UNL     1      -6.630  15.529  23.885  0.00  0.00    +0.000 C 
ATOM     15  N   UNL     1      -7.916  15.015  23.420  0.00  0.00    +0.000 NA
ATOM     16  C   UNL     1      -7.867  14.543  22.037  0.00  0.00    +0.000 C 
ATOM     17  C   UNL     1      -6.782  13.479  21.836  0.00  0.00    +0.000 C 
ATOM     18  C   UNL     1      -4.376  12.792  22.244  0.00  0.00    +0.000 C 
ATOM     19  C   UNL     1      -2.922  13.252  22.425  0.00  0.00    +0.000 C 
ATOM     20  H   UNL     1      -8.618  15.751  23.499  0.00  0.00    +0.000 HD
ENDBRANCH   4   7
BRANCH   1  23
ATOM     21  O   UNL     1       1.130   8.289  20.841  0.00  0.00    +0.000 OA
ATOM     22  C   UNL     1       1.483   8.487  19.683  0.00  0.00    +0.000 C 
ATOM     23  N   UNL     1       1.146   9.595  18.930  0.00  0.00    +0.000 N 
ATOM     24  N   UNL     1       2.266   7.581  19.005  0.00  0.00    +0.000 N 
ATOM     25  C   UNL     1       2.892   7.786  17.699  0.00  0.00    +0.000 C 
ATOM     26  C   UNL     1       3.866   6.663  17.608  0.00  0.00    +0.000 A 
ATOM     27  C   UNL     1       4.853   6.450  16.661  0.00  0.00    +0.000 A 
ATOM     28  C   UNL     1       5.568   5.258  16.726  0.00  0.00    +0.000 A 
ATOM     29  C   UNL     1       5.255   4.287  17.694  0.00  0.00    +0.000 A 
ATOM     30  C   UNL     1       4.299   4.540  18.680  0.00  0.00    +0.000 A 
ATOM     31  C   UNL     1       3.654   5.761  18.654  0.00  0.00    +0.000 A 
ATOM     32  C   UNL     1       2.758   6.390  19.673  0.00  0.00    +0.000 C 
ATOM     33  H   UNL     1       1.283   9.504  17.941  0.00  0.00    +0.000 HD
ENDBRANCH   1  23
TORSDOF 2
ENDMDL
