MODEL 1
REMARK VINA RESULT:      -6.3      0.000      0.000
REMARK  Name = 
REMARK  12 active torsions:
REMARK  status: ('A' for Active; 'I' for Inactive)
REMARK    1  A    between atoms: C_1  and  O_2
REMARK    2  A    between atoms: O_2  and  C_3
REMARK    3  A    between atoms: C_5  and  C_6
REMARK    4  A    between atoms: C_6  and  S_7
REMARK    5  A    between atoms: S_7  and  C_8
REMARK    6  A    between atoms: C_8  and  C_9
REMARK    7  A    between atoms: C_8  and  C_12
REMARK    8  A    between atoms: C_9  and  C_10
REMARK    9  A    between atoms: C_10  and  O_11
REMARK   10  A    between atoms: C_15  and  O_16
REMARK   11  A    between atoms: C_17  and  O_18
REMARK   12  A    between atoms: C_19  and  O_20
REMARK                            x       y       z     vdW  Elec       q    Type
REMARK                         _______ _______ _______ _____ _____    ______ ____
ROOT
ATOM      1  C   UNL     1       5.450   4.873  14.876  0.00  0.00    +0.000 C 
ATOM      2  O   UNL     1       5.185   6.201  15.328  0.00  0.00    +0.000 OA
ATOM      3  C   UNL     1       5.158   6.352  16.769  0.00  0.00    +0.000 C 
ATOM      4  C   UNL     1       6.527   5.937  17.348  0.00  0.00    +0.000 C 
ATOM      5  C   UNL     1       6.904   4.524  16.874  0.00  0.00    +0.000 C 
ATOM      6  C   UNL     1       6.846   4.410  15.341  0.00  0.00    +0.000 C 
ENDROOT
BRANCH   1   8
ATOM      7  C   UNL     1       5.736   3.491  12.978  0.00  0.00    +0.000 C 
ATOM      8  O   UNL     1       5.385   4.783  13.454  0.00  0.00    +0.000 OA
ENDBRANCH   1   8
BRANCH   4   9
ATOM      9  O   UNL     1       7.554   6.835  16.878  0.00  0.00    +0.000 OA
ATOM     10  H   UNL     1       8.341   6.723  17.442  0.00  0.00    +0.000 HD
ENDBRANCH   4   9
BRANCH   5  11
ATOM     11  O   UNL     1       8.206   4.168  17.341  0.00  0.00    +0.000 OA
ATOM     12  H   UNL     1       8.817   4.534  16.666  0.00  0.00    +0.000 HD
ENDBRANCH   5  11
BRANCH   6  13
ATOM     13  O   UNL     1       7.894   5.173  14.722  0.00  0.00    +0.000 OA
ATOM     14  H   UNL     1       8.385   4.559  14.144  0.00  0.00    +0.000 HD
ENDBRANCH   6  13
BRANCH   3  15
ATOM     15  C   UNL     1       3.932   5.647  17.378  0.00  0.00    +0.000 C 
BRANCH  15  16
ATOM     16  S   UNL     1       3.982   5.547  19.195  0.00  0.00    +0.000 S 
BRANCH  16  17
ATOM     17  C   UNL     1       3.073   3.955  19.463  0.00  0.00    +0.000 C 
BRANCH  17  18
ATOM     18  C   UNL     1       4.068   2.804  19.187  0.00  0.00    +0.000 C 
ATOM     19  O   UNL     1       5.220   2.887  19.704  0.00  0.00    +0.000 OA
ATOM     20  O   UNL     1       3.584   1.915  18.416  0.00  0.00    +0.000 OA
ENDBRANCH  17  18
BRANCH  17  21
ATOM     21  C   UNL     1       1.806   3.863  18.611  0.00  0.00    +0.000 C 
BRANCH  21  22
ATOM     22  C   UNL     1       0.713   3.012  19.252  0.00  0.00    +0.000 C 
BRANCH  22  23
ATOM     23  O   UNL     1       0.401   1.887  18.428  0.00  0.00    +0.000 OA
ATOM     24  H   UNL     1       0.867   2.035  17.589  0.00  0.00    +0.000 HD
ENDBRANCH  22  23
ENDBRANCH  21  22
ENDBRANCH  17  21
ENDBRANCH  16  17
ENDBRANCH  15  16
ENDBRANCH   3  15
TORSDOF 11
ENDMDL
MODEL 2
REMARK VINA RESULT:      -6.3      1.865      3.505
REMARK  Name = 
REMARK  12 active torsions:
REMARK  status: ('A' for Active; 'I' for Inactive)
REMARK    1  A    between atoms: C_1  and  O_2
REMARK    2  A    between atoms: O_2  and  C_3
REMARK    3  A    between atoms: C_5  and  C_6
REMARK    4  A    between atoms: C_6  and  S_7
REMARK    5  A    between atoms: S_7  and  C_8
REMARK    6  A    between atoms: C_8  and  C_9
REMARK    7  A    between atoms: C_8  and  C_12
REMARK    8  A    between atoms: C_9  and  C_10
REMARK    9  A    between atoms: C_10  and  O_11
REMARK   10  A    between atoms: C_15  and  O_16
REMARK   11  A    between atoms: C_17  and  O_18
REMARK   12  A    between atoms: C_19  and  O_20
REMARK                            x       y       z     vdW  Elec       q    Type
REMARK                         _______ _______ _______ _____ _____    ______ ____
ROOT
ATOM      1  C   UNL     1       6.364   5.255  18.654  0.00  0.00    +0.000 C 
ATOM      2  O   UNL     1       5.390   4.231  18.449  0.00  0.00    +0.000 OA
ATOM      3  C   UNL     1       4.522   4.445  17.309  0.00  0.00    +0.000 C 
ATOM      4  C   UNL     1       5.378   4.524  16.028  0.00  0.00    +0.000 C 
ATOM      5  C   UNL     1       6.481   5.584  16.184  0.00  0.00    +0.000 C 
ATOM      6  C   UNL     1       7.322   5.341  17.448  0.00  0.00    +0.000 C 
ENDROOT
BRANCH   1   8
ATOM      7  C   UNL     1       8.242   5.896  19.941  0.00  0.00    +0.000 C 
ATOM      8  O   UNL     1       7.129   5.018  19.835  0.00  0.00    +0.000 OA
ENDBRANCH   1   8
BRANCH   4   9
ATOM      9  O   UNL     1       6.031   3.259  15.792  0.00  0.00    +0.000 OA
ATOM     10  H   UNL     1       5.451   2.714  15.230  0.00  0.00    +0.000 HD
ENDBRANCH   4   9
BRANCH   5  11
ATOM     11  O   UNL     1       7.325   5.604  15.032  0.00  0.00    +0.000 OA
ATOM     12  H   UNL     1       8.213   5.830  15.383  0.00  0.00    +0.000 HD
ENDBRANCH   5  11
BRANCH   6  13
ATOM     13  O   UNL     1       8.124   4.157  17.320  0.00  0.00    +0.000 OA
ATOM     14  H   UNL     1       9.045   4.419  17.513  0.00  0.00    +0.000 HD
ENDBRANCH   6  13
BRANCH   3  15
ATOM     15  C   UNL     1       3.570   5.631  17.552  0.00  0.00    +0.000 C 
BRANCH  15  16
ATOM     16  S   UNL     1       1.904   5.125  18.086  0.00  0.00    +0.000 S 
BRANCH  16  17
ATOM     17  C   UNL     1       2.339   3.854  19.362  0.00  0.00    +0.000 C 
BRANCH  17  18
ATOM     18  C   UNL     1       1.955   2.471  18.785  0.00  0.00    +0.000 C 
ATOM     19  O   UNL     1       0.812   2.352  18.256  0.00  0.00    +0.000 OA
ATOM     20  O   UNL     1       2.864   1.599  18.964  0.00  0.00    +0.000 OA
ENDBRANCH  17  18
BRANCH  17  21
ATOM     21  C   UNL     1       1.679   4.140  20.711  0.00  0.00    +0.000 C 
BRANCH  21  22
ATOM     22  C   UNL     1       1.438   2.881  21.539  0.00  0.00    +0.000 C 
BRANCH  22  23
ATOM     23  O   UNL     1       2.648   2.445  22.161  0.00  0.00    +0.000 OA
ATOM     24  H   UNL     1       2.889   3.144  22.792  0.00  0.00    +0.000 HD
ENDBRANCH  22  23
ENDBRANCH  21  22
ENDBRANCH  17  21
ENDBRANCH  16  17
ENDBRANCH  15  16
ENDBRANCH   3  15
TORSDOF 11
ENDMDL
MODEL 3
REMARK VINA RESULT:      -6.3      1.872      3.372
REMARK  Name = 
REMARK  12 active torsions:
REMARK  status: ('A' for Active; 'I' for Inactive)
REMARK    1  A    between atoms: C_1  and  O_2
REMARK    2  A    between atoms: O_2  and  C_3
REMARK    3  A    between atoms: C_5  and  C_6
REMARK    4  A    between atoms: C_6  and  S_7
REMARK    5  A    between atoms: S_7  and  C_8
REMARK    6  A    between atoms: C_8  and  C_9
REMARK    7  A    between atoms: C_8  and  C_12
REMARK    8  A    between atoms: C_9  and  C_10
REMARK    9  A    between atoms: C_10  and  O_11
REMARK   10  A    between atoms: C_15  and  O_16
REMARK   11  A    between atoms: C_17  and  O_18
REMARK   12  A    between atoms: C_19  and  O_20
REMARK                            x       y       z     vdW  Elec       q    Type
REMARK                         _______ _______ _______ _____ _____    ______ ____
ROOT
ATOM      1  C   UNL     1       6.564   6.294  17.563  0.00  0.00    +0.000 C 
ATOM      2  O   UNL     1       5.947   5.301  18.384  0.00  0.00    +0.000 OA
ATOM      3  C   UNL     1       4.651   4.854  17.916  0.00  0.00    +0.000 C 
ATOM      4  C   UNL     1       4.802   4.250  16.504  0.00  0.00    +0.000 C 
ATOM      5  C   UNL     1       5.496   5.249  15.564  0.00  0.00    +0.000 C 
ATOM      6  C   UNL     1       6.832   5.738  16.149  0.00  0.00    +0.000 C 
ENDROOT
BRANCH   1   8
ATOM      7  C   UNL     1       8.021   8.126  17.895  0.00  0.00    +0.000 C 
ATOM      8  O   UNL     1       7.796   6.741  18.124  0.00  0.00    +0.000 OA
ENDBRANCH   1   8
BRANCH   4   9
ATOM      9  O   UNL     1       5.628   3.069  16.559  0.00  0.00    +0.000 OA
ATOM     10  H   UNL     1       5.880   2.827  15.649  0.00  0.00    +0.000 HD
ENDBRANCH   4   9
BRANCH   5  11
ATOM     11  O   UNL     1       5.711   4.664  14.279  0.00  0.00    +0.000 OA
ATOM     12  H   UNL     1       6.462   4.047  14.414  0.00  0.00    +0.000 HD
ENDBRANCH   5  11
BRANCH   6  13
ATOM     13  O   UNL     1       7.809   4.686  16.167  0.00  0.00    +0.000 OA
ATOM     14  H   UNL     1       7.953   4.420  15.239  0.00  0.00    +0.000 HD
ENDBRANCH   6  13
BRANCH   3  15
ATOM     15  C   UNL     1       3.595   5.967  18.059  0.00  0.00    +0.000 C 
BRANCH  15  16
ATOM     16  S   UNL     1       1.882   5.351  18.013  0.00  0.00    +0.000 S 
BRANCH  16  17
ATOM     17  C   UNL     1       2.015   3.921  19.184  0.00  0.00    +0.000 C 
BRANCH  17  18
ATOM     18  C   UNL     1       1.364   2.699  18.495  0.00  0.00    +0.000 C 
ATOM     19  O   UNL     1       0.282   2.259  18.980  0.00  0.00    +0.000 OA
ATOM     20  O   UNL     1       2.055   2.264  17.519  0.00  0.00    +0.000 OA
ENDBRANCH  17  18
BRANCH  17  21
ATOM     21  C   UNL     1       1.400   4.233  20.548  0.00  0.00    +0.000 C 
BRANCH  21  22
ATOM     22  C   UNL     1       2.135   3.560  21.705  0.00  0.00    +0.000 C 
BRANCH  22  23
ATOM     23  O   UNL     1       1.572   2.276  21.982  0.00  0.00    +0.000 OA
ATOM     24  H   UNL     1       1.759   2.101  22.919  0.00  0.00    +0.000 HD
ENDBRANCH  22  23
ENDBRANCH  21  22
ENDBRANCH  17  21
ENDBRANCH  16  17
ENDBRANCH  15  16
ENDBRANCH   3  15
TORSDOF 11
ENDMDL
MODEL 4
REMARK VINA RESULT:      -6.3      2.107      6.026
REMARK  Name = 
REMARK  12 active torsions:
REMARK  status: ('A' for Active; 'I' for Inactive)
REMARK    1  A    between atoms: C_1  and  O_2
REMARK    2  A    between atoms: O_2  and  C_3
REMARK    3  A    between atoms: C_5  and  C_6
REMARK    4  A    between atoms: C_6  and  S_7
REMARK    5  A    between atoms: S_7  and  C_8
REMARK    6  A    between atoms: C_8  and  C_9
REMARK    7  A    between atoms: C_8  and  C_12
REMARK    8  A    between atoms: C_9  and  C_10
REMARK    9  A    between atoms: C_10  and  O_11
REMARK   10  A    between atoms: C_15  and  O_16
REMARK   11  A    between atoms: C_17  and  O_18
REMARK   12  A    between atoms: C_19  and  O_20
REMARK                            x       y       z     vdW  Elec       q    Type
REMARK                         _______ _______ _______ _____ _____    ______ ____
ROOT
ATOM      1  C   UNL     1       2.718   4.564  20.023  0.00  0.00    +0.000 C 
ATOM      2  O   UNL     1       2.333   5.200  18.803  0.00  0.00    +0.000 OA
ATOM      3  C   UNL     1       3.285   5.050  17.721  0.00  0.00    +0.000 C 
ATOM      4  C   UNL     1       3.473   3.550  17.414  0.00  0.00    +0.000 C 
ATOM      5  C   UNL     1       3.854   2.785  18.693  0.00  0.00    +0.000 C 
ATOM      6  C   UNL     1       2.844   3.040  19.824  0.00  0.00    +0.000 C 
ENDROOT
BRANCH   1   8
ATOM      7  C   UNL     1       1.266   6.144  21.017  0.00  0.00    +0.000 C 
ATOM      8  O   UNL     1       1.775   4.818  21.063  0.00  0.00    +0.000 OA
ENDBRANCH   1   8
BRANCH   4   9
ATOM      9  O   UNL     1       2.236   2.986  16.931  0.00  0.00    +0.000 OA
ATOM     10  H   UNL     1       2.430   2.456  16.137  0.00  0.00    +0.000 HD
ENDBRANCH   4   9
BRANCH   5  11
ATOM     11  O   UNL     1       3.950   1.384  18.430  0.00  0.00    +0.000 OA
ATOM     12  H   UNL     1       4.914   1.213  18.362  0.00  0.00    +0.000 HD
ENDBRANCH   5  11
BRANCH   6  13
ATOM     13  O   UNL     1       1.574   2.434  19.535  0.00  0.00    +0.000 OA
ATOM     14  H   UNL     1       1.261   2.824  18.696  0.00  0.00    +0.000 HD
ENDBRANCH   6  13
BRANCH   3  15
ATOM     15  C   UNL     1       4.575   5.843  18.003  0.00  0.00    +0.000 C 
BRANCH  15  16
ATOM     16  S   UNL     1       5.307   6.589  16.512  0.00  0.00    +0.000 S 
BRANCH  16  17
ATOM     17  C   UNL     1       7.000   5.841  16.567  0.00  0.00    +0.000 C 
BRANCH  17  18
ATOM     18  C   UNL     1       7.131   4.907  15.341  0.00  0.00    +0.000 C 
ATOM     19  O   UNL     1       7.808   5.321  14.356  0.00  0.00    +0.000 OA
ATOM     20  O   UNL     1       6.481   3.822  15.483  0.00  0.00    +0.000 OA
ENDBRANCH  17  18
BRANCH  17  21
ATOM     21  C   UNL     1       7.274   5.127  17.891  0.00  0.00    +0.000 C 
BRANCH  21  22
ATOM     22  C   UNL     1       7.924   6.031  18.935  0.00  0.00    +0.000 C 
BRANCH  22  23
ATOM     23  O   UNL     1       7.809   5.458  20.240  0.00  0.00    +0.000 OA
ATOM     24  H   UNL     1       8.676   5.065  20.434  0.00  0.00    +0.000 HD
ENDBRANCH  22  23
ENDBRANCH  21  22
ENDBRANCH  17  21
ENDBRANCH  16  17
ENDBRANCH  15  16
ENDBRANCH   3  15
TORSDOF 11
ENDMDL
MODEL 5
REMARK VINA RESULT:      -6.2      1.720      6.169
REMARK  Name = 
REMARK  12 active torsions:
REMARK  status: ('A' for Active; 'I' for Inactive)
REMARK    1  A    between atoms: C_1  and  O_2
REMARK    2  A    between atoms: O_2  and  C_3
REMARK    3  A    between atoms: C_5  and  C_6
REMARK    4  A    between atoms: C_6  and  S_7
REMARK    5  A    between atoms: S_7  and  C_8
REMARK    6  A    between atoms: C_8  and  C_9
REMARK    7  A    between atoms: C_8  and  C_12
REMARK    8  A    between atoms: C_9  and  C_10
REMARK    9  A    between atoms: C_10  and  O_11
REMARK   10  A    between atoms: C_15  and  O_16
REMARK   11  A    between atoms: C_17  and  O_18
REMARK   12  A    between atoms: C_19  and  O_20
REMARK                            x       y       z     vdW  Elec       q    Type
REMARK                         _______ _______ _______ _____ _____    ______ ____
ROOT
ATOM      1  C   UNL     1       2.065   3.664  20.025  0.00  0.00    +0.000 C 
ATOM      2  O   UNL     1       1.562   4.498  18.980  0.00  0.00    +0.000 OA
ATOM      3  C   UNL     1       2.557   4.921  18.016  0.00  0.00    +0.000 C 
ATOM      4  C   UNL     1       3.178   3.676  17.348  0.00  0.00    +0.000 C 
ATOM      5  C   UNL     1       3.712   2.705  18.414  0.00  0.00    +0.000 C 
ATOM      6  C   UNL     1       2.629   2.350  19.447  0.00  0.00    +0.000 C 
ENDROOT
BRANCH   1   8
ATOM      7  C   UNL     1       1.541   2.552  22.045  0.00  0.00    +0.000 C 
ATOM      8  O   UNL     1       1.050   3.352  20.977  0.00  0.00    +0.000 OA
ENDBRANCH   1   8
BRANCH   4   9
ATOM      9  O   UNL     1       2.173   2.969  16.591  0.00  0.00    +0.000 OA
ATOM     10  H   UNL     1       1.463   2.699  17.201  0.00  0.00    +0.000 HD
ENDBRANCH   4   9
BRANCH   5  11
ATOM     11  O   UNL     1       4.214   1.515  17.804  0.00  0.00    +0.000 OA
ATOM     12  H   UNL     1       4.724   1.834  17.029  0.00  0.00    +0.000 HD
ENDBRANCH   5  11
BRANCH   6  13
ATOM     13  O   UNL     1       1.597   1.541  18.861  0.00  0.00    +0.000 OA
ATOM     14  H   UNL     1       1.189   1.035  19.590  0.00  0.00    +0.000 HD
ENDBRANCH   6  13
BRANCH   3  15
ATOM     15  C   UNL     1       3.555   5.910  18.646  0.00  0.00    +0.000 C 
BRANCH  15  16
ATOM     16  S   UNL     1       4.380   6.982  17.427  0.00  0.00    +0.000 S 
BRANCH  16  17
ATOM     17  C   UNL     1       5.798   5.895  16.938  0.00  0.00    +0.000 C 
BRANCH  17  18
ATOM     18  C   UNL     1       7.095   6.581  17.428  0.00  0.00    +0.000 C 
ATOM     19  O   UNL     1       7.781   5.982  18.305  0.00  0.00    +0.000 OA
ATOM     20  O   UNL     1       7.279   7.719  16.888  0.00  0.00    +0.000 OA
ENDBRANCH  17  18
BRANCH  17  21
ATOM     21  C   UNL     1       5.810   5.602  15.437  0.00  0.00    +0.000 C 
BRANCH  21  22
ATOM     22  C   UNL     1       6.992   4.738  15.005  0.00  0.00    +0.000 C 
BRANCH  22  23
ATOM     23  O   UNL     1       7.905   5.493  14.207  0.00  0.00    +0.000 OA
ATOM     24  H   UNL     1       7.358   6.093  13.674  0.00  0.00    +0.000 HD
ENDBRANCH  22  23
ENDBRANCH  21  22
ENDBRANCH  17  21
ENDBRANCH  16  17
ENDBRANCH  15  16
ENDBRANCH   3  15
TORSDOF 11
ENDMDL
MODEL 6
REMARK VINA RESULT:      -6.2      1.816      3.427
REMARK  Name = 
REMARK  12 active torsions:
REMARK  status: ('A' for Active; 'I' for Inactive)
REMARK    1  A    between atoms: C_1  and  O_2
REMARK    2  A    between atoms: O_2  and  C_3
REMARK    3  A    between atoms: C_5  and  C_6
REMARK    4  A    between atoms: C_6  and  S_7
REMARK    5  A    between atoms: S_7  and  C_8
REMARK    6  A    between atoms: C_8  and  C_9
REMARK    7  A    between atoms: C_8  and  C_12
REMARK    8  A    between atoms: C_9  and  C_10
REMARK    9  A    between atoms: C_10  and  O_11
REMARK   10  A    between atoms: C_15  and  O_16
REMARK   11  A    between atoms: C_17  and  O_18
REMARK   12  A    between atoms: C_19  and  O_20
REMARK                            x       y       z     vdW  Elec       q    Type
REMARK                         _______ _______ _______ _____ _____    ______ ____
ROOT
ATOM      1  C   UNL     1       6.787   6.601  18.068  0.00  0.00    +0.000 C 
ATOM      2  O   UNL     1       6.719   5.322  18.700  0.00  0.00    +0.000 OA
ATOM      3  C   UNL     1       5.448   4.643  18.548  0.00  0.00    +0.000 C 
ATOM      4  C   UNL     1       5.164   4.427  17.048  0.00  0.00    +0.000 C 
ATOM      5  C   UNL     1       5.256   5.759  16.286  0.00  0.00    +0.000 C 
ATOM      6  C   UNL     1       6.599   6.464  16.543  0.00  0.00    +0.000 C 
ENDROOT
BRANCH   1   8
ATOM      7  C   UNL     1       8.036   8.603  17.909  0.00  0.00    +0.000 C 
ATOM      8  O   UNL     1       8.035   7.243  18.323  0.00  0.00    +0.000 OA
ENDBRANCH   1   8
BRANCH   4   9
ATOM      9  O   UNL     1       6.152   3.541  16.481  0.00  0.00    +0.000 OA
ATOM     10  H   UNL     1       5.799   2.633  16.503  0.00  0.00    +0.000 HD
ENDBRANCH   4   9
BRANCH   5  11
ATOM     11  O   UNL     1       5.074   5.551  14.885  0.00  0.00    +0.000 OA
ATOM     12  H   UNL     1       5.892   5.907  14.476  0.00  0.00    +0.000 HD
ENDBRANCH   5  11
BRANCH   6  13
ATOM     13  O   UNL     1       7.687   5.749  15.935  0.00  0.00    +0.000 OA
ATOM     14  H   UNL     1       8.422   5.757  16.577  0.00  0.00    +0.000 HD
ENDBRANCH   6  13
BRANCH   3  15
ATOM     15  C   UNL     1       4.339   5.358  19.344  0.00  0.00    +0.000 C 
BRANCH  15  16
ATOM     16  S   UNL     1       2.666   5.038  18.700  0.00  0.00    +0.000 S 
BRANCH  16  17
ATOM     17  C   UNL     1       2.288   3.436  19.550  0.00  0.00    +0.000 C 
BRANCH  17  18
ATOM     18  C   UNL     1       2.004   2.387  18.449  0.00  0.00    +0.000 C 
ATOM     19  O   UNL     1       2.998   1.829  17.899  0.00  0.00    +0.000 OA
ATOM     20  O   UNL     1       0.761   2.253  18.211  0.00  0.00    +0.000 OA
ENDBRANCH  17  18
BRANCH  17  21
ATOM     21  C   UNL     1       1.142   3.570  20.553  0.00  0.00    +0.000 C 
BRANCH  21  22
ATOM     22  C   UNL     1       1.411   2.847  21.870  0.00  0.00    +0.000 C 
BRANCH  22  23
ATOM     23  O   UNL     1       2.777   2.438  21.952  0.00  0.00    +0.000 OA
ATOM     24  H   UNL     1       2.800   1.523  21.625  0.00  0.00    +0.000 HD
ENDBRANCH  22  23
ENDBRANCH  21  22
ENDBRANCH  17  21
ENDBRANCH  16  17
ENDBRANCH  15  16
ENDBRANCH   3  15
TORSDOF 11
ENDMDL
MODEL 7
REMARK VINA RESULT:      -6.2      1.655      3.227
REMARK  Name = 
REMARK  12 active torsions:
REMARK  status: ('A' for Active; 'I' for Inactive)
REMARK    1  A    between atoms: C_1  and  O_2
REMARK    2  A    between atoms: O_2  and  C_3
REMARK    3  A    between atoms: C_5  and  C_6
REMARK    4  A    between atoms: C_6  and  S_7
REMARK    5  A    between atoms: S_7  and  C_8
REMARK    6  A    between atoms: C_8  and  C_9
REMARK    7  A    between atoms: C_8  and  C_12
REMARK    8  A    between atoms: C_9  and  C_10
REMARK    9  A    between atoms: C_10  and  O_11
REMARK   10  A    between atoms: C_15  and  O_16
REMARK   11  A    between atoms: C_17  and  O_18
REMARK   12  A    between atoms: C_19  and  O_20
REMARK                            x       y       z     vdW  Elec       q    Type
REMARK                         _______ _______ _______ _____ _____    ______ ____
ROOT
ATOM      1  C   UNL     1       6.979   6.731  18.108  0.00  0.00    +0.000 C 
ATOM      2  O   UNL     1       7.062   5.412  18.651  0.00  0.00    +0.000 OA
ATOM      3  C   UNL     1       5.835   4.647  18.565  0.00  0.00    +0.000 C 
ATOM      4  C   UNL     1       5.428   4.506  17.083  0.00  0.00    +0.000 C 
ATOM      5  C   UNL     1       5.353   5.888  16.413  0.00  0.00    +0.000 C 
ATOM      6  C   UNL     1       6.660   6.676  16.600  0.00  0.00    +0.000 C 
ENDROOT
BRANCH   1   8
ATOM      7  C   UNL     1       8.079   8.815  17.918  0.00  0.00    +0.000 C 
ATOM      8  O   UNL     1       8.196   7.450  18.297  0.00  0.00    +0.000 OA
ENDBRANCH   1   8
BRANCH   4   9
ATOM      9  O   UNL     1       6.421   3.738  16.371  0.00  0.00    +0.000 OA
ATOM     10  H   UNL     1       7.284   3.877  16.801  0.00  0.00    +0.000 HD
ENDBRANCH   4   9
BRANCH   5  11
ATOM     11  O   UNL     1       5.057   5.756  15.022  0.00  0.00    +0.000 OA
ATOM     12  H   UNL     1       5.844   5.306  14.646  0.00  0.00    +0.000 HD
ENDBRANCH   5  11
BRANCH   6  13
ATOM     13  O   UNL     1       7.735   6.089  15.849  0.00  0.00    +0.000 OA
ATOM     14  H   UNL     1       8.048   6.771  15.225  0.00  0.00    +0.000 HD
ENDBRANCH   6  13
BRANCH   3  15
ATOM     15  C   UNL     1       4.757   5.221  19.503  0.00  0.00    +0.000 C 
BRANCH  15  16
ATOM     16  S   UNL     1       3.098   4.529  19.209  0.00  0.00    +0.000 S 
BRANCH  16  17
ATOM     17  C   UNL     1       3.120   3.106  20.396  0.00  0.00    +0.000 C 
BRANCH  17  18
ATOM     18  C   UNL     1       4.065   2.031  19.810  0.00  0.00    +0.000 C 
ATOM     19  O   UNL     1       3.739   1.500  18.709  0.00  0.00    +0.000 OA
ATOM     20  O   UNL     1       5.060   1.792  20.566  0.00  0.00    +0.000 OA
ENDBRANCH  17  18
BRANCH  17  21
ATOM     21  C   UNL     1       1.716   2.572  20.683  0.00  0.00    +0.000 C 
BRANCH  21  22
ATOM     22  C   UNL     1       0.726   2.851  19.555  0.00  0.00    +0.000 C 
BRANCH  22  23
ATOM     23  O   UNL     1       0.772   1.813  18.575  0.00  0.00    +0.000 OA
ATOM     24  H   UNL     1       0.830   2.262  17.715  0.00  0.00    +0.000 HD
ENDBRANCH  22  23
ENDBRANCH  21  22
ENDBRANCH  17  21
ENDBRANCH  16  17
ENDBRANCH  15  16
ENDBRANCH   3  15
TORSDOF 11
ENDMDL
MODEL 8
REMARK VINA RESULT:      -6.2      2.630      6.197
REMARK  Name = 
REMARK  12 active torsions:
REMARK  status: ('A' for Active; 'I' for Inactive)
REMARK    1  A    between atoms: C_1  and  O_2
REMARK    2  A    between atoms: O_2  and  C_3
REMARK    3  A    between atoms: C_5  and  C_6
REMARK    4  A    between atoms: C_6  and  S_7
REMARK    5  A    between atoms: S_7  and  C_8
REMARK    6  A    between atoms: C_8  and  C_9
REMARK    7  A    between atoms: C_8  and  C_12
REMARK    8  A    between atoms: C_9  and  C_10
REMARK    9  A    between atoms: C_10  and  O_11
REMARK   10  A    between atoms: C_15  and  O_16
REMARK   11  A    between atoms: C_17  and  O_18
REMARK   12  A    between atoms: C_19  and  O_20
REMARK                            x       y       z     vdW  Elec       q    Type
REMARK                         _______ _______ _______ _____ _____    ______ ____
ROOT
ATOM      1  C   UNL     1       2.770   4.559  19.991  0.00  0.00    +0.000 C 
ATOM      2  O   UNL     1       2.245   4.882  18.702  0.00  0.00    +0.000 OA
ATOM      3  C   UNL     1       3.131   4.578  17.597  0.00  0.00    +0.000 C 
ATOM      4  C   UNL     1       3.444   3.067  17.598  0.00  0.00    +0.000 C 
ATOM      5  C   UNL     1       3.982   2.631  18.971  0.00  0.00    +0.000 C 
ATOM      6  C   UNL     1       3.030   3.043  20.106  0.00  0.00    +0.000 C 
ENDROOT
BRANCH   1   8
ATOM      7  C   UNL     1       1.439   6.299  20.881  0.00  0.00    +0.000 C 
ATOM      8  O   UNL     1       1.879   4.956  21.031  0.00  0.00    +0.000 OA
ENDBRANCH   1   8
BRANCH   4   9
ATOM      9  O   UNL     1       2.237   2.314  17.352  0.00  0.00    +0.000 OA
ATOM     10  H   UNL     1       2.458   1.562  16.773  0.00  0.00    +0.000 HD
ENDBRANCH   4   9
BRANCH   5  11
ATOM     11  O   UNL     1       4.195   1.219  19.001  0.00  0.00    +0.000 OA
ATOM     12  H   UNL     1       5.088   1.115  19.393  0.00  0.00    +0.000 HD
ENDBRANCH   5  11
BRANCH   6  13
ATOM     13  O   UNL     1       1.808   2.289  20.061  0.00  0.00    +0.000 OA
ATOM     14  H   UNL     1       1.086   2.912  20.266  0.00  0.00    +0.000 HD
ENDBRANCH   6  13
BRANCH   3  15
ATOM     15  C   UNL     1       4.354   5.514  17.594  0.00  0.00    +0.000 C 
BRANCH  15  16
ATOM     16  S   UNL     1       5.598   5.077  16.338  0.00  0.00    +0.000 S 
BRANCH  16  17
ATOM     17  C   UNL     1       7.090   5.918  17.044  0.00  0.00    +0.000 C 
BRANCH  17  18
ATOM     18  C   UNL     1       7.678   4.982  18.126  0.00  0.00    +0.000 C 
ATOM     19  O   UNL     1       7.440   5.261  19.337  0.00  0.00    +0.000 OA
ATOM     20  O   UNL     1       8.381   4.045  17.630  0.00  0.00    +0.000 OA
ENDBRANCH  17  18
BRANCH  17  21
ATOM     21  C   UNL     1       6.767   7.315  17.577  0.00  0.00    +0.000 C 
BRANCH  21  22
ATOM     22  C   UNL     1       7.983   8.236  17.617  0.00  0.00    +0.000 C 
BRANCH  22  23
ATOM     23  O   UNL     1       8.633   8.161  18.888  0.00  0.00    +0.000 OA
ATOM     24  H   UNL     1       8.063   8.648  19.506  0.00  0.00    +0.000 HD
ENDBRANCH  22  23
ENDBRANCH  21  22
ENDBRANCH  17  21
ENDBRANCH  16  17
ENDBRANCH  15  16
ENDBRANCH   3  15
TORSDOF 11
ENDMDL
MODEL 9
REMARK VINA RESULT:      -6.2      2.422      6.189
REMARK  Name = 
REMARK  12 active torsions:
REMARK  status: ('A' for Active; 'I' for Inactive)
REMARK    1  A    between atoms: C_1  and  O_2
REMARK    2  A    between atoms: O_2  and  C_3
REMARK    3  A    between atoms: C_5  and  C_6
REMARK    4  A    between atoms: C_6  and  S_7
REMARK    5  A    between atoms: S_7  and  C_8
REMARK    6  A    between atoms: C_8  and  C_9
REMARK    7  A    between atoms: C_8  and  C_12
REMARK    8  A    between atoms: C_9  and  C_10
REMARK    9  A    between atoms: C_10  and  O_11
REMARK   10  A    between atoms: C_15  and  O_16
REMARK   11  A    between atoms: C_17  and  O_18
REMARK   12  A    between atoms: C_19  and  O_20
REMARK                            x       y       z     vdW  Elec       q    Type
REMARK                         _______ _______ _______ _____ _____    ______ ____
ROOT
ATOM      1  C   UNL     1       2.891   5.469  19.566  0.00  0.00    +0.000 C 
ATOM      2  O   UNL     1       2.376   4.815  18.405  0.00  0.00    +0.000 OA
ATOM      3  C   UNL     1       2.697   3.405  18.316  0.00  0.00    +0.000 C 
ATOM      4  C   UNL     1       2.120   2.674  19.546  0.00  0.00    +0.000 C 
ATOM      5  C   UNL     1       2.600   3.345  20.843  0.00  0.00    +0.000 C 
ATOM      6  C   UNL     1       2.292   4.852  20.846  0.00  0.00    +0.000 C 
ENDROOT
BRANCH   1   8
ATOM      7  C   UNL     1       2.512   7.380  18.226  0.00  0.00    +0.000 C 
ATOM      8  O   UNL     1       2.603   6.866  19.548  0.00  0.00    +0.000 OA
ENDBRANCH   1   8
BRANCH   4   9
ATOM      9  O   UNL     1       0.679   2.750  19.533  0.00  0.00    +0.000 OA
ATOM     10  H   UNL     1       0.334   2.148  20.217  0.00  0.00    +0.000 HD
ENDBRANCH   4   9
BRANCH   5  11
ATOM     11  O   UNL     1       2.003   2.723  21.982  0.00  0.00    +0.000 OA
ATOM     12  H   UNL     1       2.753   2.565  22.595  0.00  0.00    +0.000 HD
ENDBRANCH   5  11
BRANCH   6  13
ATOM     13  O   UNL     1       0.879   5.094  20.943  0.00  0.00    +0.000 OA
ATOM     14  H   UNL     1       0.451   4.539  20.264  0.00  0.00    +0.000 HD
ENDBRANCH   6  13
BRANCH   3  15
ATOM     15  C   UNL     1       4.201   3.195  18.057  0.00  0.00    +0.000 C 
BRANCH  15  16
ATOM     16  S   UNL     1       4.796   4.011  16.542  0.00  0.00    +0.000 S 
BRANCH  16  17
ATOM     17  C   UNL     1       6.067   5.151  17.260  0.00  0.00    +0.000 C 
BRANCH  17  18
ATOM     18  C   UNL     1       7.375   4.946  16.459  0.00  0.00    +0.000 C 
ATOM     19  O   UNL     1       8.232   4.143  16.929  0.00  0.00    +0.000 OA
ATOM     20  O   UNL     1       7.427   5.673  15.416  0.00  0.00    +0.000 OA
ENDBRANCH  17  18
BRANCH  17  21
ATOM     21  C   UNL     1       6.251   4.939  18.763  0.00  0.00    +0.000 C 
BRANCH  21  22
ATOM     22  C   UNL     1       7.288   5.875  19.378  0.00  0.00    +0.000 C 
BRANCH  22  23
ATOM     23  O   UNL     1       7.911   5.264  20.510  0.00  0.00    +0.000 OA
ATOM     24  H   UNL     1       7.458   5.625  21.290  0.00  0.00    +0.000 HD
ENDBRANCH  22  23
ENDBRANCH  21  22
ENDBRANCH  17  21
ENDBRANCH  16  17
ENDBRANCH  15  16
ENDBRANCH   3  15
TORSDOF 11
ENDMDL
