MODEL 1
REMARK VINA RESULT:      -8.4      0.000      0.000
REMARK  Name = 
REMARK  5 active torsions:
REMARK  status: ('A' for Active; 'I' for Inactive)
REMARK    1  A    between atoms: C_1  and  C_2
REMARK    2  A    between atoms: C_5  and  C_6
REMARK    3  A    between atoms: C_6  and  N_7
REMARK    4  A    between atoms: C_8  and  C_9
REMARK    5  A    between atoms: C_13  and  N_14
REMARK                            x       y       z     vdW  Elec       q    Type
REMARK                         _______ _______ _______ _____ _____    ______ ____
ROOT
ATOM      1  N   UNL     1       4.265   5.938  18.206  0.00  0.00    +0.000 N 
ATOM      2  C   UNL     1       4.233   4.755  18.935  0.00  0.00    +0.000 A 
ATOM      3  N   UNL     1       5.468   4.419  19.285  0.00  0.00    +0.000 NA
ATOM      4  C   UNL     1       6.294   5.410  18.825  0.00  0.00    +0.000 A 
ATOM      5  C   UNL     1       7.690   5.529  18.922  0.00  0.00    +0.000 A 
ATOM      6  C   UNL     1       8.315   6.652  18.365  0.00  0.00    +0.000 A 
ATOM      7  C   UNL     1       7.566   7.640  17.727  0.00  0.00    +0.000 A 
ATOM      8  C   UNL     1       6.176   7.533  17.615  0.00  0.00    +0.000 A 
ATOM      9  C   UNL     1       5.569   6.395  18.170  0.00  0.00    +0.000 A 
ENDROOT
BRANCH   2  10
ATOM     10  C   UNL     1       3.056   3.913  19.227  0.00  0.00    +0.000 A 
ATOM     11  C   UNL     1       2.216   3.396  18.233  0.00  0.00    +0.000 A 
ATOM     12  C   UNL     1       1.159   2.544  18.558  0.00  0.00    +0.000 A 
ATOM     13  C   UNL     1       0.876   2.260  19.892  0.00  0.00    +0.000 A 
ATOM     14  C   UNL     1       1.614   2.862  20.911  0.00  0.00    +0.000 A 
ATOM     15  C   UNL     1       2.734   3.632  20.568  0.00  0.00    +0.000 A 
BRANCH  14  16
ATOM     16  N   UNL     1       1.372   2.513  22.246  0.00  0.00    +0.000 N 
ATOM     17  H   UNL     1       1.127   3.309  22.831  0.00  0.00    +0.000 HD
ATOM     18  H   UNL     1       2.118   1.959  22.655  0.00  0.00    +0.000 HD
ENDBRANCH  14  16
ENDBRANCH   2  10
BRANCH   1  19
ATOM     19  C   UNL     1       3.166   6.603  17.518  0.00  0.00    +0.000 C 
BRANCH  19  24
ATOM     20  C   UNL     1       0.035  10.476  20.533  0.00  0.00    +0.000 C 
ATOM     21  C   UNL     1       0.902   9.517  19.773  0.00  0.00    +0.000 A 
ATOM     22  C   UNL     1       1.191   9.723  18.421  0.00  0.00    +0.000 A 
ATOM     23  C   UNL     1       1.951   8.791  17.712  0.00  0.00    +0.000 A 
ATOM     24  C   UNL     1       2.441   7.638  18.341  0.00  0.00    +0.000 A 
ATOM     25  C   UNL     1       2.155   7.441  19.699  0.00  0.00    +0.000 A 
ATOM     26  C   UNL     1       1.400   8.376  20.409  0.00  0.00    +0.000 A 
ENDBRANCH  19  24
ENDBRANCH   1  19
TORSDOF 4
ENDMDL
MODEL 2
REMARK VINA RESULT:      -8.2      0.925      1.335
REMARK  Name = 
REMARK  5 active torsions:
REMARK  status: ('A' for Active; 'I' for Inactive)
REMARK    1  A    between atoms: C_1  and  C_2
REMARK    2  A    between atoms: C_5  and  C_6
REMARK    3  A    between atoms: C_6  and  N_7
REMARK    4  A    between atoms: C_8  and  C_9
REMARK    5  A    between atoms: C_13  and  N_14
REMARK                            x       y       z     vdW  Elec       q    Type
REMARK                         _______ _______ _______ _____ _____    ______ ____
ROOT
ATOM      1  N   UNL     1       4.257   5.933  18.473  0.00  0.00    +0.000 N 
ATOM      2  C   UNL     1       4.320   4.878  19.376  0.00  0.00    +0.000 A 
ATOM      3  N   UNL     1       5.587   4.643  19.691  0.00  0.00    +0.000 NA
ATOM      4  C   UNL     1       6.340   5.577  19.032  0.00  0.00    +0.000 A 
ATOM      5  C   UNL     1       7.733   5.757  19.019  0.00  0.00    +0.000 A 
ATOM      6  C   UNL     1       8.274   6.800  18.256  0.00  0.00    +0.000 A 
ATOM      7  C   UNL     1       7.447   7.650  17.525  0.00  0.00    +0.000 A 
ATOM      8  C   UNL     1       6.058   7.480  17.521  0.00  0.00    +0.000 A 
ATOM      9  C   UNL     1       5.535   6.423  18.282  0.00  0.00    +0.000 A 
ENDROOT
BRANCH   2  10
ATOM     10  C   UNL     1       3.200   4.053  19.869  0.00  0.00    +0.000 A 
ATOM     11  C   UNL     1       2.754   4.076  21.196  0.00  0.00    +0.000 A 
ATOM     12  C   UNL     1       1.642   3.331  21.593  0.00  0.00    +0.000 A 
ATOM     13  C   UNL     1       1.006   2.488  20.686  0.00  0.00    +0.000 A 
ATOM     14  C   UNL     1       1.504   2.346  19.391  0.00  0.00    +0.000 A 
ATOM     15  C   UNL     1       2.556   3.174  18.978  0.00  0.00    +0.000 A 
BRANCH  14  16
ATOM     16  N   UNL     1       0.815   1.554  18.463  0.00  0.00    +0.000 N 
ATOM     17  H   UNL     1       1.346   0.744  18.153  0.00  0.00    +0.000 HD
ATOM     18  H   UNL     1       0.446   2.086  17.680  0.00  0.00    +0.000 HD
ENDBRANCH  14  16
ENDBRANCH   2  10
BRANCH   1  19
ATOM     19  C   UNL     1       3.091   6.445  17.764  0.00  0.00    +0.000 C 
BRANCH  19  24
ATOM     20  C   UNL     1       0.017  10.704  20.274  0.00  0.00    +0.000 C 
ATOM     21  C   UNL     1       0.871   9.645  19.643  0.00  0.00    +0.000 A 
ATOM     22  C   UNL     1       1.213   9.708  18.289  0.00  0.00    +0.000 A 
ATOM     23  C   UNL     1       1.959   8.685  17.702  0.00  0.00    +0.000 A 
ATOM     24  C   UNL     1       2.381   7.581  18.456  0.00  0.00    +0.000 A 
ATOM     25  C   UNL     1       2.041   7.527  19.816  0.00  0.00    +0.000 A 
ATOM     26  C   UNL     1       1.300   8.554  20.403  0.00  0.00    +0.000 A 
ENDBRANCH  19  24
ENDBRANCH   1  19
TORSDOF 4
ENDMDL
MODEL 3
REMARK VINA RESULT:      -7.9      1.352      5.139
REMARK  Name = 
REMARK  5 active torsions:
REMARK  status: ('A' for Active; 'I' for Inactive)
REMARK    1  A    between atoms: C_1  and  C_2
REMARK    2  A    between atoms: C_5  and  C_6
REMARK    3  A    between atoms: C_6  and  N_7
REMARK    4  A    between atoms: C_8  and  C_9
REMARK    5  A    between atoms: C_13  and  N_14
REMARK                            x       y       z     vdW  Elec       q    Type
REMARK                         _______ _______ _______ _____ _____    ______ ____
ROOT
ATOM      1  N   UNL     1       3.104   5.109  19.385  0.00  0.00    +0.000 N 
ATOM      2  C   UNL     1       4.163   4.780  18.546  0.00  0.00    +0.000 A 
ATOM      3  N   UNL     1       3.916   3.618  17.957  0.00  0.00    +0.000 NA
ATOM      4  C   UNL     1       2.675   3.217  18.376  0.00  0.00    +0.000 A 
ATOM      5  C   UNL     1       1.954   2.056  18.056  0.00  0.00    +0.000 A 
ATOM      6  C   UNL     1       0.685   1.868  18.619  0.00  0.00    +0.000 A 
ATOM      7  C   UNL     1       0.141   2.821  19.479  0.00  0.00    +0.000 A 
ATOM      8  C   UNL     1       0.848   3.980  19.814  0.00  0.00    +0.000 A 
ATOM      9  C   UNL     1       2.123   4.144  19.249  0.00  0.00    +0.000 A 
ENDROOT
BRANCH   2  10
ATOM     10  C   UNL     1       5.428   5.521  18.369  0.00  0.00    +0.000 A 
ATOM     11  C   UNL     1       5.605   6.519  17.403  0.00  0.00    +0.000 A 
ATOM     12  C   UNL     1       6.797   7.241  17.327  0.00  0.00    +0.000 A 
ATOM     13  C   UNL     1       7.862   6.920  18.164  0.00  0.00    +0.000 A 
ATOM     14  C   UNL     1       7.762   5.847  19.049  0.00  0.00    +0.000 A 
ATOM     15  C   UNL     1       6.527   5.199  19.186  0.00  0.00    +0.000 A 
BRANCH  14  16
ATOM     16  N   UNL     1       8.810   5.579  19.940  0.00  0.00    +0.000 N 
ATOM     17  H   UNL     1       8.746   4.660  20.371  0.00  0.00    +0.000 HD
ATOM     18  H   UNL     1       8.944   6.311  20.631  0.00  0.00    +0.000 HD
ENDBRANCH  14  16
ENDBRANCH   2  10
BRANCH   1  19
ATOM     19  C   UNL     1       3.005   6.223  20.319  0.00  0.00    +0.000 C 
BRANCH  19  24
ATOM     20  C   UNL     1       0.178  10.994  18.550  0.00  0.00    +0.000 C 
ATOM     21  C   UNL     1       0.845   9.726  18.989  0.00  0.00    +0.000 A 
ATOM     22  C   UNL     1       0.736   9.274  20.307  0.00  0.00    +0.000 A 
ATOM     23  C   UNL     1       1.412   8.122  20.716  0.00  0.00    +0.000 A 
ATOM     24  C   UNL     1       2.205   7.398  19.815  0.00  0.00    +0.000 A 
ATOM     25  C   UNL     1       2.305   7.852  18.492  0.00  0.00    +0.000 A 
ATOM     26  C   UNL     1       1.624   9.000  18.083  0.00  0.00    +0.000 A 
ENDBRANCH  19  24
ENDBRANCH   1  19
TORSDOF 4
ENDMDL
MODEL 4
REMARK VINA RESULT:      -7.8      2.006      5.092
REMARK  Name = 
REMARK  5 active torsions:
REMARK  status: ('A' for Active; 'I' for Inactive)
REMARK    1  A    between atoms: C_1  and  C_2
REMARK    2  A    between atoms: C_5  and  C_6
REMARK    3  A    between atoms: C_6  and  N_7
REMARK    4  A    between atoms: C_8  and  C_9
REMARK    5  A    between atoms: C_13  and  N_14
REMARK                            x       y       z     vdW  Elec       q    Type
REMARK                         _______ _______ _______ _____ _____    ______ ____
ROOT
ATOM      1  N   UNL     1       3.638   5.402  17.164  0.00  0.00    +0.000 N 
ATOM      2  C   UNL     1       3.819   6.646  17.758  0.00  0.00    +0.000 A 
ATOM      3  N   UNL     1       5.083   7.023  17.616  0.00  0.00    +0.000 NA
ATOM      4  C   UNL     1       5.710   6.046  16.888  0.00  0.00    +0.000 A 
ATOM      5  C   UNL     1       7.048   5.957  16.476  0.00  0.00    +0.000 A 
ATOM      6  C   UNL     1       7.455   4.844  15.729  0.00  0.00    +0.000 A 
ATOM      7  C   UNL     1       6.546   3.842  15.393  0.00  0.00    +0.000 A 
ATOM      8  C   UNL     1       5.210   3.911  15.803  0.00  0.00    +0.000 A 
ATOM      9  C   UNL     1       4.825   5.028  16.560  0.00  0.00    +0.000 A 
ENDROOT
BRANCH   2  10
ATOM     10  C   UNL     1       2.825   7.429  18.518  0.00  0.00    +0.000 A 
ATOM     11  C   UNL     1       2.424   7.105  19.820  0.00  0.00    +0.000 A 
ATOM     12  C   UNL     1       1.535   7.921  20.522  0.00  0.00    +0.000 A 
ATOM     13  C   UNL     1       0.971   9.033  19.903  0.00  0.00    +0.000 A 
ATOM     14  C   UNL     1       1.251   9.311  18.565  0.00  0.00    +0.000 A 
ATOM     15  C   UNL     1       2.221   8.543  17.906  0.00  0.00    +0.000 A 
BRANCH  14  16
ATOM     16  N   UNL     1       0.739  10.472  17.973  0.00  0.00    +0.000 N 
ATOM     17  H   UNL     1      -0.001  10.288  17.299  0.00  0.00    +0.000 HD
ATOM     18  H   UNL     1       1.460  11.074  17.586  0.00  0.00    +0.000 HD
ENDBRANCH  14  16
ENDBRANCH   2  10
BRANCH   1  19
ATOM     19  C   UNL     1       2.453   4.555  17.188  0.00  0.00    +0.000 C 
BRANCH  19  24
ATOM     20  C   UNL     1       1.594   2.246  22.463  0.00  0.00    +0.000 C 
ATOM     21  C   UNL     1       1.808   2.773  21.076  0.00  0.00    +0.000 A 
ATOM     22  C   UNL     1       3.087   2.825  20.514  0.00  0.00    +0.000 A 
ATOM     23  C   UNL     1       3.277   3.372  19.244  0.00  0.00    +0.000 A 
ATOM     24  C   UNL     1       2.193   3.874  18.509  0.00  0.00    +0.000 A 
ATOM     25  C   UNL     1       0.912   3.812  19.075  0.00  0.00    +0.000 A 
ATOM     26  C   UNL     1       0.722   3.259  20.342  0.00  0.00    +0.000 A 
ENDBRANCH  19  24
ENDBRANCH   1  19
TORSDOF 4
ENDMDL
MODEL 5
REMARK VINA RESULT:      -7.6      1.637      4.950
REMARK  Name = 
REMARK  5 active torsions:
REMARK  status: ('A' for Active; 'I' for Inactive)
REMARK    1  A    between atoms: C_1  and  C_2
REMARK    2  A    between atoms: C_5  and  C_6
REMARK    3  A    between atoms: C_6  and  N_7
REMARK    4  A    between atoms: C_8  and  C_9
REMARK    5  A    between atoms: C_13  and  N_14
REMARK                            x       y       z     vdW  Elec       q    Type
REMARK                         _______ _______ _______ _____ _____    ______ ____
ROOT
ATOM      1  N   UNL     1       3.139   4.597  18.551  0.00  0.00    +0.000 N 
ATOM      2  C   UNL     1       4.483   4.243  18.492  0.00  0.00    +0.000 A 
ATOM      3  N   UNL     1       4.758   3.392  19.471  0.00  0.00    +0.000 NA
ATOM      4  C   UNL     1       3.584   3.156  20.135  0.00  0.00    +0.000 A 
ATOM      5  C   UNL     1       3.334   2.342  21.251  0.00  0.00    +0.000 A 
ATOM      6  C   UNL     1       2.030   2.262  21.754  0.00  0.00    +0.000 A 
ATOM      7  C   UNL     1       0.991   2.974  21.155  0.00  0.00    +0.000 A 
ATOM      8  C   UNL     1       1.224   3.796  20.047  0.00  0.00    +0.000 A 
ATOM      9  C   UNL     1       2.540   3.872  19.565  0.00  0.00    +0.000 A 
ENDROOT
BRANCH   2  10
ATOM     10  C   UNL     1       5.507   4.769  17.568  0.00  0.00    +0.000 A 
ATOM     11  C   UNL     1       5.912   4.097  16.408  0.00  0.00    +0.000 A 
ATOM     12  C   UNL     1       6.831   4.673  15.529  0.00  0.00    +0.000 A 
ATOM     13  C   UNL     1       7.420   5.897  15.837  0.00  0.00    +0.000 A 
ATOM     14  C   UNL     1       7.133   6.530  17.046  0.00  0.00    +0.000 A 
ATOM     15  C   UNL     1       6.135   5.991  17.869  0.00  0.00    +0.000 A 
BRANCH  14  16
ATOM     16  N   UNL     1       7.672   7.795  17.315  0.00  0.00    +0.000 N 
ATOM     17  H   UNL     1       7.733   8.003  18.309  0.00  0.00    +0.000 HD
ATOM     18  H   UNL     1       7.214   8.541  16.800  0.00  0.00    +0.000 HD
ENDBRANCH  14  16
ENDBRANCH   2  10
BRANCH   1  19
ATOM     19  C   UNL     1       2.433   5.596  17.759  0.00  0.00    +0.000 C 
BRANCH  19  24
ATOM     20  C   UNL     1       0.941  10.536  20.453  0.00  0.00    +0.000 C 
ATOM     21  C   UNL     1       1.396   9.285  19.764  0.00  0.00    +0.000 A 
ATOM     22  C   UNL     1       1.535   9.239  18.373  0.00  0.00    +0.000 A 
ATOM     23  C   UNL     1       1.903   8.050  17.741  0.00  0.00    +0.000 A 
ATOM     24  C   UNL     1       2.144   6.886  18.485  0.00  0.00    +0.000 A 
ATOM     25  C   UNL     1       2.011   6.941  19.880  0.00  0.00    +0.000 A 
ATOM     26  C   UNL     1       1.648   8.132  20.511  0.00  0.00    +0.000 A 
ENDBRANCH  19  24
ENDBRANCH   1  19
TORSDOF 4
ENDMDL
MODEL 6
REMARK VINA RESULT:      -7.6      2.302      5.388
REMARK  Name = 
REMARK  5 active torsions:
REMARK  status: ('A' for Active; 'I' for Inactive)
REMARK    1  A    between atoms: C_1  and  C_2
REMARK    2  A    between atoms: C_5  and  C_6
REMARK    3  A    between atoms: C_6  and  N_7
REMARK    4  A    between atoms: C_8  and  C_9
REMARK    5  A    between atoms: C_13  and  N_14
REMARK                            x       y       z     vdW  Elec       q    Type
REMARK                         _______ _______ _______ _____ _____    ______ ____
ROOT
ATOM      1  N   UNL     1       3.426   4.850  18.468  0.00  0.00    +0.000 N 
ATOM      2  C   UNL     1       3.949   4.125  17.403  0.00  0.00    +0.000 A 
ATOM      3  N   UNL     1       3.334   2.952  17.323  0.00  0.00    +0.000 NA
ATOM      4  C   UNL     1       2.379   2.937  18.305  0.00  0.00    +0.000 A 
ATOM      5  C   UNL     1       1.467   1.928  18.651  0.00  0.00    +0.000 A 
ATOM      6  C   UNL     1       0.576   2.152  19.708  0.00  0.00    +0.000 A 
ATOM      7  C   UNL     1       0.588   3.359  20.405  0.00  0.00    +0.000 A 
ATOM      8  C   UNL     1       1.496   4.373  20.078  0.00  0.00    +0.000 A 
ATOM      9  C   UNL     1       2.388   4.125  19.023  0.00  0.00    +0.000 A 
ENDROOT
BRANCH   2  10
ATOM     10  C   UNL     1       5.072   4.508  16.524  0.00  0.00    +0.000 A 
ATOM     11  C   UNL     1       6.015   5.486  16.864  0.00  0.00    +0.000 A 
ATOM     12  C   UNL     1       7.100   5.757  16.030  0.00  0.00    +0.000 A 
ATOM     13  C   UNL     1       7.216   5.111  14.802  0.00  0.00    +0.000 A 
ATOM     14  C   UNL     1       6.225   4.226  14.377  0.00  0.00    +0.000 A 
ATOM     15  C   UNL     1       5.197   3.887  15.268  0.00  0.00    +0.000 A 
BRANCH  14  16
ATOM     16  N   UNL     1       6.386   3.524  13.176  0.00  0.00    +0.000 N 
ATOM     17  H   UNL     1       6.618   4.124  12.387  0.00  0.00    +0.000 HD
ATOM     18  H   UNL     1       5.605   2.909  12.965  0.00  0.00    +0.000 HD
ENDBRANCH  14  16
ENDBRANCH   2  10
BRANCH   1  19
ATOM     19  C   UNL     1       3.885   6.126  19.002  0.00  0.00    +0.000 C 
BRANCH  19  24
ATOM     20  C   UNL     1       0.282  10.693  18.763  0.00  0.00    +0.000 C 
ATOM     21  C   UNL     1       1.153   9.473  18.804  0.00  0.00    +0.000 A 
ATOM     22  C   UNL     1       1.271   8.712  19.971  0.00  0.00    +0.000 A 
ATOM     23  C   UNL     1       2.131   7.613  20.012  0.00  0.00    +0.000 A 
ATOM     24  C   UNL     1       2.887   7.251  18.887  0.00  0.00    +0.000 A 
ATOM     25  C   UNL     1       2.758   8.014  17.718  0.00  0.00    +0.000 A 
ATOM     26  C   UNL     1       1.893   9.109  17.676  0.00  0.00    +0.000 A 
ENDBRANCH  19  24
ENDBRANCH   1  19
TORSDOF 4
ENDMDL
MODEL 7
REMARK VINA RESULT:      -7.6      1.961      5.020
REMARK  Name = 
REMARK  5 active torsions:
REMARK  status: ('A' for Active; 'I' for Inactive)
REMARK    1  A    between atoms: C_1  and  C_2
REMARK    2  A    between atoms: C_5  and  C_6
REMARK    3  A    between atoms: C_6  and  N_7
REMARK    4  A    between atoms: C_8  and  C_9
REMARK    5  A    between atoms: C_13  and  N_14
REMARK                            x       y       z     vdW  Elec       q    Type
REMARK                         _______ _______ _______ _____ _____    ______ ____
ROOT
ATOM      1  N   UNL     1       3.069   4.468  18.541  0.00  0.00    +0.000 N 
ATOM      2  C   UNL     1       4.395   4.068  18.414  0.00  0.00    +0.000 A 
ATOM      3  N   UNL     1       4.702   3.238  19.402  0.00  0.00    +0.000 NA
ATOM      4  C   UNL     1       3.562   3.060  20.140  0.00  0.00    +0.000 A 
ATOM      5  C   UNL     1       3.354   2.289  21.294  0.00  0.00    +0.000 A 
ATOM      6  C   UNL     1       2.080   2.268  21.876  0.00  0.00    +0.000 A 
ATOM      7  C   UNL     1       1.031   2.996  21.317  0.00  0.00    +0.000 A 
ATOM      8  C   UNL     1       1.223   3.776  20.172  0.00  0.00    +0.000 A 
ATOM      9  C   UNL     1       2.510   3.794  19.610  0.00  0.00    +0.000 A 
ENDROOT
BRANCH   2  10
ATOM     10  C   UNL     1       5.378   4.531  17.415  0.00  0.00    +0.000 A 
ATOM     11  C   UNL     1       6.273   5.583  17.647  0.00  0.00    +0.000 A 
ATOM     12  C   UNL     1       7.233   5.932  16.695  0.00  0.00    +0.000 A 
ATOM     13  C   UNL     1       7.261   5.287  15.462  0.00  0.00    +0.000 A 
ATOM     14  C   UNL     1       6.302   4.323  15.151  0.00  0.00    +0.000 A 
ATOM     15  C   UNL     1       5.410   3.912  16.152  0.00  0.00    +0.000 A 
BRANCH  14  16
ATOM     16  N   UNL     1       6.382   3.626  13.939  0.00  0.00    +0.000 N 
ATOM     17  H   UNL     1       5.910   4.098  13.171  0.00  0.00    +0.000 HD
ATOM     18  H   UNL     1       6.095   2.654  14.017  0.00  0.00    +0.000 HD
ENDBRANCH  14  16
ENDBRANCH   2  10
BRANCH   1  19
ATOM     19  C   UNL     1       2.349   5.465  17.760  0.00  0.00    +0.000 C 
BRANCH  19  24
ATOM     20  C   UNL     1       1.076  10.497  20.398  0.00  0.00    +0.000 C 
ATOM     21  C   UNL     1       1.476   9.219  19.724  0.00  0.00    +0.000 A 
ATOM     22  C   UNL     1       1.624   9.153  18.335  0.00  0.00    +0.000 A 
ATOM     23  C   UNL     1       1.940   7.942  17.716  0.00  0.00    +0.000 A 
ATOM     24  C   UNL     1       2.117   6.774  18.472  0.00  0.00    +0.000 A 
ATOM     25  C   UNL     1       1.974   6.849  19.865  0.00  0.00    +0.000 A 
ATOM     26  C   UNL     1       1.665   8.061  20.483  0.00  0.00    +0.000 A 
ENDBRANCH  19  24
ENDBRANCH   1  19
TORSDOF 4
ENDMDL
MODEL 8
REMARK VINA RESULT:      -7.6      1.871      4.995
REMARK  Name = 
REMARK  5 active torsions:
REMARK  status: ('A' for Active; 'I' for Inactive)
REMARK    1  A    between atoms: C_1  and  C_2
REMARK    2  A    between atoms: C_5  and  C_6
REMARK    3  A    between atoms: C_6  and  N_7
REMARK    4  A    between atoms: C_8  and  C_9
REMARK    5  A    between atoms: C_13  and  N_14
REMARK                            x       y       z     vdW  Elec       q    Type
REMARK                         _______ _______ _______ _____ _____    ______ ____
ROOT
ATOM      1  N   UNL     1       3.148   5.859  17.484  0.00  0.00    +0.000 N 
ATOM      2  C   UNL     1       3.356   7.176  17.878  0.00  0.00    +0.000 A 
ATOM      3  N   UNL     1       4.642   7.477  17.748  0.00  0.00    +0.000 NA
ATOM      4  C   UNL     1       5.258   6.372  17.223  0.00  0.00    +0.000 A 
ATOM      5  C   UNL     1       6.610   6.167  16.906  0.00  0.00    +0.000 A 
ATOM      6  C   UNL     1       7.002   4.933  16.373  0.00  0.00    +0.000 A 
ATOM      7  C   UNL     1       6.066   3.923  16.154  0.00  0.00    +0.000 A 
ATOM      8  C   UNL     1       4.716   4.108  16.472  0.00  0.00    +0.000 A 
ATOM      9  C   UNL     1       4.345   5.348  17.016  0.00  0.00    +0.000 A 
ENDROOT
BRANCH   2  10
ATOM     10  C   UNL     1       2.363   8.109  18.445  0.00  0.00    +0.000 A 
ATOM     11  C   UNL     1       1.746   9.121  17.700  0.00  0.00    +0.000 A 
ATOM     12  C   UNL     1       0.758   9.929  18.266  0.00  0.00    +0.000 A 
ATOM     13  C   UNL     1       0.427   9.788  19.611  0.00  0.00    +0.000 A 
ATOM     14  C   UNL     1       1.113   8.876  20.412  0.00  0.00    +0.000 A 
ATOM     15  C   UNL     1       2.029   8.004  19.808  0.00  0.00    +0.000 A 
BRANCH  14  16
ATOM     16  N   UNL     1       0.724   8.688  21.744  0.00  0.00    +0.000 N 
ATOM     17  H   UNL     1      -0.252   8.919  21.915  0.00  0.00    +0.000 HD
ATOM     18  H   UNL     1       1.341   9.146  22.409  0.00  0.00    +0.000 HD
ENDBRANCH  14  16
ENDBRANCH   2  10
BRANCH   1  19
ATOM     19  C   UNL     1       1.926   5.071  17.579  0.00  0.00    +0.000 C 
BRANCH  19  24
ATOM     20  C   UNL     1       1.193   2.075  22.517  0.00  0.00    +0.000 C 
ATOM     21  C   UNL     1       1.448   2.814  21.237  0.00  0.00    +0.000 A 
ATOM     22  C   UNL     1       2.096   4.053  21.238  0.00  0.00    +0.000 A 
ATOM     23  C   UNL     1       2.274   4.757  20.046  0.00  0.00    +0.000 A 
ATOM     24  C   UNL     1       1.813   4.234  18.829  0.00  0.00    +0.000 A 
ATOM     25  C   UNL     1       1.171   2.988  18.833  0.00  0.00    +0.000 A 
ATOM     26  C   UNL     1       0.999   2.282  20.026  0.00  0.00    +0.000 A 
ENDBRANCH  19  24
ENDBRANCH   1  19
TORSDOF 4
ENDMDL
MODEL 9
REMARK VINA RESULT:      -7.6      1.902      2.300
REMARK  Name = 
REMARK  5 active torsions:
REMARK  status: ('A' for Active; 'I' for Inactive)
REMARK    1  A    between atoms: C_1  and  C_2
REMARK    2  A    between atoms: C_5  and  C_6
REMARK    3  A    between atoms: C_6  and  N_7
REMARK    4  A    between atoms: C_8  and  C_9
REMARK    5  A    between atoms: C_13  and  N_14
REMARK                            x       y       z     vdW  Elec       q    Type
REMARK                         _______ _______ _______ _____ _____    ______ ____
ROOT
ATOM      1  N   UNL     1       4.674   5.037  17.910  0.00  0.00    +0.000 N 
ATOM      2  C   UNL     1       3.846   3.930  17.751  0.00  0.00    +0.000 A 
ATOM      3  N   UNL     1       4.151   3.310  16.619  0.00  0.00    +0.000 NA
ATOM      4  C   UNL     1       5.208   3.985  16.069  0.00  0.00    +0.000 A 
ATOM      5  C   UNL     1       5.899   3.742  14.871  0.00  0.00    +0.000 A 
ATOM      6  C   UNL     1       6.961   4.585  14.518  0.00  0.00    +0.000 A 
ATOM      7  C   UNL     1       7.334   5.644  15.344  0.00  0.00    +0.000 A 
ATOM      8  C   UNL     1       6.652   5.904  16.538  0.00  0.00    +0.000 A 
ATOM      9  C   UNL     1       5.582   5.056  16.868  0.00  0.00    +0.000 A 
ENDROOT
BRANCH   2  10
ATOM     10  C   UNL     1       2.729   3.515  18.623  0.00  0.00    +0.000 A 
ATOM     11  C   UNL     1       1.434   3.274  18.150  0.00  0.00    +0.000 A 
ATOM     12  C   UNL     1       0.432   2.811  19.004  0.00  0.00    +0.000 A 
ATOM     13  C   UNL     1       0.689   2.659  20.364  0.00  0.00    +0.000 A 
ATOM     14  C   UNL     1       1.932   3.013  20.888  0.00  0.00    +0.000 A 
ATOM     15  C   UNL     1       2.957   3.378  20.005  0.00  0.00    +0.000 A 
BRANCH  14  16
ATOM     16  N   UNL     1       2.207   2.787  22.243  0.00  0.00    +0.000 N 
ATOM     17  H   UNL     1       1.817   1.915  22.592  0.00  0.00    +0.000 HD
ATOM     18  H   UNL     1       1.962   3.574  22.837  0.00  0.00    +0.000 HD
ENDBRANCH  14  16
ENDBRANCH   2  10
BRANCH   1  19
ATOM     19  C   UNL     1       4.610   6.071  18.934  0.00  0.00    +0.000 C 
BRANCH  19  24
ATOM     20  C   UNL     1       0.286   9.961  18.671  0.00  0.00    +0.000 C 
ATOM     21  C   UNL     1       1.354   8.909  18.710  0.00  0.00    +0.000 A 
ATOM     22  C   UNL     1       1.506   8.078  19.824  0.00  0.00    +0.000 A 
ATOM     23  C   UNL     1       2.541   7.143  19.870  0.00  0.00    +0.000 A 
ATOM     24  C   UNL     1       3.441   7.016  18.802  0.00  0.00    +0.000 A 
ATOM     25  C   UNL     1       3.279   7.847  17.684  0.00  0.00    +0.000 A 
ATOM     26  C   UNL     1       2.239   8.777  17.637  0.00  0.00    +0.000 A 
ENDBRANCH  19  24
ENDBRANCH   1  19
TORSDOF 4
ENDMDL
