MODEL 1
REMARK VINA RESULT:      -8.1      0.000      0.000
REMARK  Name = 
REMARK  7 active torsions:
REMARK  status: ('A' for Active; 'I' for Inactive)
REMARK    1  A    between atoms: C_1  and  C_2
REMARK    2  A    between atoms: C_5  and  N_6
REMARK    3  A    between atoms: C_10  and  C_11
REMARK    4  A    between atoms: C_14  and  C_15
REMARK    5  A    between atoms: C_16  and  C_17
REMARK    6  A    between atoms: C_16  and  C_19
REMARK    7  A    between atoms: C_24  and  C_25
REMARK                            x       y       z     vdW  Elec       q    Type
REMARK                         _______ _______ _______ _____ _____    ______ ____
ROOT
ATOM      1  C   UNL     1       3.826   4.655  17.969  0.00  0.00    +0.000 A 
ATOM      2  C   UNL     1       2.709   3.854  17.966  0.00  0.00    +0.000 A 
ATOM      3  C   UNL     1       1.744   4.517  18.747  0.00  0.00    +0.000 A 
ATOM      4  C   UNL     1       2.326   5.655  19.296  0.00  0.00    +0.000 A 
ATOM      5  O   UNL     1       3.610   5.736  18.773  0.00  0.00    +0.000 OA
ENDROOT
BRANCH   1  12
ATOM      6  C   UNL     1       6.504   5.179  19.295  0.00  0.00    +0.000 C 
ATOM      7  C   UNL     1       6.352   4.839  17.836  0.00  0.00    +0.000 A 
ATOM      8  C   UNL     1       7.498   4.904  17.015  0.00  0.00    +0.000 A 
ATOM      9  C   UNL     1       7.419   4.668  15.641  0.00  0.00    +0.000 A 
ATOM     10  C   UNL     1       6.188   4.333  15.078  0.00  0.00    +0.000 A 
ATOM     11  C   UNL     1       5.043   4.248  15.878  0.00  0.00    +0.000 A 
ATOM     12  C   UNL     1       5.101   4.533  17.258  0.00  0.00    +0.000 A 
BRANCH  10  13
ATOM     13  N   UNL     1       6.077   4.130  13.628  0.00  0.00    +0.000 N 
ATOM     14  O   UNL     1       5.000   3.705  13.186  0.00  0.00    +0.000 OA
ATOM     15  O   UNL     1       7.071   4.382  12.933  0.00  0.00    +0.000 OA
ENDBRANCH  10  13
ENDBRANCH   1  12
BRANCH   4  16
ATOM     16  C   UNL     1       1.805   6.637  20.203  0.00  0.00    +0.000 C 
ATOM     17  C   UNL     1       1.652   7.948  19.907  0.00  0.00    +0.000 C 
BRANCH  17  18
ATOM     18  C   UNL     1       1.079   8.853  20.865  0.00  0.00    +0.000 A 
ATOM     19  N   UNL     1       1.534   8.791  22.169  0.00  0.00    +0.000 N 
ATOM     20  N   UNL     1       0.989   9.699  22.986  0.00  0.00    +0.000 NA
ATOM     21  C   UNL     1       0.111  10.339  22.226  0.00  0.00    +0.000 A 
ATOM     22  N   UNL     1      -0.651  11.328  22.706  0.00  0.00    +0.000 N 
ATOM     23  C   UNL     1       0.109   9.845  20.900  0.00  0.00    +0.000 A 
ATOM     24  H   UNL     1       2.225   8.161  22.570  0.00  0.00    +0.000 HD
ATOM     25  H   UNL     1      -0.418  11.689  23.626  0.00  0.00    +0.000 HD
ATOM     26  H   UNL     1      -1.150  11.985  22.117  0.00  0.00    +0.000 HD
BRANCH  23  27
ATOM     27  C   UNL     1      -0.732  10.273  19.835  0.00  0.00    +0.000 C 
ATOM     28  N   UNL     1      -1.405  10.629  18.959  0.00  0.00    +0.000 NA
ENDBRANCH  23  27
ENDBRANCH  17  18
BRANCH  17  29
ATOM     29  C   UNL     1       1.988   8.471  18.613  0.00  0.00    +0.000 C 
ATOM     30  N   UNL     1       2.190   8.949  17.572  0.00  0.00    +0.000 NA
ENDBRANCH  17  29
ENDBRANCH   4  16
TORSDOF 6
ENDMDL
MODEL 2
REMARK VINA RESULT:      -7.8      3.129      4.777
REMARK  Name = 
REMARK  7 active torsions:
REMARK  status: ('A' for Active; 'I' for Inactive)
REMARK    1  A    between atoms: C_1  and  C_2
REMARK    2  A    between atoms: C_5  and  N_6
REMARK    3  A    between atoms: C_10  and  C_11
REMARK    4  A    between atoms: C_14  and  C_15
REMARK    5  A    between atoms: C_16  and  C_17
REMARK    6  A    between atoms: C_16  and  C_19
REMARK    7  A    between atoms: C_24  and  C_25
REMARK                            x       y       z     vdW  Elec       q    Type
REMARK                         _______ _______ _______ _____ _____    ______ ____
ROOT
ATOM      1  C   UNL     1       3.370   6.190  18.002  0.00  0.00    +0.000 A 
ATOM      2  C   UNL     1       4.305   7.031  17.448  0.00  0.00    +0.000 A 
ATOM      3  C   UNL     1       3.720   8.311  17.420  0.00  0.00    +0.000 A 
ATOM      4  C   UNL     1       2.404   8.204  17.860  0.00  0.00    +0.000 A 
ATOM      5  O   UNL     1       2.220   6.883  18.246  0.00  0.00    +0.000 OA
ENDROOT
BRANCH   1  12
ATOM      6  C   UNL     1       4.456   4.065  16.130  0.00  0.00    +0.000 C 
ATOM      7  C   UNL     1       3.883   3.760  17.489  0.00  0.00    +0.000 A 
ATOM      8  C   UNL     1       3.714   2.407  17.852  0.00  0.00    +0.000 A 
ATOM      9  C   UNL     1       3.127   2.051  19.067  0.00  0.00    +0.000 A 
ATOM     10  C   UNL     1       2.726   3.054  19.949  0.00  0.00    +0.000 A 
ATOM     11  C   UNL     1       2.900   4.401  19.614  0.00  0.00    +0.000 A 
ATOM     12  C   UNL     1       3.446   4.774  18.369  0.00  0.00    +0.000 A 
BRANCH  10  13
ATOM     13  N   UNL     1       2.063   2.699  21.209  0.00  0.00    +0.000 N 
ATOM     14  O   UNL     1       0.824   2.728  21.238  0.00  0.00    +0.000 OA
ATOM     15  O   UNL     1       2.780   2.404  22.176  0.00  0.00    +0.000 OA
ENDBRANCH  10  13
ENDBRANCH   1  12
BRANCH   4  16
ATOM     16  C   UNL     1       1.362   9.186  17.968  0.00  0.00    +0.000 C 
ATOM     17  C   UNL     1       0.743   9.522  19.123  0.00  0.00    +0.000 C 
BRANCH  17  18
ATOM     18  C   UNL     1      -0.260  10.550  19.144  0.00  0.00    +0.000 A 
ATOM     19  N   UNL     1      -0.828  10.926  17.941  0.00  0.00    +0.000 N 
ATOM     20  N   UNL     1      -1.789  11.851  18.051  0.00  0.00    +0.000 NA
ATOM     21  C   UNL     1      -1.819  12.139  19.345  0.00  0.00    +0.000 A 
ATOM     22  N   UNL     1      -2.663  13.048  19.847  0.00  0.00    +0.000 N 
ATOM     23  C   UNL     1      -0.879  11.373  20.073  0.00  0.00    +0.000 A 
ATOM     24  H   UNL     1      -0.618  10.585  17.006  0.00  0.00    +0.000 HD
ATOM     25  H   UNL     1      -3.396  13.390  19.233  0.00  0.00    +0.000 HD
ATOM     26  H   UNL     1      -2.879  13.124  20.834  0.00  0.00    +0.000 HD
BRANCH  23  27
ATOM     27  C   UNL     1      -0.618  11.455  21.470  0.00  0.00    +0.000 C 
ATOM     28  N   UNL     1      -0.389  11.527  22.606  0.00  0.00    +0.000 NA
ENDBRANCH  23  27
ENDBRANCH  17  18
BRANCH  17  29
ATOM     29  C   UNL     1       1.109   8.920  20.374  0.00  0.00    +0.000 C 
ATOM     30  N   UNL     1       1.479   8.404  21.348  0.00  0.00    +0.000 NA
ENDBRANCH  17  29
ENDBRANCH   4  16
TORSDOF 6
ENDMDL
MODEL 3
REMARK VINA RESULT:      -7.7      3.251      4.519
REMARK  Name = 
REMARK  7 active torsions:
REMARK  status: ('A' for Active; 'I' for Inactive)
REMARK    1  A    between atoms: C_1  and  C_2
REMARK    2  A    between atoms: C_5  and  N_6
REMARK    3  A    between atoms: C_10  and  C_11
REMARK    4  A    between atoms: C_14  and  C_15
REMARK    5  A    between atoms: C_16  and  C_17
REMARK    6  A    between atoms: C_16  and  C_19
REMARK    7  A    between atoms: C_24  and  C_25
REMARK                            x       y       z     vdW  Elec       q    Type
REMARK                         _______ _______ _______ _____ _____    ______ ____
ROOT
ATOM      1  C   UNL     1       2.504   7.212  18.174  0.00  0.00    +0.000 A 
ATOM      2  C   UNL     1       2.772   8.234  17.296  0.00  0.00    +0.000 A 
ATOM      3  C   UNL     1       2.241   9.403  17.874  0.00  0.00    +0.000 A 
ATOM      4  C   UNL     1       1.569   9.051  19.041  0.00  0.00    +0.000 A 
ATOM      5  O   UNL     1       1.773   7.690  19.222  0.00  0.00    +0.000 OA
ENDROOT
BRANCH   1  12
ATOM      6  C   UNL     1       4.940   6.200  16.677  0.00  0.00    +0.000 C 
ATOM      7  C   UNL     1       3.983   5.298  17.410  0.00  0.00    +0.000 A 
ATOM      8  C   UNL     1       4.148   3.903  17.278  0.00  0.00    +0.000 A 
ATOM      9  C   UNL     1       3.258   3.008  17.874  0.00  0.00    +0.000 A 
ATOM     10  C   UNL     1       2.202   3.506  18.638  0.00  0.00    +0.000 A 
ATOM     11  C   UNL     1       2.031   4.886  18.794  0.00  0.00    +0.000 A 
ATOM     12  C   UNL     1       2.894   5.800  18.156  0.00  0.00    +0.000 A 
BRANCH  10  13
ATOM     13  N   UNL     1       1.228   2.582  19.231  0.00  0.00    +0.000 N 
ATOM     14  O   UNL     1       0.289   2.197  18.519  0.00  0.00    +0.000 OA
ATOM     15  O   UNL     1       1.394   2.250  20.414  0.00  0.00    +0.000 OA
ENDBRANCH  10  13
ENDBRANCH   1  12
BRANCH   4  16
ATOM     16  C   UNL     1       0.809   9.842  19.967  0.00  0.00    +0.000 C 
ATOM     17  C   UNL     1      -0.387  10.409  19.689  0.00  0.00    +0.000 C 
BRANCH  17  18
ATOM     18  C   UNL     1      -1.098  11.149  20.695  0.00  0.00    +0.000 A 
ATOM     19  N   UNL     1      -1.941  12.162  20.280  0.00  0.00    +0.000 N 
ATOM     20  N   UNL     1      -2.605  12.767  21.271  0.00  0.00    +0.000 NA
ATOM     21  C   UNL     1      -2.150  12.186  22.373  0.00  0.00    +0.000 A 
ATOM     22  N   UNL     1      -2.580  12.541  23.589  0.00  0.00    +0.000 N 
ATOM     23  C   UNL     1      -1.197  11.182  22.079  0.00  0.00    +0.000 A 
ATOM     24  H   UNL     1      -2.123  12.488  19.333  0.00  0.00    +0.000 HD
ATOM     25  H   UNL     1      -3.389  13.153  23.635  0.00  0.00    +0.000 HD
ATOM     26  H   UNL     1      -2.440  11.975  24.418  0.00  0.00    +0.000 HD
BRANCH  23  27
ATOM     27  C   UNL     1      -0.481  10.389  23.019  0.00  0.00    +0.000 C 
ATOM     28  N   UNL     1       0.091   9.730  23.784  0.00  0.00    +0.000 NA
ENDBRANCH  23  27
ENDBRANCH  17  18
BRANCH  17  29
ATOM     29  C   UNL     1      -1.021  10.238  18.413  0.00  0.00    +0.000 C 
ATOM     30  N   UNL     1      -1.572  10.179  17.390  0.00  0.00    +0.000 NA
ENDBRANCH  17  29
ENDBRANCH   4  16
TORSDOF 6
ENDMDL
MODEL 4
REMARK VINA RESULT:      -7.7      3.200      4.719
REMARK  Name = 
REMARK  7 active torsions:
REMARK  status: ('A' for Active; 'I' for Inactive)
REMARK    1  A    between atoms: C_1  and  C_2
REMARK    2  A    between atoms: C_5  and  N_6
REMARK    3  A    between atoms: C_10  and  C_11
REMARK    4  A    between atoms: C_14  and  C_15
REMARK    5  A    between atoms: C_16  and  C_17
REMARK    6  A    between atoms: C_16  and  C_19
REMARK    7  A    between atoms: C_24  and  C_25
REMARK                            x       y       z     vdW  Elec       q    Type
REMARK                         _______ _______ _______ _____ _____    ______ ____
ROOT
ATOM      1  C   UNL     1       3.238   6.303  18.063  0.00  0.00    +0.000 A 
ATOM      2  C   UNL     1       4.076   7.211  17.460  0.00  0.00    +0.000 A 
ATOM      3  C   UNL     1       3.388   8.439  17.449  0.00  0.00    +0.000 A 
ATOM      4  C   UNL     1       2.106   8.231  17.949  0.00  0.00    +0.000 A 
ATOM      5  O   UNL     1       2.047   6.904  18.352  0.00  0.00    +0.000 OA
ENDROOT
BRANCH   1  12
ATOM      6  C   UNL     1       4.587   4.296  16.232  0.00  0.00    +0.000 C 
ATOM      7  C   UNL     1       4.007   3.937  17.574  0.00  0.00    +0.000 A 
ATOM      8  C   UNL     1       3.964   2.574  17.937  0.00  0.00    +0.000 A 
ATOM      9  C   UNL     1       3.379   2.161  19.136  0.00  0.00    +0.000 A 
ATOM     10  C   UNL     1       2.854   3.120  20.002  0.00  0.00    +0.000 A 
ATOM     11  C   UNL     1       2.901   4.478  19.667  0.00  0.00    +0.000 A 
ATOM     12  C   UNL     1       3.445   4.903  18.437  0.00  0.00    +0.000 A 
BRANCH  10  13
ATOM     13  N   UNL     1       2.192   2.702  21.243  0.00  0.00    +0.000 N 
ATOM     14  O   UNL     1       2.888   2.160  22.115  0.00  0.00    +0.000 OA
ATOM     15  O   UNL     1       0.973   2.901  21.342  0.00  0.00    +0.000 OA
ENDBRANCH  10  13
ENDBRANCH   1  12
BRANCH   4  16
ATOM     16  C   UNL     1       0.994   9.127  18.096  0.00  0.00    +0.000 C 
ATOM     17  C   UNL     1       0.473   9.511  19.283  0.00  0.00    +0.000 C 
BRANCH  17  18
ATOM     18  C   UNL     1      -0.615  10.449  19.335  0.00  0.00    +0.000 A 
ATOM     19  N   UNL     1      -0.700  11.283  20.435  0.00  0.00    +0.000 N 
ATOM     20  N   UNL     1      -1.708  12.161  20.384  0.00  0.00    +0.000 NA
ATOM     21  C   UNL     1      -2.342  11.866  19.257  0.00  0.00    +0.000 A 
ATOM     22  N   UNL     1      -3.432  12.534  18.863  0.00  0.00    +0.000 N 
ATOM     23  C   UNL     1      -1.718  10.798  18.570  0.00  0.00    +0.000 A 
ATOM     24  H   UNL     1      -0.096  11.317  21.253  0.00  0.00    +0.000 HD
ATOM     25  H   UNL     1      -3.662  13.385  19.368  0.00  0.00    +0.000 HD
ATOM     26  H   UNL     1      -3.797  12.501  17.918  0.00  0.00    +0.000 HD
BRANCH  23  27
ATOM     27  C   UNL     1      -2.154  10.201  17.353  0.00  0.00    +0.000 C 
ATOM     28  N   UNL     1      -2.510   9.730  16.354  0.00  0.00    +0.000 NA
ENDBRANCH  23  27
ENDBRANCH  17  18
BRANCH  17  29
ATOM     29  C   UNL     1       1.023   9.058  20.528  0.00  0.00    +0.000 C 
ATOM     30  N   UNL     1       1.388   8.661  21.559  0.00  0.00    +0.000 NA
ENDBRANCH  17  29
ENDBRANCH   4  16
TORSDOF 6
ENDMDL
MODEL 5
REMARK VINA RESULT:      -7.7      2.536      3.908
REMARK  Name = 
REMARK  7 active torsions:
REMARK  status: ('A' for Active; 'I' for Inactive)
REMARK    1  A    between atoms: C_1  and  C_2
REMARK    2  A    between atoms: C_5  and  N_6
REMARK    3  A    between atoms: C_10  and  C_11
REMARK    4  A    between atoms: C_14  and  C_15
REMARK    5  A    between atoms: C_16  and  C_17
REMARK    6  A    between atoms: C_16  and  C_19
REMARK    7  A    between atoms: C_24  and  C_25
REMARK                            x       y       z     vdW  Elec       q    Type
REMARK                         _______ _______ _______ _____ _____    ______ ____
ROOT
ATOM      1  C   UNL     1       2.836   6.638  18.773  0.00  0.00    +0.000 A 
ATOM      2  C   UNL     1       2.476   6.536  20.095  0.00  0.00    +0.000 A 
ATOM      3  C   UNL     1       1.697   7.672  20.383  0.00  0.00    +0.000 A 
ATOM      4  C   UNL     1       1.686   8.495  19.260  0.00  0.00    +0.000 A 
ATOM      5  O   UNL     1       2.375   7.817  18.264  0.00  0.00    +0.000 OA
ENDROOT
BRANCH   1  12
ATOM      6  C   UNL     1       1.613   4.067  17.727  0.00  0.00    +0.000 C 
ATOM      7  C   UNL     1       3.036   4.479  17.457  0.00  0.00    +0.000 A 
ATOM      8  C   UNL     1       3.883   3.559  16.803  0.00  0.00    +0.000 A 
ATOM      9  C   UNL     1       5.231   3.847  16.581  0.00  0.00    +0.000 A 
ATOM     10  C   UNL     1       5.739   5.080  16.988  0.00  0.00    +0.000 A 
ATOM     11  C   UNL     1       4.912   6.012  17.624  0.00  0.00    +0.000 A 
ATOM     12  C   UNL     1       3.561   5.713  17.898  0.00  0.00    +0.000 A 
BRANCH  10  13
ATOM     13  N   UNL     1       7.165   5.380  16.807  0.00  0.00    +0.000 N 
ATOM     14  O   UNL     1       7.976   4.460  16.987  0.00  0.00    +0.000 OA
ATOM     15  O   UNL     1       7.475   6.539  16.497  0.00  0.00    +0.000 OA
ENDBRANCH  10  13
ENDBRANCH   1  12
BRANCH   4  16
ATOM     16  C   UNL     1       1.098   9.786  19.043  0.00  0.00    +0.000 C 
ATOM     17  C   UNL     1       0.679  10.613  20.028  0.00  0.00    +0.000 C 
BRANCH  17  18
ATOM     18  C   UNL     1       0.142  11.909  19.717  0.00  0.00    +0.000 A 
ATOM     19  N   UNL     1      -1.184  12.152  20.024  0.00  0.00    +0.000 N 
ATOM     20  N   UNL     1      -1.593  13.397  19.752  0.00  0.00    +0.000 NA
ATOM     21  C   UNL     1      -0.536  13.975  19.198  0.00  0.00    +0.000 A 
ATOM     22  N   UNL     1      -0.565  15.243  18.775  0.00  0.00    +0.000 N 
ATOM     23  C   UNL     1       0.569  13.093  19.134  0.00  0.00    +0.000 A 
ATOM     24  H   UNL     1      -1.867  11.519  20.433  0.00  0.00    +0.000 HD
ATOM     25  H   UNL     1      -1.368  15.804  19.043  0.00  0.00    +0.000 HD
ATOM     26  H   UNL     1       0.268  15.784  18.570  0.00  0.00    +0.000 HD
BRANCH  23  27
ATOM     27  C   UNL     1       1.845  13.371  18.568  0.00  0.00    +0.000 C 
ATOM     28  N   UNL     1       2.878  13.603  18.092  0.00  0.00    +0.000 NA
ENDBRANCH  23  27
ENDBRANCH  17  18
BRANCH  17  29
ATOM     29  C   UNL     1       0.816  10.262  21.413  0.00  0.00    +0.000 C 
ATOM     30  N   UNL     1       0.838   9.976  22.540  0.00  0.00    +0.000 NA
ENDBRANCH  17  29
ENDBRANCH   4  16
TORSDOF 6
ENDMDL
MODEL 6
REMARK VINA RESULT:      -7.6      1.681      2.454
REMARK  Name = 
REMARK  7 active torsions:
REMARK  status: ('A' for Active; 'I' for Inactive)
REMARK    1  A    between atoms: C_1  and  C_2
REMARK    2  A    between atoms: C_5  and  N_6
REMARK    3  A    between atoms: C_10  and  C_11
REMARK    4  A    between atoms: C_14  and  C_15
REMARK    5  A    between atoms: C_16  and  C_17
REMARK    6  A    between atoms: C_16  and  C_19
REMARK    7  A    between atoms: C_24  and  C_25
REMARK                            x       y       z     vdW  Elec       q    Type
REMARK                         _______ _______ _______ _____ _____    ______ ____
ROOT
ATOM      1  C   UNL     1       3.830   5.828  17.592  0.00  0.00    +0.000 A 
ATOM      2  C   UNL     1       2.694   5.234  18.090  0.00  0.00    +0.000 A 
ATOM      3  C   UNL     1       1.730   6.253  18.203  0.00  0.00    +0.000 A 
ATOM      4  C   UNL     1       2.329   7.466  17.873  0.00  0.00    +0.000 A 
ATOM      5  O   UNL     1       3.624   7.172  17.467  0.00  0.00    +0.000 OA
ENDROOT
BRANCH   1  12
ATOM      6  C   UNL     1       6.079   5.264  19.548  0.00  0.00    +0.000 C 
ATOM      7  C   UNL     1       6.198   5.052  18.062  0.00  0.00    +0.000 A 
ATOM      8  C   UNL     1       7.461   4.706  17.538  0.00  0.00    +0.000 A 
ATOM      9  C   UNL     1       7.661   4.560  16.164  0.00  0.00    +0.000 A 
ATOM     10  C   UNL     1       6.581   4.732  15.298  0.00  0.00    +0.000 A 
ATOM     11  C   UNL     1       5.316   5.059  15.799  0.00  0.00    +0.000 A 
ATOM     12  C   UNL     1       5.114   5.258  17.180  0.00  0.00    +0.000 A 
BRANCH  10  13
ATOM     13  N   UNL     1       6.782   4.630  13.847  0.00  0.00    +0.000 N 
ATOM     14  O   UNL     1       6.111   3.793  13.228  0.00  0.00    +0.000 OA
ATOM     15  O   UNL     1       7.622   5.379  13.328  0.00  0.00    +0.000 OA
ENDBRANCH  10  13
ENDBRANCH   1  12
BRANCH   4  16
ATOM     16  C   UNL     1       1.814   8.805  17.882  0.00  0.00    +0.000 C 
ATOM     17  C   UNL     1       1.304   9.422  18.971  0.00  0.00    +0.000 C 
BRANCH  17  18
ATOM     18  C   UNL     1       0.851  10.784  18.897  0.00  0.00    +0.000 A 
ATOM     19  N   UNL     1       1.757  11.785  19.194  0.00  0.00    +0.000 N 
ATOM     20  N   UNL     1       1.274  13.025  19.051  0.00  0.00    +0.000 NA
ATOM     21  C   UNL     1       0.005  12.845  18.710  0.00  0.00    +0.000 A 
ATOM     22  N   UNL     1      -0.820  13.874  18.489  0.00  0.00    +0.000 N 
ATOM     23  C   UNL     1      -0.321  11.471  18.615  0.00  0.00    +0.000 A 
ATOM     24  H   UNL     1       2.726  11.697  19.489  0.00  0.00    +0.000 HD
ATOM     25  H   UNL     1      -0.403  14.798  18.425  0.00  0.00    +0.000 HD
ATOM     26  H   UNL     1      -1.708  13.785  18.007  0.00  0.00    +0.000 HD
BRANCH  23  27
ATOM     27  C   UNL     1      -1.597  10.921  18.310  0.00  0.00    +0.000 C 
ATOM     28  N   UNL     1      -2.632  10.466  18.046  0.00  0.00    +0.000 NA
ENDBRANCH  23  27
ENDBRANCH  17  18
BRANCH  17  29
ATOM     29  C   UNL     1       1.257   8.773  20.251  0.00  0.00    +0.000 C 
ATOM     30  N   UNL     1       1.308   8.235  21.281  0.00  0.00    +0.000 NA
ENDBRANCH  17  29
ENDBRANCH   4  16
TORSDOF 6
ENDMDL
MODEL 7
REMARK VINA RESULT:      -7.6      3.786      9.177
REMARK  Name = 
REMARK  7 active torsions:
REMARK  status: ('A' for Active; 'I' for Inactive)
REMARK    1  A    between atoms: C_1  and  C_2
REMARK    2  A    between atoms: C_5  and  N_6
REMARK    3  A    between atoms: C_10  and  C_11
REMARK    4  A    between atoms: C_14  and  C_15
REMARK    5  A    between atoms: C_16  and  C_17
REMARK    6  A    between atoms: C_16  and  C_19
REMARK    7  A    between atoms: C_24  and  C_25
REMARK                            x       y       z     vdW  Elec       q    Type
REMARK                         _______ _______ _______ _____ _____    ______ ____
ROOT
ATOM      1  C   UNL     1       0.526  10.052  19.648  0.00  0.00    +0.000 A 
ATOM      2  C   UNL     1       0.012  10.026  18.374  0.00  0.00    +0.000 A 
ATOM      3  C   UNL     1       0.807   9.122  17.644  0.00  0.00    +0.000 A 
ATOM      4  C   UNL     1       1.852   8.696  18.459  0.00  0.00    +0.000 A 
ATOM      5  O   UNL     1       1.638   9.263  19.708  0.00  0.00    +0.000 OA
ENDROOT
BRANCH   1  12
ATOM      6  C   UNL     1      -0.446   8.552  22.099  0.00  0.00    +0.000 C 
ATOM      7  C   UNL     1      -0.460  10.053  21.985  0.00  0.00    +0.000 A 
ATOM      8  C   UNL     1      -1.084  10.793  23.012  0.00  0.00    +0.000 A 
ATOM      9  C   UNL     1      -1.194  12.183  22.939  0.00  0.00    +0.000 A 
ATOM     10  C   UNL     1      -0.649  12.852  21.844  0.00  0.00    +0.000 A 
ATOM     11  C   UNL     1      -0.012  12.138  20.823  0.00  0.00    +0.000 A 
ATOM     12  C   UNL     1       0.062  10.730  20.861  0.00  0.00    +0.000 A 
BRANCH  10  13
ATOM     13  N   UNL     1      -0.798  14.308  21.727  0.00  0.00    +0.000 N 
ATOM     14  O   UNL     1       0.227  14.980  21.545  0.00  0.00    +0.000 OA
ATOM     15  O   UNL     1      -1.939  14.781  21.830  0.00  0.00    +0.000 OA
ENDBRANCH  10  13
ENDBRANCH   1  12
BRANCH   4  16
ATOM     16  C   UNL     1       2.964   7.830  18.190  0.00  0.00    +0.000 C 
ATOM     17  C   UNL     1       3.190   6.655  18.821  0.00  0.00    +0.000 C 
BRANCH  17  18
ATOM     18  C   UNL     1       4.307   5.830  18.454  0.00  0.00    +0.000 A 
ATOM     19  N   UNL     1       4.789   4.937  19.393  0.00  0.00    +0.000 N 
ATOM     20  N   UNL     1       5.796   4.170  18.958  0.00  0.00    +0.000 NA
ATOM     21  C   UNL     1       6.028   4.603  17.726  0.00  0.00    +0.000 A 
ATOM     22  N   UNL     1       6.991   4.076  16.962  0.00  0.00    +0.000 N 
ATOM     23  C   UNL     1       5.144   5.646  17.363  0.00  0.00    +0.000 A 
ATOM     24  H   UNL     1       4.471   4.787  20.347  0.00  0.00    +0.000 HD
ATOM     25  H   UNL     1       7.428   3.220  17.291  0.00  0.00    +0.000 HD
ATOM     26  H   UNL     1       7.044   4.209  15.958  0.00  0.00    +0.000 HD
BRANCH  23  27
ATOM     27  C   UNL     1       5.138   6.365  16.135  0.00  0.00    +0.000 C 
ATOM     28  N   UNL     1       5.126   6.964  15.140  0.00  0.00    +0.000 NA
ENDBRANCH  23  27
ENDBRANCH  17  18
BRANCH  17  29
ATOM     29  C   UNL     1       2.291   6.155  19.822  0.00  0.00    +0.000 C 
ATOM     30  N   UNL     1       1.620   5.683  20.646  0.00  0.00    +0.000 NA
ENDBRANCH  17  29
ENDBRANCH   4  16
TORSDOF 6
ENDMDL
MODEL 8
REMARK VINA RESULT:      -7.6      2.252      3.895
REMARK  Name = 
REMARK  7 active torsions:
REMARK  status: ('A' for Active; 'I' for Inactive)
REMARK    1  A    between atoms: C_1  and  C_2
REMARK    2  A    between atoms: C_5  and  N_6
REMARK    3  A    between atoms: C_10  and  C_11
REMARK    4  A    between atoms: C_14  and  C_15
REMARK    5  A    between atoms: C_16  and  C_17
REMARK    6  A    between atoms: C_16  and  C_19
REMARK    7  A    between atoms: C_24  and  C_25
REMARK                            x       y       z     vdW  Elec       q    Type
REMARK                         _______ _______ _______ _____ _____    ______ ____
ROOT
ATOM      1  C   UNL     1       2.745   7.300  18.432  0.00  0.00    +0.000 A 
ATOM      2  C   UNL     1       2.675   8.151  17.356  0.00  0.00    +0.000 A 
ATOM      3  C   UNL     1       1.991   9.298  17.801  0.00  0.00    +0.000 A 
ATOM      4  C   UNL     1       1.566   9.079  19.108  0.00  0.00    +0.000 A 
ATOM      5  O   UNL     1       2.073   7.843  19.488  0.00  0.00    +0.000 OA
ENDROOT
BRANCH   1  12
ATOM      6  C   UNL     1       1.674   5.110  20.237  0.00  0.00    +0.000 C 
ATOM      7  C   UNL     1       2.973   5.003  19.483  0.00  0.00    +0.000 A 
ATOM      8  C   UNL     1       3.800   3.889  19.737  0.00  0.00    +0.000 A 
ATOM      9  C   UNL     1       5.049   3.759  19.125  0.00  0.00    +0.000 A 
ATOM     10  C   UNL     1       5.470   4.737  18.225  0.00  0.00    +0.000 A 
ATOM     11  C   UNL     1       4.657   5.841  17.947  0.00  0.00    +0.000 A 
ATOM     12  C   UNL     1       3.416   6.009  18.596  0.00  0.00    +0.000 A 
BRANCH  10  13
ATOM     13  N   UNL     1       6.799   4.642  17.609  0.00  0.00    +0.000 N 
ATOM     14  O   UNL     1       7.758   4.367  18.346  0.00  0.00    +0.000 OA
ATOM     15  O   UNL     1       6.888   4.855  16.392  0.00  0.00    +0.000 OA
ENDBRANCH  10  13
ENDBRANCH   1  12
BRANCH   4  16
ATOM     16  C   UNL     1       0.785   9.892  19.996  0.00  0.00    +0.000 C 
ATOM     17  C   UNL     1      -0.418  10.426  19.686  0.00  0.00    +0.000 C 
BRANCH  17  18
ATOM     18  C   UNL     1      -1.150  11.193  20.656  0.00  0.00    +0.000 A 
ATOM     19  N   UNL     1      -1.984  12.195  20.195  0.00  0.00    +0.000 N 
ATOM     20  N   UNL     1      -2.669  12.827  21.155  0.00  0.00    +0.000 NA
ATOM     21  C   UNL     1      -2.238  12.276  22.281  0.00  0.00    +0.000 A 
ATOM     22  N   UNL     1      -2.694  12.664  23.478  0.00  0.00    +0.000 N 
ATOM     23  C   UNL     1      -1.280  11.264  22.035  0.00  0.00    +0.000 A 
ATOM     24  H   UNL     1      -2.145  12.495  19.236  0.00  0.00    +0.000 HD
ATOM     25  H   UNL     1      -3.503  13.277  23.489  0.00  0.00    +0.000 HD
ATOM     26  H   UNL     1      -2.572  12.121  24.325  0.00  0.00    +0.000 HD
BRANCH  23  27
ATOM     27  C   UNL     1      -0.585  10.497  23.012  0.00  0.00    +0.000 C 
ATOM     28  N   UNL     1      -0.028   9.858  23.806  0.00  0.00    +0.000 NA
ENDBRANCH  23  27
ENDBRANCH  17  18
BRANCH  17  29
ATOM     29  C   UNL     1      -1.039  10.192  18.413  0.00  0.00    +0.000 C 
ATOM     30  N   UNL     1      -1.578  10.084  17.388  0.00  0.00    +0.000 NA
ENDBRANCH  17  29
ENDBRANCH   4  16
TORSDOF 6
ENDMDL
MODEL 9
REMARK VINA RESULT:      -7.6      2.247      3.823
REMARK  Name = 
REMARK  7 active torsions:
REMARK  status: ('A' for Active; 'I' for Inactive)
REMARK    1  A    between atoms: C_1  and  C_2
REMARK    2  A    between atoms: C_5  and  N_6
REMARK    3  A    between atoms: C_10  and  C_11
REMARK    4  A    between atoms: C_14  and  C_15
REMARK    5  A    between atoms: C_16  and  C_17
REMARK    6  A    between atoms: C_16  and  C_19
REMARK    7  A    between atoms: C_24  and  C_25
REMARK                            x       y       z     vdW  Elec       q    Type
REMARK                         _______ _______ _______ _____ _____    ______ ____
ROOT
ATOM      1  C   UNL     1       2.893   6.536  18.783  0.00  0.00    +0.000 A 
ATOM      2  C   UNL     1       2.499   6.424  20.095  0.00  0.00    +0.000 A 
ATOM      3  C   UNL     1       1.762   7.586  20.388  0.00  0.00    +0.000 A 
ATOM      4  C   UNL     1       1.810   8.431  19.283  0.00  0.00    +0.000 A 
ATOM      5  O   UNL     1       2.492   7.743  18.288  0.00  0.00    +0.000 OA
ENDROOT
BRANCH   1  12
ATOM      6  C   UNL     1       1.626   3.979  17.755  0.00  0.00    +0.000 C 
ATOM      7  C   UNL     1       3.053   4.371  17.472  0.00  0.00    +0.000 A 
ATOM      8  C   UNL     1       3.882   3.438  16.814  0.00  0.00    +0.000 A 
ATOM      9  C   UNL     1       5.232   3.707  16.580  0.00  0.00    +0.000 A 
ATOM     10  C   UNL     1       5.760   4.934  16.979  0.00  0.00    +0.000 A 
ATOM     11  C   UNL     1       4.950   5.879  17.619  0.00  0.00    +0.000 A 
ATOM     12  C   UNL     1       3.598   5.599  17.905  0.00  0.00    +0.000 A 
BRANCH  10  13
ATOM     13  N   UNL     1       7.188   5.214  16.785  0.00  0.00    +0.000 N 
ATOM     14  O   UNL     1       7.507   6.351  16.409  0.00  0.00    +0.000 OA
ATOM     15  O   UNL     1       7.990   4.294  16.997  0.00  0.00    +0.000 OA
ENDBRANCH  10  13
ENDBRANCH   1  12
BRANCH   4  16
ATOM     16  C   UNL     1       1.281   9.749  19.079  0.00  0.00    +0.000 C 
ATOM     17  C   UNL     1       0.417  10.365  19.917  0.00  0.00    +0.000 C 
BRANCH  17  18
ATOM     18  C   UNL     1      -0.026  11.707  19.655  0.00  0.00    +0.000 A 
ATOM     19  N   UNL     1      -0.159  12.100  18.336  0.00  0.00    +0.000 N 
ATOM     20  N   UNL     1      -0.625  13.344  18.177  0.00  0.00    +0.000 NA
ATOM     21  C   UNL     1      -0.748  13.809  19.412  0.00  0.00    +0.000 A 
ATOM     22  N   UNL     1      -1.184  15.048  19.661  0.00  0.00    +0.000 N 
ATOM     23  C   UNL     1      -0.374  12.841  20.375  0.00  0.00    +0.000 A 
ATOM     24  H   UNL     1       0.039  11.567  17.493  0.00  0.00    +0.000 HD
ATOM     25  H   UNL     1      -1.578  15.567  18.882  0.00  0.00    +0.000 HD
ATOM     26  H   UNL     1      -1.511  15.354  20.571  0.00  0.00    +0.000 HD
BRANCH  23  27
ATOM     27  C   UNL     1      -0.346  13.015  21.787  0.00  0.00    +0.000 C 
ATOM     28  N   UNL     1      -0.341  13.157  22.939  0.00  0.00    +0.000 NA
ENDBRANCH  23  27
ENDBRANCH  17  18
BRANCH  17  29
ATOM     29  C   UNL     1      -0.033   9.738  21.127  0.00  0.00    +0.000 C 
ATOM     30  N   UNL     1      -0.481   9.254  22.085  0.00  0.00    +0.000 NA
ENDBRANCH  17  29
ENDBRANCH   4  16
TORSDOF 6
ENDMDL
