MODEL 1
REMARK VINA RESULT:      -6.9      0.000      0.000
REMARK  Name = 
REMARK  9 active torsions:
REMARK  status: ('A' for Active; 'I' for Inactive)
REMARK    1  A    between atoms: C_1  and  C_2
REMARK    2  A    between atoms: C_2  and  N_3
REMARK    3  A    between atoms: N_3  and  C_4
REMARK    4  A    between atoms: N_3  and  P_6
REMARK    5  A    between atoms: C_4  and  C_5
REMARK    6  A    between atoms: P_6  and  O_8
REMARK    7  A    between atoms: P_6  and  O_15
REMARK    8  A    between atoms: O_8  and  C_9
REMARK    9  A    between atoms: O_15  and  C_16
REMARK                            x       y       z     vdW  Elec       q    Type
REMARK                         _______ _______ _______ _____ _____    ______ ____
ROOT
ATOM      1  P   UNL     1       5.747   5.576  16.896  0.00  0.00    +0.000 P 
ATOM      2  O   UNL     1       5.342   6.798  16.057  0.00  0.00    +0.000 OA
ENDROOT
BRANCH   1   3
ATOM      3  N   UNL     1       7.285   6.369  17.313  0.00  0.00    +0.000 NA
BRANCH   3   5
ATOM      4  C   UNL     1       8.302   8.611  18.099  0.00  0.00    +0.000 C 
ATOM      5  C   UNL     1       7.277   7.858  17.258  0.00  0.00    +0.000 C 
ENDBRANCH   3   5
BRANCH   3   6
ATOM      6  C   UNL     1       7.742   5.883  18.631  0.00  0.00    +0.000 C 
ATOM      7  C   UNL     1       6.626   5.342  19.530  0.00  0.00    +0.000 C 
ENDBRANCH   3   6
ENDBRANCH   1   3
BRANCH   1   8
ATOM      8  O   UNL     1       6.589   4.471  15.999  0.00  0.00    +0.000 OA
BRANCH   8   9
ATOM      9  C   UNL     1       6.731   4.501  14.636  0.00  0.00    +0.000 A 
ATOM     10  C   UNL     1       7.639   5.307  13.950  0.00  0.00    +0.000 A 
ATOM     11  C   UNL     1       7.786   5.170  12.564  0.00  0.00    +0.000 A 
ATOM     12  C   UNL     1       7.014   4.244  11.864  0.00  0.00    +0.000 A 
ATOM     13  C   UNL     1       6.083   3.462  12.543  0.00  0.00    +0.000 A 
ATOM     14  C   UNL     1       5.944   3.590  13.928  0.00  0.00    +0.000 A 
ENDBRANCH   8   9
ENDBRANCH   1   8
BRANCH   1  15
ATOM     15  O   UNL     1       4.252   4.806  16.491  0.00  0.00    +0.000 OA
BRANCH  15  16
ATOM     16  C   UNL     1       3.312   4.407  17.425  0.00  0.00    +0.000 A 
ATOM     17  C   UNL     1       2.626   3.188  17.381  0.00  0.00    +0.000 A 
ATOM     18  C   UNL     1       1.631   2.899  18.316  0.00  0.00    +0.000 A 
ATOM     19  C   UNL     1       1.329   3.814  19.317  0.00  0.00    +0.000 A 
ATOM     20  C   UNL     1       2.026   5.022  19.383  0.00  0.00    +0.000 A 
ATOM     21  C   UNL     1       3.019   5.314  18.442  0.00  0.00    +0.000 A 
ENDBRANCH  15  16
ENDBRANCH   1  15
TORSDOF 7
ENDMDL
MODEL 2
REMARK VINA RESULT:      -6.9      0.676      1.109
REMARK  Name = 
REMARK  9 active torsions:
REMARK  status: ('A' for Active; 'I' for Inactive)
REMARK    1  A    between atoms: C_1  and  C_2
REMARK    2  A    between atoms: C_2  and  N_3
REMARK    3  A    between atoms: N_3  and  C_4
REMARK    4  A    between atoms: N_3  and  P_6
REMARK    5  A    between atoms: C_4  and  C_5
REMARK    6  A    between atoms: P_6  and  O_8
REMARK    7  A    between atoms: P_6  and  O_15
REMARK    8  A    between atoms: O_8  and  C_9
REMARK    9  A    between atoms: O_15  and  C_16
REMARK                            x       y       z     vdW  Elec       q    Type
REMARK                         _______ _______ _______ _____ _____    ______ ____
ROOT
ATOM      1  P   UNL     1       5.546   5.345  16.812  0.00  0.00    +0.000 P 
ATOM      2  O   UNL     1       5.128   6.580  15.998  0.00  0.00    +0.000 OA
ENDROOT
BRANCH   1   3
ATOM      3  N   UNL     1       7.062   6.158  17.272  0.00  0.00    +0.000 NA
BRANCH   3   5
ATOM      4  C   UNL     1       8.142   8.413  17.927  0.00  0.00    +0.000 C 
ATOM      5  C   UNL     1       7.039   7.646  17.204  0.00  0.00    +0.000 C 
ENDBRANCH   3   5
BRANCH   3   6
ATOM      6  C   UNL     1       7.481   5.688  18.607  0.00  0.00    +0.000 C 
ATOM      7  C   UNL     1       6.339   5.168  19.485  0.00  0.00    +0.000 C 
ENDBRANCH   3   6
ENDBRANCH   1   3
BRANCH   1   8
ATOM      8  O   UNL     1       6.423   4.281  15.900  0.00  0.00    +0.000 OA
BRANCH   8   9
ATOM      9  C   UNL     1       6.650   4.393  14.552  0.00  0.00    +0.000 A 
ATOM     10  C   UNL     1       7.588   5.247  13.973  0.00  0.00    +0.000 A 
ATOM     11  C   UNL     1       7.824   5.195  12.594  0.00  0.00    +0.000 A 
ATOM     12  C   UNL     1       7.112   4.304  11.794  0.00  0.00    +0.000 A 
ATOM     13  C   UNL     1       6.151   3.472  12.366  0.00  0.00    +0.000 A 
ATOM     14  C   UNL     1       5.923   3.517  13.744  0.00  0.00    +0.000 A 
ENDBRANCH   8   9
ENDBRANCH   1   8
BRANCH   1  15
ATOM     15  O   UNL     1       4.074   4.555  16.365  0.00  0.00    +0.000 OA
BRANCH  15  16
ATOM     16  C   UNL     1       3.279   3.848  17.250  0.00  0.00    +0.000 A 
ATOM     17  C   UNL     1       2.039   4.290  17.723  0.00  0.00    +0.000 A 
ATOM     18  C   UNL     1       1.340   3.553  18.681  0.00  0.00    +0.000 A 
ATOM     19  C   UNL     1       1.862   2.357  19.158  0.00  0.00    +0.000 A 
ATOM     20  C   UNL     1       3.088   1.896  18.673  0.00  0.00    +0.000 A 
ATOM     21  C   UNL     1       3.790   2.638  17.718  0.00  0.00    +0.000 A 
ENDBRANCH  15  16
ENDBRANCH   1  15
TORSDOF 7
ENDMDL
MODEL 3
REMARK VINA RESULT:      -6.9      2.531      5.629
REMARK  Name = 
REMARK  9 active torsions:
REMARK  status: ('A' for Active; 'I' for Inactive)
REMARK    1  A    between atoms: C_1  and  C_2
REMARK    2  A    between atoms: C_2  and  N_3
REMARK    3  A    between atoms: N_3  and  C_4
REMARK    4  A    between atoms: N_3  and  P_6
REMARK    5  A    between atoms: C_4  and  C_5
REMARK    6  A    between atoms: P_6  and  O_8
REMARK    7  A    between atoms: P_6  and  O_15
REMARK    8  A    between atoms: O_8  and  C_9
REMARK    9  A    between atoms: O_15  and  C_16
REMARK                            x       y       z     vdW  Elec       q    Type
REMARK                         _______ _______ _______ _____ _____    ______ ____
ROOT
ATOM      1  P   UNL     1       4.195   6.256  17.819  0.00  0.00    +0.000 P 
ATOM      2  O   UNL     1       4.396   6.783  16.389  0.00  0.00    +0.000 OA
ENDROOT
BRANCH   1   3
ATOM      3  N   UNL     1       5.877   5.674  17.844  0.00  0.00    +0.000 NA
BRANCH   3   5
ATOM      4  C   UNL     1       7.929   5.750  19.414  0.00  0.00    +0.000 C 
ATOM      5  C   UNL     1       6.453   5.431  19.196  0.00  0.00    +0.000 C 
ENDBRANCH   3   5
BRANCH   3   6
ATOM      6  C   UNL     1       5.991   4.476  16.989  0.00  0.00    +0.000 C 
ATOM      7  C   UNL     1       7.054   4.577  15.891  0.00  0.00    +0.000 C 
ENDBRANCH   3   6
ENDBRANCH   1   3
BRANCH   1   8
ATOM      8  O   UNL     1       3.678   4.685  17.824  0.00  0.00    +0.000 OA
BRANCH   8   9
ATOM      9  C   UNL     1       2.760   4.157  18.694  0.00  0.00    +0.000 A 
ATOM     10  C   UNL     1       1.594   3.495  18.313  0.00  0.00    +0.000 A 
ATOM     11  C   UNL     1       0.786   2.886  19.282  0.00  0.00    +0.000 A 
ATOM     12  C   UNL     1       1.134   2.956  20.630  0.00  0.00    +0.000 A 
ATOM     13  C   UNL     1       2.282   3.645  21.015  0.00  0.00    +0.000 A 
ATOM     14  C   UNL     1       3.094   4.243  20.047  0.00  0.00    +0.000 A 
ENDBRANCH   8   9
ENDBRANCH   1   8
BRANCH   1  15
ATOM     15  O   UNL     1       2.560   6.821  17.794  0.00  0.00    +0.000 OA
BRANCH  15  16
ATOM     16  C   UNL     1       2.069   7.796  18.644  0.00  0.00    +0.000 A 
ATOM     17  C   UNL     1       1.896   7.627  20.022  0.00  0.00    +0.000 A 
ATOM     18  C   UNL     1       1.315   8.633  20.795  0.00  0.00    +0.000 A 
ATOM     19  C   UNL     1       0.921   9.826  20.203  0.00  0.00    +0.000 A 
ATOM     20  C   UNL     1       1.111  10.014  18.833  0.00  0.00    +0.000 A 
ATOM     21  C   UNL     1       1.690   9.003  18.058  0.00  0.00    +0.000 A 
ENDBRANCH  15  16
ENDBRANCH   1  15
TORSDOF 7
ENDMDL
MODEL 4
REMARK VINA RESULT:      -6.9      2.504      5.529
REMARK  Name = 
REMARK  9 active torsions:
REMARK  status: ('A' for Active; 'I' for Inactive)
REMARK    1  A    between atoms: C_1  and  C_2
REMARK    2  A    between atoms: C_2  and  N_3
REMARK    3  A    between atoms: N_3  and  C_4
REMARK    4  A    between atoms: N_3  and  P_6
REMARK    5  A    between atoms: C_4  and  C_5
REMARK    6  A    between atoms: P_6  and  O_8
REMARK    7  A    between atoms: P_6  and  O_15
REMARK    8  A    between atoms: O_8  and  C_9
REMARK    9  A    between atoms: O_15  and  C_16
REMARK                            x       y       z     vdW  Elec       q    Type
REMARK                         _______ _______ _______ _____ _____    ______ ____
ROOT
ATOM      1  P   UNL     1       4.210   6.246  17.814  0.00  0.00    +0.000 P 
ATOM      2  O   UNL     1       4.428   6.808  16.400  0.00  0.00    +0.000 OA
ENDROOT
BRANCH   1   3
ATOM      3  N   UNL     1       5.890   5.659  17.843  0.00  0.00    +0.000 NA
BRANCH   3   5
ATOM      4  C   UNL     1       7.922   5.723  19.439  0.00  0.00    +0.000 C 
ATOM      5  C   UNL     1       6.454   5.390  19.196  0.00  0.00    +0.000 C 
ENDBRANCH   3   5
BRANCH   3   6
ATOM      6  C   UNL     1       6.008   4.476  16.967  0.00  0.00    +0.000 C 
ATOM      7  C   UNL     1       7.081   4.595  15.880  0.00  0.00    +0.000 C 
ENDBRANCH   3   6
ENDBRANCH   1   3
BRANCH   1   8
ATOM      8  O   UNL     1       3.689   4.677  17.774  0.00  0.00    +0.000 OA
BRANCH   8   9
ATOM      9  C   UNL     1       2.887   4.085  18.715  0.00  0.00    +0.000 A 
ATOM     10  C   UNL     1       3.063   4.201  20.093  0.00  0.00    +0.000 A 
ATOM     11  C   UNL     1       2.114   3.655  20.967  0.00  0.00    +0.000 A 
ATOM     12  C   UNL     1       1.004   2.980  20.465  0.00  0.00    +0.000 A 
ATOM     13  C   UNL     1       0.844   2.835  19.088  0.00  0.00    +0.000 A 
ATOM     14  C   UNL     1       1.785   3.389  18.216  0.00  0.00    +0.000 A 
ENDBRANCH   8   9
ENDBRANCH   1   8
BRANCH   1  15
ATOM     15  O   UNL     1       2.577   6.817  17.786  0.00  0.00    +0.000 OA
BRANCH  15  16
ATOM     16  C   UNL     1       2.079   7.773  18.653  0.00  0.00    +0.000 A 
ATOM     17  C   UNL     1       1.901   7.575  20.027  0.00  0.00    +0.000 A 
ATOM     18  C   UNL     1       1.313   8.564  20.817  0.00  0.00    +0.000 A 
ATOM     19  C   UNL     1       0.919   9.768  20.247  0.00  0.00    +0.000 A 
ATOM     20  C   UNL     1       1.115   9.984  18.882  0.00  0.00    +0.000 A 
ATOM     21  C   UNL     1       1.700   8.990  18.089  0.00  0.00    +0.000 A 
ENDBRANCH  15  16
ENDBRANCH   1  15
TORSDOF 7
ENDMDL
MODEL 5
REMARK VINA RESULT:      -6.8      2.356      5.302
REMARK  Name = 
REMARK  9 active torsions:
REMARK  status: ('A' for Active; 'I' for Inactive)
REMARK    1  A    between atoms: C_1  and  C_2
REMARK    2  A    between atoms: C_2  and  N_3
REMARK    3  A    between atoms: N_3  and  C_4
REMARK    4  A    between atoms: N_3  and  P_6
REMARK    5  A    between atoms: C_4  and  C_5
REMARK    6  A    between atoms: P_6  and  O_8
REMARK    7  A    between atoms: P_6  and  O_15
REMARK    8  A    between atoms: O_8  and  C_9
REMARK    9  A    between atoms: O_15  and  C_16
REMARK                            x       y       z     vdW  Elec       q    Type
REMARK                         _______ _______ _______ _____ _____    ______ ____
ROOT
ATOM      1  P   UNL     1       4.466   6.194  17.705  0.00  0.00    +0.000 P 
ATOM      2  O   UNL     1       4.693   6.817  16.318  0.00  0.00    +0.000 OA
ENDROOT
BRANCH   1   3
ATOM      3  N   UNL     1       6.169   5.679  17.756  0.00  0.00    +0.000 NA
BRANCH   3   5
ATOM      4  C   UNL     1       6.982   4.452  15.631  0.00  0.00    +0.000 C 
ATOM      5  C   UNL     1       6.473   4.393  17.068  0.00  0.00    +0.000 C 
ENDBRANCH   3   5
BRANCH   3   6
ATOM      6  C   UNL     1       7.024   6.773  17.252  0.00  0.00    +0.000 C 
ATOM      7  C   UNL     1       7.987   7.356  18.291  0.00  0.00    +0.000 C 
ENDBRANCH   3   6
ENDBRANCH   1   3
BRANCH   1   8
ATOM      8  O   UNL     1       4.016   4.607  17.595  0.00  0.00    +0.000 OA
BRANCH   8   9
ATOM      9  C   UNL     1       3.149   3.969  18.444  0.00  0.00    +0.000 A 
ATOM     10  C   UNL     1       3.291   3.915  19.830  0.00  0.00    +0.000 A 
ATOM     11  C   UNL     1       2.283   3.342  20.615  0.00  0.00    +0.000 A 
ATOM     12  C   UNL     1       1.145   2.807  20.014  0.00  0.00    +0.000 A 
ATOM     13  C   UNL     1       1.016   2.831  18.626  0.00  0.00    +0.000 A 
ATOM     14  C   UNL     1       2.017   3.413  17.844  0.00  0.00    +0.000 A 
ENDBRANCH   8   9
ENDBRANCH   1   8
BRANCH   1  15
ATOM     15  O   UNL     1       2.811   6.695  17.655  0.00  0.00    +0.000 OA
BRANCH  15  16
ATOM     16  C   UNL     1       2.253   7.604  18.537  0.00  0.00    +0.000 A 
ATOM     17  C   UNL     1       2.103   7.380  19.910  0.00  0.00    +0.000 A 
ATOM     18  C   UNL     1       1.453   8.316  20.716  0.00  0.00    +0.000 A 
ATOM     19  C   UNL     1       0.966   9.493  20.161  0.00  0.00    +0.000 A 
ATOM     20  C   UNL     1       1.133   9.736  18.797  0.00  0.00    +0.000 A 
ATOM     21  C   UNL     1       1.780   8.795  17.989  0.00  0.00    +0.000 A 
ENDBRANCH  15  16
ENDBRANCH   1  15
TORSDOF 7
ENDMDL
MODEL 6
REMARK VINA RESULT:      -6.8      2.533      5.611
REMARK  Name = 
REMARK  9 active torsions:
REMARK  status: ('A' for Active; 'I' for Inactive)
REMARK    1  A    between atoms: C_1  and  C_2
REMARK    2  A    between atoms: C_2  and  N_3
REMARK    3  A    between atoms: N_3  and  C_4
REMARK    4  A    between atoms: N_3  and  P_6
REMARK    5  A    between atoms: C_4  and  C_5
REMARK    6  A    between atoms: P_6  and  O_8
REMARK    7  A    between atoms: P_6  and  O_15
REMARK    8  A    between atoms: O_8  and  C_9
REMARK    9  A    between atoms: O_15  and  C_16
REMARK                            x       y       z     vdW  Elec       q    Type
REMARK                         _______ _______ _______ _____ _____    ______ ____
ROOT
ATOM      1  P   UNL     1       4.384   6.346  17.913  0.00  0.00    +0.000 P 
ATOM      2  O   UNL     1       4.543   6.801  16.454  0.00  0.00    +0.000 OA
ENDROOT
BRANCH   1   3
ATOM      3  N   UNL     1       6.110   5.916  17.971  0.00  0.00    +0.000 NA
BRANCH   3   5
ATOM      4  C   UNL     1       7.050   4.335  16.156  0.00  0.00    +0.000 C 
ATOM      5  C   UNL     1       6.442   4.529  17.541  0.00  0.00    +0.000 C 
ENDBRANCH   3   5
BRANCH   3   6
ATOM      6  C   UNL     1       6.886   6.915  17.209  0.00  0.00    +0.000 C 
ATOM      7  C   UNL     1       7.918   7.685  18.039  0.00  0.00    +0.000 C 
ENDBRANCH   3   6
ENDBRANCH   1   3
BRANCH   1   8
ATOM      8  O   UNL     1       4.006   4.739  18.014  0.00  0.00    +0.000 OA
BRANCH   8   9
ATOM      9  C   UNL     1       2.982   4.211  18.756  0.00  0.00    +0.000 A 
ATOM     10  C   UNL     1       1.905   3.499  18.230  0.00  0.00    +0.000 A 
ATOM     11  C   UNL     1       0.977   2.898  19.089  0.00  0.00    +0.000 A 
ATOM     12  C   UNL     1       1.114   3.026  20.471  0.00  0.00    +0.000 A 
ATOM     13  C   UNL     1       2.171   3.765  20.997  0.00  0.00    +0.000 A 
ATOM     14  C   UNL     1       3.104   4.355  20.140  0.00  0.00    +0.000 A 
ENDBRANCH   8   9
ENDBRANCH   1   8
BRANCH   1  15
ATOM     15  O   UNL     1       2.706   6.763  17.857  0.00  0.00    +0.000 OA
BRANCH  15  16
ATOM     16  C   UNL     1       2.148   7.813  18.565  0.00  0.00    +0.000 A 
ATOM     17  C   UNL     1       1.841   7.769  19.929  0.00  0.00    +0.000 A 
ATOM     18  C   UNL     1       1.202   8.844  20.549  0.00  0.00    +0.000 A 
ATOM     19  C   UNL     1       0.883   9.981  19.817  0.00  0.00    +0.000 A 
ATOM     20  C   UNL     1       1.207  10.043  18.461  0.00  0.00    +0.000 A 
ATOM     21  C   UNL     1       1.843   8.963  17.839  0.00  0.00    +0.000 A 
ENDBRANCH  15  16
ENDBRANCH   1  15
TORSDOF 7
ENDMDL
MODEL 7
REMARK VINA RESULT:      -6.8      3.436      5.394
REMARK  Name = 
REMARK  9 active torsions:
REMARK  status: ('A' for Active; 'I' for Inactive)
REMARK    1  A    between atoms: C_1  and  C_2
REMARK    2  A    between atoms: C_2  and  N_3
REMARK    3  A    between atoms: N_3  and  C_4
REMARK    4  A    between atoms: N_3  and  P_6
REMARK    5  A    between atoms: C_4  and  C_5
REMARK    6  A    between atoms: P_6  and  O_8
REMARK    7  A    between atoms: P_6  and  O_15
REMARK    8  A    between atoms: O_8  and  C_9
REMARK    9  A    between atoms: O_15  and  C_16
REMARK                            x       y       z     vdW  Elec       q    Type
REMARK                         _______ _______ _______ _____ _____    ______ ____
ROOT
ATOM      1  P   UNL     1       2.776   5.283  19.625  0.00  0.00    +0.000 P 
ATOM      2  O   UNL     1       2.428   4.697  21.003  0.00  0.00    +0.000 OA
ENDROOT
BRANCH   1   3
ATOM      3  N   UNL     1       2.917   3.638  18.958  0.00  0.00    +0.000 NA
BRANCH   3   5
ATOM      4  C   UNL     1       4.581   2.067  20.160  0.00  0.00    +0.000 C 
ATOM      5  C   UNL     1       3.151   2.557  19.957  0.00  0.00    +0.000 C 
ENDBRANCH   3   5
BRANCH   3   6
ATOM      6  C   UNL     1       1.736   3.349  18.121  0.00  0.00    +0.000 C 
ATOM      7  C   UNL     1       0.687   2.455  18.789  0.00  0.00    +0.000 C 
ENDBRANCH   3   6
ENDBRANCH   1   3
BRANCH   1   8
ATOM      8  O   UNL     1       4.408   5.472  19.436  0.00  0.00    +0.000 OA
BRANCH   8   9
ATOM      9  C   UNL     1       5.079   5.410  18.242  0.00  0.00    +0.000 A 
ATOM     10  C   UNL     1       4.635   5.982  17.051  0.00  0.00    +0.000 A 
ATOM     11  C   UNL     1       5.457   5.964  15.918  0.00  0.00    +0.000 A 
ATOM     12  C   UNL     1       6.712   5.360  15.970  0.00  0.00    +0.000 A 
ATOM     13  C   UNL     1       7.143   4.758  17.151  0.00  0.00    +0.000 A 
ATOM     14  C   UNL     1       6.328   4.786  18.285  0.00  0.00    +0.000 A 
ENDBRANCH   8   9
ENDBRANCH   1   8
BRANCH   1  15
ATOM     15  O   UNL     1       2.639   6.881  20.273  0.00  0.00    +0.000 OA
BRANCH  15  16
ATOM     16  C   UNL     1       1.978   7.917  19.636  0.00  0.00    +0.000 A 
ATOM     17  C   UNL     1       2.139   8.243  18.286  0.00  0.00    +0.000 A 
ATOM     18  C   UNL     1       1.498   9.357  17.742  0.00  0.00    +0.000 A 
ATOM     19  C   UNL     1       0.672  10.142  18.537  0.00  0.00    +0.000 A 
ATOM     20  C   UNL     1       0.485   9.810  19.880  0.00  0.00    +0.000 A 
ATOM     21  C   UNL     1       1.133   8.696  20.426  0.00  0.00    +0.000 A 
ENDBRANCH  15  16
ENDBRANCH   1  15
TORSDOF 7
ENDMDL
MODEL 8
REMARK VINA RESULT:      -6.7      3.387      6.915
REMARK  Name = 
REMARK  9 active torsions:
REMARK  status: ('A' for Active; 'I' for Inactive)
REMARK    1  A    between atoms: C_1  and  C_2
REMARK    2  A    between atoms: C_2  and  N_3
REMARK    3  A    between atoms: N_3  and  C_4
REMARK    4  A    between atoms: N_3  and  P_6
REMARK    5  A    between atoms: C_4  and  C_5
REMARK    6  A    between atoms: P_6  and  O_8
REMARK    7  A    between atoms: P_6  and  O_15
REMARK    8  A    between atoms: O_8  and  C_9
REMARK    9  A    between atoms: O_15  and  C_16
REMARK                            x       y       z     vdW  Elec       q    Type
REMARK                         _______ _______ _______ _____ _____    ______ ____
ROOT
ATOM      1  P   UNL     1       2.882   4.901  18.579  0.00  0.00    +0.000 P 
ATOM      2  O   UNL     1       1.795   5.113  17.513  0.00  0.00    +0.000 OA
ENDROOT
BRANCH   1   3
ATOM      3  N   UNL     1       1.675   4.176  19.669  0.00  0.00    +0.000 NA
BRANCH   3   5
ATOM      4  C   UNL     1       2.078   1.981  18.365  0.00  0.00    +0.000 C 
ATOM      5  C   UNL     1       1.197   2.818  19.287  0.00  0.00    +0.000 C 
ENDBRANCH   3   5
BRANCH   3   6
ATOM      6  C   UNL     1       2.196   4.193  21.051  0.00  0.00    +0.000 C 
ATOM      7  C   UNL     1       1.820   2.965  21.886  0.00  0.00    +0.000 C 
ENDBRANCH   3   6
ENDBRANCH   1   3
BRANCH   1   8
ATOM      8  O   UNL     1       2.994   6.194  19.603  0.00  0.00    +0.000 OA
BRANCH   8   9
ATOM      9  C   UNL     1       2.374   7.403  19.422  0.00  0.00    +0.000 A 
ATOM     10  C   UNL     1       2.387   8.131  18.233  0.00  0.00    +0.000 A 
ATOM     11  C   UNL     1       1.619   9.297  18.118  0.00  0.00    +0.000 A 
ATOM     12  C   UNL     1       0.856   9.743  19.196  0.00  0.00    +0.000 A 
ATOM     13  C   UNL     1       0.868   9.035  20.395  0.00  0.00    +0.000 A 
ATOM     14  C   UNL     1       1.625   7.865  20.506  0.00  0.00    +0.000 A 
ENDBRANCH   8   9
ENDBRANCH   1   8
BRANCH   1  15
ATOM     15  O   UNL     1       4.054   5.605  17.520  0.00  0.00    +0.000 OA
BRANCH  15  16
ATOM     16  C   UNL     1       5.363   5.868  17.884  0.00  0.00    +0.000 A 
ATOM     17  C   UNL     1       6.032   5.233  18.936  0.00  0.00    +0.000 A 
ATOM     18  C   UNL     1       7.325   5.619  19.292  0.00  0.00    +0.000 A 
ATOM     19  C   UNL     1       7.970   6.627  18.586  0.00  0.00    +0.000 A 
ATOM     20  C   UNL     1       7.320   7.250  17.519  0.00  0.00    +0.000 A 
ATOM     21  C   UNL     1       6.021   6.866  17.167  0.00  0.00    +0.000 A 
ENDBRANCH  15  16
ENDBRANCH   1  15
TORSDOF 7
ENDMDL
MODEL 9
REMARK VINA RESULT:      -6.7      2.217      4.899
REMARK  Name = 
REMARK  9 active torsions:
REMARK  status: ('A' for Active; 'I' for Inactive)
REMARK    1  A    between atoms: C_1  and  C_2
REMARK    2  A    between atoms: C_2  and  N_3
REMARK    3  A    between atoms: N_3  and  C_4
REMARK    4  A    between atoms: N_3  and  P_6
REMARK    5  A    between atoms: C_4  and  C_5
REMARK    6  A    between atoms: P_6  and  O_8
REMARK    7  A    between atoms: P_6  and  O_15
REMARK    8  A    between atoms: O_8  and  C_9
REMARK    9  A    between atoms: O_15  and  C_16
REMARK                            x       y       z     vdW  Elec       q    Type
REMARK                         _______ _______ _______ _____ _____    ______ ____
ROOT
ATOM      1  P   UNL     1       4.660   6.271  17.505  0.00  0.00    +0.000 P 
ATOM      2  O   UNL     1       5.548   6.983  16.472  0.00  0.00    +0.000 OA
ENDROOT
BRANCH   1   3
ATOM      3  N   UNL     1       5.985   5.141  17.871  0.00  0.00    +0.000 NA
BRANCH   3   5
ATOM      4  C   UNL     1       6.842   4.074  15.679  0.00  0.00    +0.000 C 
ATOM      5  C   UNL     1       7.053   5.045  16.836  0.00  0.00    +0.000 C 
ENDBRANCH   3   5
BRANCH   3   6
ATOM      6  C   UNL     1       6.550   5.466  19.196  0.00  0.00    +0.000 C 
ATOM      7  C   UNL     1       7.987   5.996  19.162  0.00  0.00    +0.000 C 
ENDBRANCH   3   6
ENDBRANCH   1   3
BRANCH   1   8
ATOM      8  O   UNL     1       3.815   5.022  16.827  0.00  0.00    +0.000 OA
BRANCH   8   9
ATOM      9  C   UNL     1       3.100   4.081  17.522  0.00  0.00    +0.000 A 
ATOM     10  C   UNL     1       1.772   4.229  17.922  0.00  0.00    +0.000 A 
ATOM     11  C   UNL     1       1.098   3.157  18.520  0.00  0.00    +0.000 A 
ATOM     12  C   UNL     1       1.756   1.947  18.735  0.00  0.00    +0.000 A 
ATOM     13  C   UNL     1       3.092   1.808  18.366  0.00  0.00    +0.000 A 
ATOM     14  C   UNL     1       3.761   2.874  17.759  0.00  0.00    +0.000 A 
ENDBRANCH   8   9
ENDBRANCH   1   8
BRANCH   1  15
ATOM     15  O   UNL     1       3.372   7.370  17.150  0.00  0.00    +0.000 OA
BRANCH  15  16
ATOM     16  C   UNL     1       2.549   7.931  18.111  0.00  0.00    +0.000 A 
ATOM     17  C   UNL     1       1.816   9.109  17.931  0.00  0.00    +0.000 A 
ATOM     18  C   UNL     1       1.076   9.653  18.982  0.00  0.00    +0.000 A 
ATOM     19  C   UNL     1       1.044   9.013  20.216  0.00  0.00    +0.000 A 
ATOM     20  C   UNL     1       1.753   7.825  20.397  0.00  0.00    +0.000 A 
ATOM     21  C   UNL     1       2.499   7.283  19.344  0.00  0.00    +0.000 A 
ENDBRANCH  15  16
ENDBRANCH   1  15
TORSDOF 7
ENDMDL
