MODEL 1
REMARK VINA RESULT:      -7.6      0.000      0.000
REMARK  Name = 
REMARK  3 active torsions:
REMARK  status: ('A' for Active; 'I' for Inactive)
REMARK    1  A    between atoms: C_1  and  C_2
REMARK    2  A    between atoms: C_3  and  O_4
REMARK    3  A    between atoms: C_15  and  C_16
REMARK                            x       y       z     vdW  Elec       q    Type
REMARK                         _______ _______ _______ _____ _____    ______ ____
ROOT
ATOM      1  C   UNL     1       1.602   1.967  19.180  0.00  0.00    +0.000 C 
ATOM      2  C   UNL     1       2.567   3.060  18.794  0.00  0.00    +0.000 A 
ATOM      3  C   UNL     1       2.249   4.055  17.856  0.00  0.00    +0.000 A 
ATOM      4  C   UNL     1       3.160   5.058  17.511  0.00  0.00    +0.000 A 
ATOM      5  C   UNL     1       4.432   5.082  18.112  0.00  0.00    +0.000 A 
ATOM      6  C   UNL     1       4.743   4.095  19.043  0.00  0.00    +0.000 A 
ATOM      7  N   UNL     1       6.027   4.350  19.471  0.00  0.00    +0.000 N 
ATOM      8  C   UNL     1       6.551   5.458  18.856  0.00  0.00    +0.000 A 
ATOM      9  C   UNL     1       7.808   6.056  19.002  0.00  0.00    +0.000 A 
ATOM     10  C   UNL     1       8.073   7.192  18.237  0.00  0.00    +0.000 A 
ATOM     11  C   UNL     1       7.116   7.708  17.364  0.00  0.00    +0.000 A 
ATOM     12  C   UNL     1       5.863   7.095  17.233  0.00  0.00    +0.000 A 
ATOM     13  C   UNL     1       5.571   5.944  17.994  0.00  0.00    +0.000 A 
ATOM     14  C   UNL     1       3.851   3.067  19.416  0.00  0.00    +0.000 A 
ATOM     15  C   UNL     1       4.229   2.016  20.427  0.00  0.00    +0.000 C 
ATOM     16  H   UNL     1       6.524   3.796  20.151  0.00  0.00    +0.000 HD
ENDROOT
BRANCH   3  17
ATOM     17  O   UNL     1       1.048   4.139  17.204  0.00  0.00    +0.000 OA
ATOM     18  H   UNL     1       1.020   4.925  16.642  0.00  0.00    +0.000 HD
ENDBRANCH   3  17
TORSDOF 1
ENDMDL
MODEL 2
REMARK VINA RESULT:      -7.2      2.251      2.917
REMARK  Name = 
REMARK  3 active torsions:
REMARK  status: ('A' for Active; 'I' for Inactive)
REMARK    1  A    between atoms: C_1  and  C_2
REMARK    2  A    between atoms: C_3  and  O_4
REMARK    3  A    between atoms: C_15  and  C_16
REMARK                            x       y       z     vdW  Elec       q    Type
REMARK                         _______ _______ _______ _____ _____    ______ ____
ROOT
ATOM      1  C   UNL     1       0.696   3.709  20.436  0.00  0.00    +0.000 C 
ATOM      2  C   UNL     1       1.766   3.719  19.373  0.00  0.00    +0.000 A 
ATOM      3  C   UNL     1       2.032   2.609  18.556  0.00  0.00    +0.000 A 
ATOM      4  C   UNL     1       3.030   2.639  17.576  0.00  0.00    +0.000 A 
ATOM      5  C   UNL     1       3.794   3.806  17.395  0.00  0.00    +0.000 A 
ATOM      6  C   UNL     1       3.525   4.906  18.206  0.00  0.00    +0.000 A 
ATOM      7  N   UNL     1       4.401   5.898  17.823  0.00  0.00    +0.000 N 
ATOM      8  C   UNL     1       5.218   5.483  16.803  0.00  0.00    +0.000 A 
ATOM      9  C   UNL     1       6.233   6.170  16.129  0.00  0.00    +0.000 A 
ATOM     10  C   UNL     1       6.909   5.488  15.117  0.00  0.00    +0.000 A 
ATOM     11  C   UNL     1       6.579   4.173  14.793  0.00  0.00    +0.000 A 
ATOM     12  C   UNL     1       5.559   3.503  15.480  0.00  0.00    +0.000 A 
ATOM     13  C   UNL     1       4.860   4.169  16.508  0.00  0.00    +0.000 A 
ATOM     14  C   UNL     1       2.528   4.913  19.204  0.00  0.00    +0.000 A 
ATOM     15  C   UNL     1       2.272   6.124  20.062  0.00  0.00    +0.000 C 
ATOM     16  H   UNL     1       4.442   6.816  18.238  0.00  0.00    +0.000 HD
ENDROOT
BRANCH   3  17
ATOM     17  O   UNL     1       1.360   1.419  18.635  0.00  0.00    +0.000 OA
ATOM     18  H   UNL     1       0.419   1.569  18.801  0.00  0.00    +0.000 HD
ENDBRANCH   3  17
TORSDOF 1
ENDMDL
MODEL 3
REMARK VINA RESULT:      -7.1      2.311      5.694
REMARK  Name = 
REMARK  3 active torsions:
REMARK  status: ('A' for Active; 'I' for Inactive)
REMARK    1  A    between atoms: C_1  and  C_2
REMARK    2  A    between atoms: C_3  and  O_4
REMARK    3  A    between atoms: C_15  and  C_16
REMARK                            x       y       z     vdW  Elec       q    Type
REMARK                         _______ _______ _______ _____ _____    ______ ____
ROOT
ATOM      1  C   UNL     1       7.620   7.060  17.221  0.00  0.00    +0.000 C 
ATOM      2  C   UNL     1       6.574   6.203  17.889  0.00  0.00    +0.000 A 
ATOM      3  C   UNL     1       6.796   5.553  19.113  0.00  0.00    +0.000 A 
ATOM      4  C   UNL     1       5.811   4.761  19.714  0.00  0.00    +0.000 A 
ATOM      5  C   UNL     1       4.564   4.602  19.084  0.00  0.00    +0.000 A 
ATOM      6  C   UNL     1       4.348   5.250  17.870  0.00  0.00    +0.000 A 
ATOM      7  N   UNL     1       3.065   4.933  17.481  0.00  0.00    +0.000 N 
ATOM      8  C   UNL     1       2.450   4.112  18.391  0.00  0.00    +0.000 A 
ATOM      9  C   UNL     1       1.163   3.564  18.380  0.00  0.00    +0.000 A 
ATOM     10  C   UNL     1       0.801   2.751  19.455  0.00  0.00    +0.000 A 
ATOM     11  C   UNL     1       1.691   2.503  20.498  0.00  0.00    +0.000 A 
ATOM     12  C   UNL     1       2.975   3.062  20.490  0.00  0.00    +0.000 A 
ATOM     13  C   UNL     1       3.367   3.885  19.415  0.00  0.00    +0.000 A 
ATOM     14  C   UNL     1       5.315   6.056  17.234  0.00  0.00    +0.000 A 
ATOM     15  C   UNL     1       5.041   6.737  15.919  0.00  0.00    +0.000 C 
ATOM     16  H   UNL     1       2.628   5.260  16.633  0.00  0.00    +0.000 HD
ENDROOT
BRANCH   3  17
ATOM     17  O   UNL     1       7.965   5.628  19.822  0.00  0.00    +0.000 OA
ATOM     18  H   UNL     1       8.574   4.928  19.550  0.00  0.00    +0.000 HD
ENDBRANCH   3  17
TORSDOF 1
ENDMDL
MODEL 4
REMARK VINA RESULT:      -7.0      1.684      5.075
REMARK  Name = 
REMARK  3 active torsions:
REMARK  status: ('A' for Active; 'I' for Inactive)
REMARK    1  A    between atoms: C_1  and  C_2
REMARK    2  A    between atoms: C_3  and  O_4
REMARK    3  A    between atoms: C_15  and  C_16
REMARK                            x       y       z     vdW  Elec       q    Type
REMARK                         _______ _______ _______ _____ _____    ______ ____
ROOT
ATOM      1  C   UNL     1       7.629   7.135  17.176  0.00  0.00    +0.000 C 
ATOM      2  C   UNL     1       6.364   6.350  17.416  0.00  0.00    +0.000 A 
ATOM      3  C   UNL     1       5.301   6.328  16.500  0.00  0.00    +0.000 A 
ATOM      4  C   UNL     1       4.135   5.594  16.743  0.00  0.00    +0.000 A 
ATOM      5  C   UNL     1       4.013   4.854  17.934  0.00  0.00    +0.000 A 
ATOM      6  C   UNL     1       5.071   4.877  18.839  0.00  0.00    +0.000 A 
ATOM      7  N   UNL     1       4.697   4.080  19.898  0.00  0.00    +0.000 N 
ATOM      8  C   UNL     1       3.447   3.548  19.711  0.00  0.00    +0.000 A 
ATOM      9  C   UNL     1       2.702   2.696  20.534  0.00  0.00    +0.000 A 
ATOM     10  C   UNL     1       1.439   2.308  20.082  0.00  0.00    +0.000 A 
ATOM     11  C   UNL     1       0.947   2.755  18.857  0.00  0.00    +0.000 A 
ATOM     12  C   UNL     1       1.710   3.607  18.048  0.00  0.00    +0.000 A 
ATOM     13  C   UNL     1       2.988   4.015  18.481  0.00  0.00    +0.000 A 
ATOM     14  C   UNL     1       6.261   5.606  18.628  0.00  0.00    +0.000 A 
ATOM     15  C   UNL     1       7.381   5.605  19.636  0.00  0.00    +0.000 C 
ATOM     16  H   UNL     1       5.266   3.907  20.713  0.00  0.00    +0.000 HD
ENDROOT
BRANCH   3  17
ATOM     17  O   UNL     1       5.299   7.005  15.310  0.00  0.00    +0.000 OA
ATOM     18  H   UNL     1       5.664   6.455  14.604  0.00  0.00    +0.000 HD
ENDBRANCH   3  17
TORSDOF 1
ENDMDL
MODEL 5
REMARK VINA RESULT:      -7.0      3.878      5.225
REMARK  Name = 
REMARK  3 active torsions:
REMARK  status: ('A' for Active; 'I' for Inactive)
REMARK    1  A    between atoms: C_1  and  C_2
REMARK    2  A    between atoms: C_3  and  O_4
REMARK    3  A    between atoms: C_15  and  C_16
REMARK                            x       y       z     vdW  Elec       q    Type
REMARK                         _______ _______ _______ _____ _____    ______ ____
ROOT
ATOM      1  C   UNL     1       0.677  10.666  20.052  0.00  0.00    +0.000 C 
ATOM      2  C   UNL     1       1.360   9.424  19.536  0.00  0.00    +0.000 A 
ATOM      3  C   UNL     1       1.902   9.339  18.244  0.00  0.00    +0.000 A 
ATOM      4  C   UNL     1       2.530   8.176  17.785  0.00  0.00    +0.000 A 
ATOM      5  C   UNL     1       2.627   7.056  18.631  0.00  0.00    +0.000 A 
ATOM      6  C   UNL     1       2.090   7.145  19.912  0.00  0.00    +0.000 A 
ATOM      7  N   UNL     1       2.320   5.931  20.519  0.00  0.00    +0.000 N 
ATOM      8  C   UNL     1       2.981   5.068  19.684  0.00  0.00    +0.000 A 
ATOM      9  C   UNL     1       3.403   3.752  19.903  0.00  0.00    +0.000 A 
ATOM     10  C   UNL     1       4.064   3.105  18.857  0.00  0.00    +0.000 A 
ATOM     11  C   UNL     1       4.293   3.753  17.644  0.00  0.00    +0.000 A 
ATOM     12  C   UNL     1       3.862   5.071  17.445  0.00  0.00    +0.000 A 
ATOM     13  C   UNL     1       3.191   5.747  18.485  0.00  0.00    +0.000 A 
ATOM     14  C   UNL     1       1.449   8.300  20.410  0.00  0.00    +0.000 A 
ATOM     15  C   UNL     1       0.879   8.354  21.803  0.00  0.00    +0.000 C 
ATOM     16  H   UNL     1       2.039   5.698  21.460  0.00  0.00    +0.000 HD
ENDROOT
BRANCH   3  17
ATOM     17  O   UNL     1       1.870  10.357  17.330  0.00  0.00    +0.000 OA
ATOM     18  H   UNL     1       1.409  11.126  17.692  0.00  0.00    +0.000 HD
ENDBRANCH   3  17
TORSDOF 1
ENDMDL
MODEL 6
REMARK VINA RESULT:      -6.9      2.232      2.615
REMARK  Name = 
REMARK  3 active torsions:
REMARK  status: ('A' for Active; 'I' for Inactive)
REMARK    1  A    between atoms: C_1  and  C_2
REMARK    2  A    between atoms: C_3  and  O_4
REMARK    3  A    between atoms: C_15  and  C_16
REMARK                            x       y       z     vdW  Elec       q    Type
REMARK                         _______ _______ _______ _____ _____    ______ ____
ROOT
ATOM      1  C   UNL     1       0.735   3.618  20.549  0.00  0.00    +0.000 C 
ATOM      2  C   UNL     1       1.916   4.143  19.770  0.00  0.00    +0.000 A 
ATOM      3  C   UNL     1       2.469   5.413  19.998  0.00  0.00    +0.000 A 
ATOM      4  C   UNL     1       3.563   5.881  19.262  0.00  0.00    +0.000 A 
ATOM      5  C   UNL     1       4.132   5.067  18.266  0.00  0.00    +0.000 A 
ATOM      6  C   UNL     1       3.582   3.807  18.045  0.00  0.00    +0.000 A 
ATOM      7  N   UNL     1       4.318   3.230  17.034  0.00  0.00    +0.000 N 
ATOM      8  C   UNL     1       5.317   4.063  16.599  0.00  0.00    +0.000 A 
ATOM      9  C   UNL     1       6.279   3.867  15.603  0.00  0.00    +0.000 A 
ATOM     10  C   UNL     1       7.185   4.903  15.371  0.00  0.00    +0.000 A 
ATOM     11  C   UNL     1       7.128   6.085  16.109  0.00  0.00    +0.000 A 
ATOM     12  C   UNL     1       6.156   6.261  17.102  0.00  0.00    +0.000 A 
ATOM     13  C   UNL     1       5.228   5.230  17.356  0.00  0.00    +0.000 A 
ATOM     14  C   UNL     1       2.479   3.302  18.765  0.00  0.00    +0.000 A 
ATOM     15  C   UNL     1       1.912   1.933  18.493  0.00  0.00    +0.000 C 
ATOM     16  H   UNL     1       4.149   2.310  16.657  0.00  0.00    +0.000 HD
ENDROOT
BRANCH   3  17
ATOM     17  O   UNL     1       2.005   6.296  20.936  0.00  0.00    +0.000 OA
ATOM     18  H   UNL     1       1.144   6.649  20.675  0.00  0.00    +0.000 HD
ENDBRANCH   3  17
TORSDOF 1
ENDMDL
MODEL 7
REMARK VINA RESULT:      -6.9      3.828      4.814
REMARK  Name = 
REMARK  3 active torsions:
REMARK  status: ('A' for Active; 'I' for Inactive)
REMARK    1  A    between atoms: C_1  and  C_2
REMARK    2  A    between atoms: C_3  and  O_4
REMARK    3  A    between atoms: C_15  and  C_16
REMARK                            x       y       z     vdW  Elec       q    Type
REMARK                         _______ _______ _______ _____ _____    ______ ____
ROOT
ATOM      1  C   UNL     1       5.337   5.283  19.687  0.00  0.00    +0.000 C 
ATOM      2  C   UNL     1       5.438   4.908  18.230  0.00  0.00    +0.000 A 
ATOM      3  C   UNL     1       4.547   4.017  17.612  0.00  0.00    +0.000 A 
ATOM      4  C   UNL     1       4.661   3.682  16.259  0.00  0.00    +0.000 A 
ATOM      5  C   UNL     1       5.692   4.246  15.486  0.00  0.00    +0.000 A 
ATOM      6  C   UNL     1       6.573   5.131  16.102  0.00  0.00    +0.000 A 
ATOM      7  N   UNL     1       7.467   5.530  15.133  0.00  0.00    +0.000 N 
ATOM      8  C   UNL     1       7.198   4.941  13.925  0.00  0.00    +0.000 A 
ATOM      9  C   UNL     1       7.853   5.071  12.696  0.00  0.00    +0.000 A 
ATOM     10  C   UNL     1       7.351   4.341  11.618  0.00  0.00    +0.000 A 
ATOM     11  C   UNL     1       6.237   3.516  11.767  0.00  0.00    +0.000 A 
ATOM     12  C   UNL     1       5.595   3.399  13.006  0.00  0.00    +0.000 A 
ATOM     13  C   UNL     1       6.083   4.126  14.112  0.00  0.00    +0.000 A 
ATOM     14  C   UNL     1       6.490   5.492  17.463  0.00  0.00    +0.000 A 
ATOM     15  C   UNL     1       7.466   6.452  18.091  0.00  0.00    +0.000 C 
ATOM     16  H   UNL     1       8.228   6.174  15.288  0.00  0.00    +0.000 HD
ENDROOT
BRANCH   3  17
ATOM     17  O   UNL     1       3.506   3.404  18.256  0.00  0.00    +0.000 OA
ATOM     18  H   UNL     1       2.693   3.475  17.736  0.00  0.00    +0.000 HD
ENDBRANCH   3  17
TORSDOF 1
ENDMDL
MODEL 8
REMARK VINA RESULT:      -6.9      3.285      4.097
REMARK  Name = 
REMARK  3 active torsions:
REMARK  status: ('A' for Active; 'I' for Inactive)
REMARK    1  A    between atoms: C_1  and  C_2
REMARK    2  A    between atoms: C_3  and  O_4
REMARK    3  A    between atoms: C_15  and  C_16
REMARK                            x       y       z     vdW  Elec       q    Type
REMARK                         _______ _______ _______ _____ _____    ______ ____
ROOT
ATOM      1  C   UNL     1       4.067   1.993  19.671  0.00  0.00    +0.000 C 
ATOM      2  C   UNL     1       3.691   3.411  19.320  0.00  0.00    +0.000 A 
ATOM      3  C   UNL     1       4.077   4.021  18.116  0.00  0.00    +0.000 A 
ATOM      4  C   UNL     1       3.718   5.339  17.811  0.00  0.00    +0.000 A 
ATOM      5  C   UNL     1       2.951   6.082  18.726  0.00  0.00    +0.000 A 
ATOM      6  C   UNL     1       2.569   5.472  19.918  0.00  0.00    +0.000 A 
ATOM      7  N   UNL     1       1.837   6.406  20.618  0.00  0.00    +0.000 N 
ATOM      8  C   UNL     1       1.732   7.585  19.927  0.00  0.00    +0.000 A 
ATOM      9  C   UNL     1       1.083   8.775  20.274  0.00  0.00    +0.000 A 
ATOM     10  C   UNL     1       1.142   9.830  19.362  0.00  0.00    +0.000 A 
ATOM     11  C   UNL     1       1.823   9.696  18.153  0.00  0.00    +0.000 A 
ATOM     12  C   UNL     1       2.467   8.496  17.825  0.00  0.00    +0.000 A 
ATOM     13  C   UNL     1       2.423   7.415  18.729  0.00  0.00    +0.000 A 
ATOM     14  C   UNL     1       2.912   4.147  20.261  0.00  0.00    +0.000 A 
ATOM     15  C   UNL     1       2.479   3.526  21.563  0.00  0.00    +0.000 C 
ATOM     16  H   UNL     1       1.426   6.248  21.526  0.00  0.00    +0.000 HD
ENDROOT
BRANCH   3  17
ATOM     17  O   UNL     1       4.822   3.405  17.147  0.00  0.00    +0.000 OA
ATOM     18  H   UNL     1       5.503   2.845  17.546  0.00  0.00    +0.000 HD
ENDBRANCH   3  17
TORSDOF 1
ENDMDL
MODEL 9
REMARK VINA RESULT:      -6.8      2.631      5.487
REMARK  Name = 
REMARK  3 active torsions:
REMARK  status: ('A' for Active; 'I' for Inactive)
REMARK    1  A    between atoms: C_1  and  C_2
REMARK    2  A    between atoms: C_3  and  O_4
REMARK    3  A    between atoms: C_15  and  C_16
REMARK                            x       y       z     vdW  Elec       q    Type
REMARK                         _______ _______ _______ _____ _____    ______ ____
ROOT
ATOM      1  C   UNL     1       7.536   5.387  15.802  0.00  0.00    +0.000 C 
ATOM      2  C   UNL     1       6.446   5.099  16.804  0.00  0.00    +0.000 A 
ATOM      3  C   UNL     1       6.542   5.467  18.155  0.00  0.00    +0.000 A 
ATOM      4  C   UNL     1       5.519   5.189  19.067  0.00  0.00    +0.000 A 
ATOM      5  C   UNL     1       4.359   4.523  18.632  0.00  0.00    +0.000 A 
ATOM      6  C   UNL     1       4.267   4.161  17.291  0.00  0.00    +0.000 A 
ATOM      7  N   UNL     1       3.049   3.536  17.136  0.00  0.00    +0.000 N 
ATOM      8  C   UNL     1       2.357   3.483  18.319  0.00  0.00    +0.000 A 
ATOM      9  C   UNL     1       1.098   2.941  18.599  0.00  0.00    +0.000 A 
ATOM     10  C   UNL     1       0.636   3.031  19.913  0.00  0.00    +0.000 A 
ATOM     11  C   UNL     1       1.406   3.639  20.903  0.00  0.00    +0.000 A 
ATOM     12  C   UNL     1       2.664   4.175  20.602  0.00  0.00    +0.000 A 
ATOM     13  C   UNL     1       3.154   4.097  19.282  0.00  0.00    +0.000 A 
ATOM     14  C   UNL     1       5.277   4.424  16.342  0.00  0.00    +0.000 A 
ATOM     15  C   UNL     1       5.138   4.013  14.899  0.00  0.00    +0.000 C 
ATOM     16  H   UNL     1       2.704   3.162  16.265  0.00  0.00    +0.000 HD
ENDROOT
BRANCH   3  17
ATOM     17  O   UNL     1       7.617   6.117  18.699  0.00  0.00    +0.000 OA
ATOM     18  H   UNL     1       7.360   6.586  19.505  0.00  0.00    +0.000 HD
ENDBRANCH   3  17
TORSDOF 1
ENDMDL
