MODEL 1
REMARK VINA RESULT:      -6.7      0.000      0.000
REMARK  Name = 
REMARK  6 active torsions:
REMARK  status: ('A' for Active; 'I' for Inactive)
REMARK    1  A    between atoms: C_1  and  C_2
REMARK    2  A    between atoms: C_5  and  N_6
REMARK    3  A    between atoms: C_7  and  C_9
REMARK    4  A    between atoms: C_9  and  S_10
REMARK    5  A    between atoms: S_10  and  C_11
REMARK    6  A    between atoms: N_15  and  C_16
REMARK                            x       y       z     vdW  Elec       q    Type
REMARK                         _______ _______ _______ _____ _____    ______ ____
ROOT
ATOM      1  N   UNL     1       4.153   4.799  17.370  0.00  0.00    +0.000 N 
ATOM      2  C   UNL     1       4.472   6.106  17.043  0.00  0.00    +0.000 C 
ATOM      3  O   UNL     1       4.181   7.057  17.759  0.00  0.00    +0.000 OA
ATOM      4  H   UNL     1       4.629   4.059  16.867  0.00  0.00    +0.000 HD
ENDROOT
BRANCH   1   9
ATOM      5  C   UNL     1       1.236   2.511  21.806  0.00  0.00    +0.000 C 
ATOM      6  C   UNL     1       1.861   2.798  20.441  0.00  0.00    +0.000 C 
ATOM      7  C   UNL     1       1.354   4.133  19.877  0.00  0.00    +0.000 C 
ATOM      8  C   UNL     1       2.016   4.476  18.542  0.00  0.00    +0.000 C 
ATOM      9  C   UNL     1       3.545   4.471  18.652  0.00  0.00    +0.000 C 
ATOM     10  C   UNL     1       4.041   3.121  19.189  0.00  0.00    +0.000 C 
ATOM     11  C   UNL     1       3.393   2.792  20.534  0.00  0.00    +0.000 C 
ENDBRANCH   1   9
BRANCH   2  12
ATOM     12  C   UNL     1       5.163   6.282  15.697  0.00  0.00    +0.000 C 
BRANCH  12  13
ATOM     13  S   UNL     1       6.711   5.328  15.621  0.00  0.00    +0.000 S 
BRANCH  13  14
ATOM     14  C   UNL     1       7.248   5.462  17.255  0.00  0.00    +0.000 A 
ATOM     15  N   UNL     1       7.354   4.482  18.121  0.00  0.00    +0.000 NA
ATOM     16  N   UNL     1       7.766   5.027  19.317  0.00  0.00    +0.000 NA
ATOM     17  C   UNL     1       7.900   6.323  19.138  0.00  0.00    +0.000 A 
ATOM     18  N   UNL     1       7.612   6.639  17.844  0.00  0.00    +0.000 N 
ATOM     19  C   UNL     1       7.677   7.955  17.269  0.00  0.00    +0.000 C 
ENDBRANCH  13  14
ENDBRANCH  12  13
ENDBRANCH   2  12
TORSDOF 4
ENDMDL
MODEL 2
REMARK VINA RESULT:      -6.5      0.473      1.268
REMARK  Name = 
REMARK  6 active torsions:
REMARK  status: ('A' for Active; 'I' for Inactive)
REMARK    1  A    between atoms: C_1  and  C_2
REMARK    2  A    between atoms: C_5  and  N_6
REMARK    3  A    between atoms: C_7  and  C_9
REMARK    4  A    between atoms: C_9  and  S_10
REMARK    5  A    between atoms: S_10  and  C_11
REMARK    6  A    between atoms: N_15  and  C_16
REMARK                            x       y       z     vdW  Elec       q    Type
REMARK                         _______ _______ _______ _____ _____    ______ ____
ROOT
ATOM      1  N   UNL     1       3.861   4.400  17.011  0.00  0.00    +0.000 N 
ATOM      2  C   UNL     1       4.240   5.719  17.194  0.00  0.00    +0.000 C 
ATOM      3  O   UNL     1       3.931   6.364  18.190  0.00  0.00    +0.000 OA
ATOM      4  H   UNL     1       4.346   3.865  16.299  0.00  0.00    +0.000 HD
ENDROOT
BRANCH   1   9
ATOM      5  C   UNL     1       1.304   2.549  21.854  0.00  0.00    +0.000 C 
ATOM      6  C   UNL     1       2.028   3.371  20.788  0.00  0.00    +0.000 C 
ATOM      7  C   UNL     1       3.355   2.708  20.394  0.00  0.00    +0.000 C 
ATOM      8  C   UNL     1       4.067   3.477  19.280  0.00  0.00    +0.000 C 
ATOM      9  C   UNL     1       3.162   3.665  18.057  0.00  0.00    +0.000 C 
ATOM     10  C   UNL     1       1.851   4.355  18.459  0.00  0.00    +0.000 C 
ATOM     11  C   UNL     1       1.132   3.572  19.559  0.00  0.00    +0.000 C 
ENDBRANCH   1   9
BRANCH   2  12
ATOM     12  C   UNL     1       5.021   6.330  16.038  0.00  0.00    +0.000 C 
BRANCH  12  13
ATOM     13  S   UNL     1       6.590   5.449  15.765  0.00  0.00    +0.000 S 
BRANCH  13  14
ATOM     14  C   UNL     1       7.282   5.533  17.343  0.00  0.00    +0.000 A 
ATOM     15  N   UNL     1       7.509   4.521  18.147  0.00  0.00    +0.000 NA
ATOM     16  N   UNL     1       8.018   5.029  19.322  0.00  0.00    +0.000 NA
ATOM     17  C   UNL     1       8.086   6.336  19.193  0.00  0.00    +0.000 A 
ATOM     18  N   UNL     1       7.660   6.696  17.950  0.00  0.00    +0.000 N 
ATOM     19  C   UNL     1       7.620   8.039  17.434  0.00  0.00    +0.000 C 
ENDBRANCH  13  14
ENDBRANCH  12  13
ENDBRANCH   2  12
TORSDOF 4
ENDMDL
MODEL 3
REMARK VINA RESULT:      -6.5      2.635      6.106
REMARK  Name = 
REMARK  6 active torsions:
REMARK  status: ('A' for Active; 'I' for Inactive)
REMARK    1  A    between atoms: C_1  and  C_2
REMARK    2  A    between atoms: C_5  and  N_6
REMARK    3  A    between atoms: C_7  and  C_9
REMARK    4  A    between atoms: C_9  and  S_10
REMARK    5  A    between atoms: S_10  and  C_11
REMARK    6  A    between atoms: N_15  and  C_16
REMARK                            x       y       z     vdW  Elec       q    Type
REMARK                         _______ _______ _______ _____ _____    ______ ____
ROOT
ATOM      1  N   UNL     1       4.719   3.633  17.980  0.00  0.00    +0.000 N 
ATOM      2  C   UNL     1       4.426   2.761  19.014  0.00  0.00    +0.000 C 
ATOM      3  O   UNL     1       4.846   2.922  20.155  0.00  0.00    +0.000 OA
ATOM      4  H   UNL     1       4.151   3.577  17.142  0.00  0.00    +0.000 HD
ENDROOT
BRANCH   1   9
ATOM      5  C   UNL     1       8.065   8.340  17.728  0.00  0.00    +0.000 C 
ATOM      6  C   UNL     1       7.298   7.056  17.416  0.00  0.00    +0.000 C 
ATOM      7  C   UNL     1       7.765   5.906  18.319  0.00  0.00    +0.000 C 
ATOM      8  C   UNL     1       6.966   4.626  18.072  0.00  0.00    +0.000 C 
ATOM      9  C   UNL     1       5.459   4.865  18.221  0.00  0.00    +0.000 C 
ATOM     10  C   UNL     1       4.999   5.996  17.291  0.00  0.00    +0.000 C 
ATOM     11  C   UNL     1       5.787   7.280  17.556  0.00  0.00    +0.000 C 
ENDBRANCH   1   9
BRANCH   2  12
ATOM     12  C   UNL     1       3.588   1.552  18.619  0.00  0.00    +0.000 C 
BRANCH  12  13
ATOM     13  S   UNL     1       1.818   1.968  18.560  0.00  0.00    +0.000 S 
BRANCH  13  14
ATOM     14  C   UNL     1       1.832   3.527  19.298  0.00  0.00    +0.000 A 
ATOM     15  N   UNL     1       1.957   4.678  18.680  0.00  0.00    +0.000 NA
ATOM     16  N   UNL     1       1.972   5.666  19.639  0.00  0.00    +0.000 NA
ATOM     17  C   UNL     1       1.854   5.082  20.812  0.00  0.00    +0.000 A 
ATOM     18  N   UNL     1       1.732   3.736  20.643  0.00  0.00    +0.000 N 
ATOM     19  C   UNL     1       1.554   2.772  21.697  0.00  0.00    +0.000 C 
ENDBRANCH  13  14
ENDBRANCH  12  13
ENDBRANCH   2  12
TORSDOF 4
ENDMDL
MODEL 4
REMARK VINA RESULT:      -6.5      1.075      1.600
REMARK  Name = 
REMARK  6 active torsions:
REMARK  status: ('A' for Active; 'I' for Inactive)
REMARK    1  A    between atoms: C_1  and  C_2
REMARK    2  A    between atoms: C_5  and  N_6
REMARK    3  A    between atoms: C_7  and  C_9
REMARK    4  A    between atoms: C_9  and  S_10
REMARK    5  A    between atoms: S_10  and  C_11
REMARK    6  A    between atoms: N_15  and  C_16
REMARK                            x       y       z     vdW  Elec       q    Type
REMARK                         _______ _______ _______ _____ _____    ______ ____
ROOT
ATOM      1  N   UNL     1       3.899   5.194  17.721  0.00  0.00    +0.000 N 
ATOM      2  C   UNL     1       4.513   4.718  16.575  0.00  0.00    +0.000 C 
ATOM      3  O   UNL     1       4.530   3.528  16.279  0.00  0.00    +0.000 OA
ATOM      4  H   UNL     1       3.714   6.190  17.776  0.00  0.00    +0.000 HD
ENDROOT
BRANCH   1   9
ATOM      5  C   UNL     1       1.290   2.464  22.097  0.00  0.00    +0.000 C 
ATOM      6  C   UNL     1       2.093   3.434  21.231  0.00  0.00    +0.000 C 
ATOM      7  C   UNL     1       3.270   2.717  20.555  0.00  0.00    +0.000 C 
ATOM      8  C   UNL     1       4.050   3.652  19.630  0.00  0.00    +0.000 C 
ATOM      9  C   UNL     1       3.135   4.309  18.589  0.00  0.00    +0.000 C 
ATOM     10  C   UNL     1       1.980   5.047  19.280  0.00  0.00    +0.000 C 
ATOM     11  C   UNL     1       1.189   4.103  20.188  0.00  0.00    +0.000 C 
ENDBRANCH   1   9
BRANCH   2  12
ATOM     12  C   UNL     1       5.217   5.776  15.735  0.00  0.00    +0.000 C 
BRANCH  12  13
ATOM     13  S   UNL     1       6.995   5.419  15.583  0.00  0.00    +0.000 S 
BRANCH  13  14
ATOM     14  C   UNL     1       7.480   5.509  17.235  0.00  0.00    +0.000 A 
ATOM     15  N   UNL     1       7.715   4.492  18.033  0.00  0.00    +0.000 NA
ATOM     16  N   UNL     1       8.023   5.000  19.275  0.00  0.00    +0.000 NA
ATOM     17  C   UNL     1       7.968   6.312  19.192  0.00  0.00    +0.000 A 
ATOM     18  N   UNL     1       7.659   6.678  17.917  0.00  0.00    +0.000 N 
ATOM     19  C   UNL     1       7.540   8.029  17.439  0.00  0.00    +0.000 C 
ENDBRANCH  13  14
ENDBRANCH  12  13
ENDBRANCH   2  12
TORSDOF 4
ENDMDL
MODEL 5
REMARK VINA RESULT:      -6.4      2.781      6.099
REMARK  Name = 
REMARK  6 active torsions:
REMARK  status: ('A' for Active; 'I' for Inactive)
REMARK    1  A    between atoms: C_1  and  C_2
REMARK    2  A    between atoms: C_5  and  N_6
REMARK    3  A    between atoms: C_7  and  C_9
REMARK    4  A    between atoms: C_9  and  S_10
REMARK    5  A    between atoms: S_10  and  C_11
REMARK    6  A    between atoms: N_15  and  C_16
REMARK                            x       y       z     vdW  Elec       q    Type
REMARK                         _______ _______ _______ _____ _____    ______ ____
ROOT
ATOM      1  N   UNL     1       4.954   3.663  17.781  0.00  0.00    +0.000 N 
ATOM      2  C   UNL     1       4.670   2.755  18.786  0.00  0.00    +0.000 C 
ATOM      3  O   UNL     1       5.022   2.924  19.949  0.00  0.00    +0.000 OA
ATOM      4  H   UNL     1       4.433   3.584  16.915  0.00  0.00    +0.000 HD
ENDROOT
BRANCH   1   9
ATOM      5  C   UNL     1       8.132   8.492  17.850  0.00  0.00    +0.000 C 
ATOM      6  C   UNL     1       7.477   7.161  17.482  0.00  0.00    +0.000 C 
ATOM      7  C   UNL     1       7.812   6.082  18.521  0.00  0.00    +0.000 C 
ATOM      8  C   UNL     1       7.114   4.757  18.212  0.00  0.00    +0.000 C 
ATOM      9  C   UNL     1       5.597   4.937  18.075  0.00  0.00    +0.000 C 
ATOM     10  C   UNL     1       5.275   5.996  17.013  0.00  0.00    +0.000 C 
ATOM     11  C   UNL     1       5.958   7.326  17.337  0.00  0.00    +0.000 C 
ENDBRANCH   1   9
BRANCH   2  12
ATOM     12  C   UNL     1       3.937   1.500  18.332  0.00  0.00    +0.000 C 
BRANCH  12  13
ATOM     13  S   UNL     1       2.192   1.856  17.959  0.00  0.00    +0.000 S 
BRANCH  13  14
ATOM     14  C   UNL     1       1.769   2.834  19.315  0.00  0.00    +0.000 A 
ATOM     15  N   UNL     1       1.553   2.413  20.540  0.00  0.00    +0.000 NA
ATOM     16  N   UNL     1       1.192   3.504  21.298  0.00  0.00    +0.000 NA
ATOM     17  C   UNL     1       1.201   4.556  20.508  0.00  0.00    +0.000 A 
ATOM     18  N   UNL     1       1.587   4.186  19.256  0.00  0.00    +0.000 N 
ATOM     19  C   UNL     1       1.743   5.069  18.131  0.00  0.00    +0.000 C 
ENDBRANCH  13  14
ENDBRANCH  12  13
ENDBRANCH   2  12
TORSDOF 4
ENDMDL
MODEL 6
REMARK VINA RESULT:      -6.3      1.871      2.879
REMARK  Name = 
REMARK  6 active torsions:
REMARK  status: ('A' for Active; 'I' for Inactive)
REMARK    1  A    between atoms: C_1  and  C_2
REMARK    2  A    between atoms: C_5  and  N_6
REMARK    3  A    between atoms: C_7  and  C_9
REMARK    4  A    between atoms: C_9  and  S_10
REMARK    5  A    between atoms: S_10  and  C_11
REMARK    6  A    between atoms: N_15  and  C_16
REMARK                            x       y       z     vdW  Elec       q    Type
REMARK                         _______ _______ _______ _____ _____    ______ ____
ROOT
ATOM      1  N   UNL     1       5.846   3.787  18.846  0.00  0.00    +0.000 N 
ATOM      2  C   UNL     1       5.897   5.115  19.235  0.00  0.00    +0.000 C 
ATOM      3  O   UNL     1       4.891   5.771  19.483  0.00  0.00    +0.000 OA
ATOM      4  H   UNL     1       6.704   3.249  18.896  0.00  0.00    +0.000 HD
ENDROOT
BRANCH   1   9
ATOM      5  C   UNL     1       0.327   2.069  18.844  0.00  0.00    +0.000 C 
ATOM      6  C   UNL     1       1.618   2.885  18.857  0.00  0.00    +0.000 C 
ATOM      7  C   UNL     1       2.457   2.561  20.101  0.00  0.00    +0.000 C 
ATOM      8  C   UNL     1       3.787   3.316  20.105  0.00  0.00    +0.000 C 
ATOM      9  C   UNL     1       4.585   3.058  18.821  0.00  0.00    +0.000 C 
ATOM     10  C   UNL     1       3.746   3.414  17.586  0.00  0.00    +0.000 C 
ATOM     11  C   UNL     1       2.426   2.641  17.576  0.00  0.00    +0.000 C 
ENDBRANCH   1   9
BRANCH   2  12
ATOM     12  C   UNL     1       7.294   5.720  19.276  0.00  0.00    +0.000 C 
BRANCH  12  13
ATOM     13  S   UNL     1       7.605   6.759  17.814  0.00  0.00    +0.000 S 
BRANCH  13  14
ATOM     14  C   UNL     1       7.038   5.720  16.559  0.00  0.00    +0.000 A 
ATOM     15  N   UNL     1       7.659   4.665  16.084  0.00  0.00    +0.000 NA
ATOM     16  N   UNL     1       6.891   4.156  15.061  0.00  0.00    +0.000 NA
ATOM     17  C   UNL     1       5.824   4.917  14.948  0.00  0.00    +0.000 A 
ATOM     18  N   UNL     1       5.861   5.899  15.892  0.00  0.00    +0.000 N 
ATOM     19  C   UNL     1       4.851   6.903  16.096  0.00  0.00    +0.000 C 
ENDBRANCH  13  14
ENDBRANCH  12  13
ENDBRANCH   2  12
TORSDOF 4
ENDMDL
MODEL 7
REMARK VINA RESULT:      -6.3      1.213      1.303
REMARK  Name = 
REMARK  6 active torsions:
REMARK  status: ('A' for Active; 'I' for Inactive)
REMARK    1  A    between atoms: C_1  and  C_2
REMARK    2  A    between atoms: C_5  and  N_6
REMARK    3  A    between atoms: C_7  and  C_9
REMARK    4  A    between atoms: C_9  and  S_10
REMARK    5  A    between atoms: S_10  and  C_11
REMARK    6  A    between atoms: N_15  and  C_16
REMARK                            x       y       z     vdW  Elec       q    Type
REMARK                         _______ _______ _______ _____ _____    ______ ____
ROOT
ATOM      1  N   UNL     1       4.330   3.262  16.981  0.00  0.00    +0.000 N 
ATOM      2  C   UNL     1       4.802   4.379  16.312  0.00  0.00    +0.000 C 
ATOM      3  O   UNL     1       4.382   5.509  16.534  0.00  0.00    +0.000 OA
ATOM      4  H   UNL     1       4.881   2.413  16.926  0.00  0.00    +0.000 HD
ENDROOT
BRANCH   1   9
ATOM      5  C   UNL     1       1.175   2.733  21.796  0.00  0.00    +0.000 C 
ATOM      6  C   UNL     1       2.209   2.567  20.683  0.00  0.00    +0.000 C 
ATOM      7  C   UNL     1       1.528   2.219  19.352  0.00  0.00    +0.000 C 
ATOM      8  C   UNL     1       2.535   2.113  18.207  0.00  0.00    +0.000 C 
ATOM      9  C   UNL     1       3.378   3.387  18.076  0.00  0.00    +0.000 C 
ATOM     10  C   UNL     1       4.077   3.707  19.405  0.00  0.00    +0.000 C 
ATOM     11  C   UNL     1       3.063   3.833  20.543  0.00  0.00    +0.000 C 
ENDBRANCH   1   9
BRANCH   2  12
ATOM     12  C   UNL     1       5.843   4.093  15.238  0.00  0.00    +0.000 C 
BRANCH  12  13
ATOM     13  S   UNL     1       7.165   5.343  15.252  0.00  0.00    +0.000 S 
BRANCH  13  14
ATOM     14  C   UNL     1       7.539   5.392  16.936  0.00  0.00    +0.000 A 
ATOM     15  N   UNL     1       7.889   4.371  17.684  0.00  0.00    +0.000 NA
ATOM     16  N   UNL     1       8.043   4.833  18.972  0.00  0.00    +0.000 NA
ATOM     17  C   UNL     1       7.783   6.123  18.965  0.00  0.00    +0.000 A 
ATOM     18  N   UNL     1       7.489   6.524  17.697  0.00  0.00    +0.000 N 
ATOM     19  C   UNL     1       7.181   7.870  17.294  0.00  0.00    +0.000 C 
ENDBRANCH  13  14
ENDBRANCH  12  13
ENDBRANCH   2  12
TORSDOF 4
ENDMDL
MODEL 8
REMARK VINA RESULT:      -6.3      2.669      3.409
REMARK  Name = 
REMARK  6 active torsions:
REMARK  status: ('A' for Active; 'I' for Inactive)
REMARK    1  A    between atoms: C_1  and  C_2
REMARK    2  A    between atoms: C_5  and  N_6
REMARK    3  A    between atoms: C_7  and  C_9
REMARK    4  A    between atoms: C_9  and  S_10
REMARK    5  A    between atoms: S_10  and  C_11
REMARK    6  A    between atoms: N_15  and  C_16
REMARK                            x       y       z     vdW  Elec       q    Type
REMARK                         _______ _______ _______ _____ _____    ______ ____
ROOT
ATOM      1  N   UNL     1       4.058   5.002  18.049  0.00  0.00    +0.000 N 
ATOM      2  C   UNL     1       5.385   5.390  17.986  0.00  0.00    +0.000 C 
ATOM      3  O   UNL     1       6.095   5.484  18.981  0.00  0.00    +0.000 OA
ATOM      4  H   UNL     1       3.611   4.713  17.186  0.00  0.00    +0.000 HD
ENDROOT
BRANCH   1   9
ATOM      5  C   UNL     1       1.070   2.438  22.282  0.00  0.00    +0.000 C 
ATOM      6  C   UNL     1       1.681   2.838  20.940  0.00  0.00    +0.000 C 
ATOM      7  C   UNL     1       1.281   4.271  20.562  0.00  0.00    +0.000 C 
ATOM      8  C   UNL     1       1.934   4.719  19.254  0.00  0.00    +0.000 C 
ATOM      9  C   UNL     1       3.459   4.570  19.305  0.00  0.00    +0.000 C 
ATOM     10  C   UNL     1       3.846   3.126  19.654  0.00  0.00    +0.000 C 
ATOM     11  C   UNL     1       3.208   2.690  20.973  0.00  0.00    +0.000 C 
ENDBRANCH   1   9
BRANCH   2  12
ATOM     12  C   UNL     1       5.885   5.749  16.593  0.00  0.00    +0.000 C 
BRANCH  12  13
ATOM     13  S   UNL     1       5.667   4.361  15.437  0.00  0.00    +0.000 S 
BRANCH  13  14
ATOM     14  C   UNL     1       6.810   4.782  14.215  0.00  0.00    +0.000 A 
ATOM     15  N   UNL     1       7.827   5.601  14.351  0.00  0.00    +0.000 NA
ATOM     16  N   UNL     1       8.449   5.697  13.126  0.00  0.00    +0.000 NA
ATOM     17  C   UNL     1       7.790   4.931  12.284  0.00  0.00    +0.000 A 
ATOM     18  N   UNL     1       6.766   4.311  12.934  0.00  0.00    +0.000 N 
ATOM     19  C   UNL     1       5.846   3.374  12.347  0.00  0.00    +0.000 C 
ENDBRANCH  13  14
ENDBRANCH  12  13
ENDBRANCH   2  12
TORSDOF 4
ENDMDL
MODEL 9
REMARK VINA RESULT:      -6.3      3.921      8.096
REMARK  Name = 
REMARK  6 active torsions:
REMARK  status: ('A' for Active; 'I' for Inactive)
REMARK    1  A    between atoms: C_1  and  C_2
REMARK    2  A    between atoms: C_5  and  N_6
REMARK    3  A    between atoms: C_7  and  C_9
REMARK    4  A    between atoms: C_9  and  S_10
REMARK    5  A    between atoms: S_10  and  C_11
REMARK    6  A    between atoms: N_15  and  C_16
REMARK                            x       y       z     vdW  Elec       q    Type
REMARK                         _______ _______ _______ _____ _____    ______ ____
ROOT
ATOM      1  N   UNL     1       8.914   9.039  19.145  0.00  0.00    +0.000 N 
ATOM      2  C   UNL     1       8.136   8.365  18.219  0.00  0.00    +0.000 C 
ATOM      3  O   UNL     1       7.505   8.941  17.340  0.00  0.00    +0.000 OA
ATOM      4  H   UNL     1       9.588   8.498  19.675  0.00  0.00    +0.000 HD
ENDROOT
BRANCH   1   9
ATOM      5  C   UNL     1      10.891  14.470  19.210  0.00  0.00    +0.000 C 
ATOM      6  C   UNL     1      10.742  12.952  19.308  0.00  0.00    +0.000 C 
ATOM      7  C   UNL     1       9.687  12.573  20.357  0.00  0.00    +0.000 C 
ATOM      8  C   UNL     1       9.471  11.061  20.427  0.00  0.00    +0.000 C 
ATOM      9  C   UNL     1       9.114  10.479  19.054  0.00  0.00    +0.000 C 
ATOM     10  C   UNL     1      10.191  10.839  18.021  0.00  0.00    +0.000 C 
ATOM     11  C   UNL     1      10.390  12.354  17.940  0.00  0.00    +0.000 C 
ENDBRANCH   1   9
BRANCH   2  12
ATOM     12  C   UNL     1       8.076   6.854  18.406  0.00  0.00    +0.000 C 
BRANCH  12  13
ATOM     13  S   UNL     1       6.414   6.211  18.040  0.00  0.00    +0.000 S 
BRANCH  13  14
ATOM     14  C   UNL     1       6.672   5.537  16.473  0.00  0.00    +0.000 A 
ATOM     15  N   UNL     1       7.593   5.901  15.612  0.00  0.00    +0.000 NA
ATOM     16  N   UNL     1       7.417   5.149  14.472  0.00  0.00    +0.000 NA
ATOM     17  C   UNL     1       6.394   4.349  14.678  0.00  0.00    +0.000 A 
ATOM     18  N   UNL     1       5.911   4.537  15.937  0.00  0.00    +0.000 N 
ATOM     19  C   UNL     1       4.815   3.820  16.530  0.00  0.00    +0.000 C 
ENDBRANCH  13  14
ENDBRANCH  12  13
ENDBRANCH   2  12
TORSDOF 4
ENDMDL
