MODEL 1
REMARK VINA RESULT:      -7.8      0.000      0.000
REMARK  Name = 
REMARK  8 active torsions:
REMARK  status: ('A' for Active; 'I' for Inactive)
REMARK    1  A    between atoms: C_1  and  C_2
REMARK    2  A    between atoms: C_2  and  C_3
REMARK    3  A    between atoms: C_3  and  C_4
REMARK    4  A    between atoms: C_3  and  N_7
REMARK    5  A    between atoms: C_10  and  C_11
REMARK    6  A    between atoms: C_14  and  C_15
REMARK    7  A    between atoms: C_18  and  C_19
REMARK    8  A    between atoms: C_21  and  C_22
REMARK                            x       y       z     vdW  Elec       q    Type
REMARK                         _______ _______ _______ _____ _____    ______ ____
ROOT
ATOM      1  N   UNL     1       4.059   4.767  18.447  0.00  0.00    +0.000 N 
ATOM      2  C   UNL     1       3.790   4.128  19.645  0.00  0.00    +0.000 A 
ATOM      3  O   UNL     1       4.402   3.173  20.111  0.00  0.00    +0.000 OA
ATOM      4  C   UNL     1       2.594   4.654  20.411  0.00  0.00    +0.000 A 
ATOM      5  C   UNL     1       2.079   3.819  21.550  0.00  0.00    +0.000 C 
ATOM      6  N   UNL     1       2.035   5.791  20.147  0.00  0.00    +0.000 NA
ATOM      7  C   UNL     1       2.601   6.607  19.143  0.00  0.00    +0.000 A 
ATOM      8  C   UNL     1       2.251   7.986  19.065  0.00  0.00    +0.000 A 
ATOM      9  C   UNL     1       2.882   8.716  18.040  0.00  0.00    +0.000 A 
ATOM     10  C   UNL     1       3.719   8.089  17.133  0.00  0.00    +0.000 A 
ATOM     11  N   UNL     1       4.060   6.793  17.205  0.00  0.00    +0.000 NA
ATOM     12  C   UNL     1       3.545   6.077  18.231  0.00  0.00    +0.000 A 
ENDROOT
BRANCH   8  13
ATOM     13  C   UNL     1       1.334   8.671  20.048  0.00  0.00    +0.000 A 
ATOM     14  C   UNL     1       1.527   8.447  21.432  0.00  0.00    +0.000 A 
ATOM     15  C   UNL     1       0.714   9.000  22.426  0.00  0.00    +0.000 A 
ATOM     16  C   UNL     1      -0.306   9.871  22.084  0.00  0.00    +0.000 A 
ATOM     17  C   UNL     1      -1.170  10.500  23.133  0.00  0.00    +0.000 C 
ATOM     18  C   UNL     1      -0.512  10.150  20.731  0.00  0.00    +0.000 A 
ATOM     19  C   UNL     1       0.271   9.554  19.709  0.00  0.00    +0.000 A 
ATOM     20  C   UNL     1      -0.098   9.949  18.301  0.00  0.00    +0.000 C 
ENDBRANCH   8  13
BRANCH   1  21
ATOM     21  C   UNL     1       5.059   4.224  17.520  0.00  0.00    +0.000 C 
BRANCH  21  22
ATOM     22  C   UNL     1       6.278   5.133  17.499  0.00  0.00    +0.000 C 
ATOM     23  C   UNL     1       7.074   5.411  18.757  0.00  0.00    +0.000 C 
ATOM     24  C   UNL     1       7.659   4.547  17.679  0.00  0.00    +0.000 C 
ENDBRANCH  21  22
BRANCH  21  26
ATOM     25  C   UNL     1       5.459   4.336  14.997  0.00  0.00    +0.000 C 
ATOM     26  C   UNL     1       4.475   4.002  16.110  0.00  0.00    +0.000 C 
ENDBRANCH  21  26
ENDBRANCH   1  21
TORSDOF 4
ENDMDL
MODEL 2
REMARK VINA RESULT:      -7.2      3.065      6.967
REMARK  Name = 
REMARK  8 active torsions:
REMARK  status: ('A' for Active; 'I' for Inactive)
REMARK    1  A    between atoms: C_1  and  C_2
REMARK    2  A    between atoms: C_2  and  C_3
REMARK    3  A    between atoms: C_3  and  C_4
REMARK    4  A    between atoms: C_3  and  N_7
REMARK    5  A    between atoms: C_10  and  C_11
REMARK    6  A    between atoms: C_14  and  C_15
REMARK    7  A    between atoms: C_18  and  C_19
REMARK    8  A    between atoms: C_21  and  C_22
REMARK                            x       y       z     vdW  Elec       q    Type
REMARK                         _______ _______ _______ _____ _____    ______ ____
ROOT
ATOM      1  N   UNL     1       0.735  10.820  19.867  0.00  0.00    +0.000 N 
ATOM      2  C   UNL     1       0.039  10.535  21.029  0.00  0.00    +0.000 A 
ATOM      3  O   UNL     1      -0.872  11.199  21.511  0.00  0.00    +0.000 OA
ATOM      4  C   UNL     1       0.496   9.300  21.777  0.00  0.00    +0.000 A 
ATOM      5  C   UNL     1      -0.012   9.112  23.180  0.00  0.00    +0.000 C 
ATOM      6  N   UNL     1       1.265   8.403  21.249  0.00  0.00    +0.000 NA
ATOM      7  C   UNL     1       1.643   8.547  19.896  0.00  0.00    +0.000 A 
ATOM      8  C   UNL     1       2.176   7.434  19.183  0.00  0.00    +0.000 A 
ATOM      9  C   UNL     1       2.506   7.676  17.836  0.00  0.00    +0.000 A 
ATOM     10  C   UNL     1       2.388   8.945  17.293  0.00  0.00    +0.000 A 
ATOM     11  N   UNL     1       1.880   9.995  17.955  0.00  0.00    +0.000 NA
ATOM     12  C   UNL     1       1.466   9.781  19.226  0.00  0.00    +0.000 A 
ENDROOT
BRANCH   8  13
ATOM     13  C   UNL     1       2.311   6.052  19.773  0.00  0.00    +0.000 A 
ATOM     14  C   UNL     1       1.181   5.454  20.379  0.00  0.00    +0.000 A 
ATOM     15  C   UNL     1       1.204   4.197  20.991  0.00  0.00    +0.000 A 
ATOM     16  C   UNL     1       2.359   3.434  20.965  0.00  0.00    +0.000 A 
ATOM     17  C   UNL     1       2.399   2.072  21.584  0.00  0.00    +0.000 C 
ATOM     18  C   UNL     1       3.491   3.968  20.345  0.00  0.00    +0.000 A 
ATOM     19  C   UNL     1       3.497   5.265  19.770  0.00  0.00    +0.000 A 
ATOM     20  C   UNL     1       4.808   5.695  19.161  0.00  0.00    +0.000 C 
ENDBRANCH   8  13
BRANCH   1  21
ATOM     21  C   UNL     1       0.524  12.092  19.164  0.00  0.00    +0.000 C 
BRANCH  21  22
ATOM     22  C   UNL     1       1.291  13.197  19.873  0.00  0.00    +0.000 C 
ATOM     23  C   UNL     1       2.507  13.841  19.242  0.00  0.00    +0.000 C 
ATOM     24  C   UNL     1       1.226  14.613  19.352  0.00  0.00    +0.000 C 
ENDBRANCH  21  22
BRANCH  21  26
ATOM     25  C   UNL     1      -1.651  11.653  17.892  0.00  0.00    +0.000 C 
ATOM     26  C   UNL     1      -0.976  12.425  19.018  0.00  0.00    +0.000 C 
ENDBRANCH  21  26
ENDBRANCH   1  21
TORSDOF 4
ENDMDL
MODEL 3
REMARK VINA RESULT:      -7.2      3.569      8.559
REMARK  Name = 
REMARK  8 active torsions:
REMARK  status: ('A' for Active; 'I' for Inactive)
REMARK    1  A    between atoms: C_1  and  C_2
REMARK    2  A    between atoms: C_2  and  C_3
REMARK    3  A    between atoms: C_3  and  C_4
REMARK    4  A    between atoms: C_3  and  N_7
REMARK    5  A    between atoms: C_10  and  C_11
REMARK    6  A    between atoms: C_14  and  C_15
REMARK    7  A    between atoms: C_18  and  C_19
REMARK    8  A    between atoms: C_21  and  C_22
REMARK                            x       y       z     vdW  Elec       q    Type
REMARK                         _______ _______ _______ _____ _____    ______ ____
ROOT
ATOM      1  N   UNL     1      -1.233  11.527  20.982  0.00  0.00    +0.000 N 
ATOM      2  C   UNL     1      -1.487  11.641  19.626  0.00  0.00    +0.000 A 
ATOM      3  O   UNL     1      -1.930  12.630  19.052  0.00  0.00    +0.000 OA
ATOM      4  C   UNL     1      -1.221  10.397  18.805  0.00  0.00    +0.000 A 
ATOM      5  C   UNL     1      -1.756  10.366  17.400  0.00  0.00    +0.000 C 
ATOM      6  N   UNL     1      -0.534   9.394  19.250  0.00  0.00    +0.000 NA
ATOM      7  C   UNL     1       0.049   9.490  20.533  0.00  0.00    +0.000 A 
ATOM      8  C   UNL     1       1.086   8.590  20.913  0.00  0.00    +0.000 A 
ATOM      9  C   UNL     1       1.612   8.778  22.206  0.00  0.00    +0.000 A 
ATOM     10  C   UNL     1       1.077   9.730  23.057  0.00  0.00    +0.000 A 
ATOM     11  N   UNL     1       0.107  10.587  22.704  0.00  0.00    +0.000 NA
ATOM     12  C   UNL     1      -0.362  10.497  21.438  0.00  0.00    +0.000 A 
ENDROOT
BRANCH   8  13
ATOM     13  C   UNL     1       1.666   7.547  19.990  0.00  0.00    +0.000 A 
ATOM     14  C   UNL     1       1.634   6.189  20.386  0.00  0.00    +0.000 A 
ATOM     15  C   UNL     1       2.177   5.148  19.627  0.00  0.00    +0.000 A 
ATOM     16  C   UNL     1       2.724   5.409  18.382  0.00  0.00    +0.000 A 
ATOM     17  C   UNL     1       3.282   4.306  17.537  0.00  0.00    +0.000 C 
ATOM     18  C   UNL     1       2.745   6.731  17.933  0.00  0.00    +0.000 A 
ATOM     19  C   UNL     1       2.248   7.804  18.717  0.00  0.00    +0.000 A 
ATOM     20  C   UNL     1       2.366   9.170  18.089  0.00  0.00    +0.000 C 
ENDBRANCH   8  13
BRANCH   1  21
ATOM     21  C   UNL     1      -1.640  12.589  21.909  0.00  0.00    +0.000 C 
BRANCH  21  22
ATOM     22  C   UNL     1      -3.153  12.573  22.068  0.00  0.00    +0.000 C 
ATOM     23  C   UNL     1      -3.801  12.609  23.436  0.00  0.00    +0.000 C 
ATOM     24  C   UNL     1      -3.874  13.812  22.544  0.00  0.00    +0.000 C 
ENDBRANCH  21  22
BRANCH  21  26
ATOM     25  C   UNL     1       0.338  14.208  21.848  0.00  0.00    +0.000 C 
ATOM     26  C   UNL     1      -1.116  13.971  21.465  0.00  0.00    +0.000 C 
ENDBRANCH  21  26
ENDBRANCH   1  21
TORSDOF 4
ENDMDL
MODEL 4
REMARK VINA RESULT:      -7.1      5.248      9.517
REMARK  Name = 
REMARK  8 active torsions:
REMARK  status: ('A' for Active; 'I' for Inactive)
REMARK    1  A    between atoms: C_1  and  C_2
REMARK    2  A    between atoms: C_2  and  C_3
REMARK    3  A    between atoms: C_3  and  C_4
REMARK    4  A    between atoms: C_3  and  N_7
REMARK    5  A    between atoms: C_10  and  C_11
REMARK    6  A    between atoms: C_14  and  C_15
REMARK    7  A    between atoms: C_18  and  C_19
REMARK    8  A    between atoms: C_21  and  C_22
REMARK                            x       y       z     vdW  Elec       q    Type
REMARK                         _______ _______ _______ _____ _____    ______ ____
ROOT
ATOM      1  N   UNL     1      -0.353  14.440  20.183  0.00  0.00    +0.000 N 
ATOM      2  C   UNL     1       0.853  14.540  20.856  0.00  0.00    +0.000 A 
ATOM      3  O   UNL     1       1.161  15.405  21.668  0.00  0.00    +0.000 OA
ATOM      4  C   UNL     1       1.886  13.490  20.504  0.00  0.00    +0.000 A 
ATOM      5  C   UNL     1       3.296  13.721  20.970  0.00  0.00    +0.000 C 
ATOM      6  N   UNL     1       1.595  12.405  19.861  0.00  0.00    +0.000 NA
ATOM      7  C   UNL     1       0.245  12.158  19.527  0.00  0.00    +0.000 A 
ATOM      8  C   UNL     1      -0.167  10.847  19.150  0.00  0.00    +0.000 A 
ATOM      9  C   UNL     1      -1.535  10.701  18.852  0.00  0.00    +0.000 A 
ATOM     10  C   UNL     1      -2.382  11.796  18.854  0.00  0.00    +0.000 A 
ATOM     11  N   UNL     1      -2.004  13.032  19.216  0.00  0.00    +0.000 NA
ATOM     12  C   UNL     1      -0.716  13.194  19.597  0.00  0.00    +0.000 A 
ENDROOT
BRANCH   8  13
ATOM     13  C   UNL     1       0.756   9.653  19.141  0.00  0.00    +0.000 A 
ATOM     14  C   UNL     1       1.440   9.328  17.946  0.00  0.00    +0.000 A 
ATOM     15  C   UNL     1       2.288   8.223  17.815  0.00  0.00    +0.000 A 
ATOM     16  C   UNL     1       2.550   7.416  18.909  0.00  0.00    +0.000 A 
ATOM     17  C   UNL     1       3.479   6.247  18.801  0.00  0.00    +0.000 C 
ATOM     18  C   UNL     1       1.924   7.720  20.120  0.00  0.00    +0.000 A 
ATOM     19  C   UNL     1       1.020   8.805  20.252  0.00  0.00    +0.000 A 
ATOM     20  C   UNL     1       0.418   8.979  21.624  0.00  0.00    +0.000 C 
ENDBRANCH   8  13
BRANCH   1  21
ATOM     21  C   UNL     1      -1.354  15.508  20.284  0.00  0.00    +0.000 C 
BRANCH  21  22
ATOM     22  C   UNL     1      -0.752  16.816  19.795  0.00  0.00    +0.000 C 
ATOM     23  C   UNL     1      -1.177  17.437  18.482  0.00  0.00    +0.000 C 
ATOM     24  C   UNL     1      -1.591  18.072  19.777  0.00  0.00    +0.000 C 
ENDBRANCH  21  22
BRANCH  21  26
ATOM     25  C   UNL     1      -3.433  15.422  21.770  0.00  0.00    +0.000 C 
ATOM     26  C   UNL     1      -1.925  15.627  21.712  0.00  0.00    +0.000 C 
ENDBRANCH  21  26
ENDBRANCH   1  21
TORSDOF 4
ENDMDL
MODEL 5
REMARK VINA RESULT:      -7.0      3.560      8.505
REMARK  Name = 
REMARK  8 active torsions:
REMARK  status: ('A' for Active; 'I' for Inactive)
REMARK    1  A    between atoms: C_1  and  C_2
REMARK    2  A    between atoms: C_2  and  C_3
REMARK    3  A    between atoms: C_3  and  C_4
REMARK    4  A    between atoms: C_3  and  N_7
REMARK    5  A    between atoms: C_10  and  C_11
REMARK    6  A    between atoms: C_14  and  C_15
REMARK    7  A    between atoms: C_18  and  C_19
REMARK    8  A    between atoms: C_21  and  C_22
REMARK                            x       y       z     vdW  Elec       q    Type
REMARK                         _______ _______ _______ _____ _____    ______ ____
ROOT
ATOM      1  N   UNL     1      -1.355  11.559  21.035  0.00  0.00    +0.000 N 
ATOM      2  C   UNL     1      -1.589  11.694  19.677  0.00  0.00    +0.000 A 
ATOM      3  O   UNL     1      -2.039  12.685  19.114  0.00  0.00    +0.000 OA
ATOM      4  C   UNL     1      -1.290  10.469  18.839  0.00  0.00    +0.000 A 
ATOM      5  C   UNL     1      -1.801  10.456  17.425  0.00  0.00    +0.000 C 
ATOM      6  N   UNL     1      -0.593   9.470  19.277  0.00  0.00    +0.000 NA
ATOM      7  C   UNL     1      -0.033   9.552  20.571  0.00  0.00    +0.000 A 
ATOM      8  C   UNL     1       1.013   8.661  20.951  0.00  0.00    +0.000 A 
ATOM      9  C   UNL     1       1.515   8.834  22.255  0.00  0.00    +0.000 A 
ATOM     10  C   UNL     1       0.951   9.762  23.115  0.00  0.00    +0.000 A 
ATOM     11  N   UNL     1      -0.027  10.609  22.762  0.00  0.00    +0.000 NA
ATOM     12  C   UNL     1      -0.475  10.535  21.487  0.00  0.00    +0.000 A 
ENDROOT
BRANCH   8  13
ATOM     13  C   UNL     1       1.624   7.645  20.018  0.00  0.00    +0.000 A 
ATOM     14  C   UNL     1       1.614   6.281  20.393  0.00  0.00    +0.000 A 
ATOM     15  C   UNL     1       2.186   5.262  19.624  0.00  0.00    +0.000 A 
ATOM     16  C   UNL     1       2.744   5.555  18.391  0.00  0.00    +0.000 A 
ATOM     17  C   UNL     1       3.334   4.476  17.535  0.00  0.00    +0.000 C 
ATOM     18  C   UNL     1       2.745   6.883  17.963  0.00  0.00    +0.000 A 
ATOM     19  C   UNL     1       2.217   7.934  18.757  0.00  0.00    +0.000 A 
ATOM     20  C   UNL     1       2.316   9.312  18.153  0.00  0.00    +0.000 C 
ENDBRANCH   8  13
BRANCH   1  21
ATOM     21  C   UNL     1      -1.794  12.598  21.975  0.00  0.00    +0.000 C 
BRANCH  21  22
ATOM     22  C   UNL     1      -0.613  13.484  22.340  0.00  0.00    +0.000 C 
ATOM     23  C   UNL     1      -0.542  14.926  21.886  0.00  0.00    +0.000 C 
ATOM     24  C   UNL     1      -0.794  14.610  23.330  0.00  0.00    +0.000 C 
ENDBRANCH  21  22
BRANCH  21  26
ATOM     25  C   UNL     1      -3.863  12.569  23.477  0.00  0.00    +0.000 C 
ATOM     26  C   UNL     1      -2.476  11.995  23.220  0.00  0.00    +0.000 C 
ENDBRANCH  21  26
ENDBRANCH   1  21
TORSDOF 4
ENDMDL
MODEL 6
REMARK VINA RESULT:      -6.8      5.553      9.665
REMARK  Name = 
REMARK  8 active torsions:
REMARK  status: ('A' for Active; 'I' for Inactive)
REMARK    1  A    between atoms: C_1  and  C_2
REMARK    2  A    between atoms: C_2  and  C_3
REMARK    3  A    between atoms: C_3  and  C_4
REMARK    4  A    between atoms: C_3  and  N_7
REMARK    5  A    between atoms: C_10  and  C_11
REMARK    6  A    between atoms: C_14  and  C_15
REMARK    7  A    between atoms: C_18  and  C_19
REMARK    8  A    between atoms: C_21  and  C_22
REMARK                            x       y       z     vdW  Elec       q    Type
REMARK                         _______ _______ _______ _____ _____    ______ ____
ROOT
ATOM      1  N   UNL     1       0.400  14.996  19.618  0.00  0.00    +0.000 N 
ATOM      2  C   UNL     1       1.781  15.086  19.599  0.00  0.00    +0.000 A 
ATOM      3  O   UNL     1       2.450  16.049  19.954  0.00  0.00    +0.000 OA
ATOM      4  C   UNL     1       2.506  13.878  19.042  0.00  0.00    +0.000 A 
ATOM      5  C   UNL     1       3.966  14.034  18.719  0.00  0.00    +0.000 C 
ATOM      6  N   UNL     1       1.931  12.731  18.870  0.00  0.00    +0.000 NA
ATOM      7  C   UNL     1       0.588  12.579  19.280  0.00  0.00    +0.000 A 
ATOM      8  C   UNL     1       0.037  11.275  19.442  0.00  0.00    +0.000 A 
ATOM      9  C   UNL     1      -1.304  11.230  19.869  0.00  0.00    +0.000 A 
ATOM     10  C   UNL     1      -2.036  12.394  20.031  0.00  0.00    +0.000 A 
ATOM     11  N   UNL     1      -1.522  13.625  19.888  0.00  0.00    +0.000 NA
ATOM     12  C   UNL     1      -0.211  13.711  19.566  0.00  0.00    +0.000 A 
ENDROOT
BRANCH   8  13
ATOM     13  C   UNL     1       0.831  10.005  19.261  0.00  0.00    +0.000 A 
ATOM     14  C   UNL     1       1.344   9.696  17.978  0.00  0.00    +0.000 A 
ATOM     15  C   UNL     1       2.058   8.530  17.690  0.00  0.00    +0.000 A 
ATOM     16  C   UNL     1       2.360   7.633  18.701  0.00  0.00    +0.000 A 
ATOM     17  C   UNL     1       3.152   6.393  18.422  0.00  0.00    +0.000 C 
ATOM     18  C   UNL     1       1.906   7.913  19.991  0.00  0.00    +0.000 A 
ATOM     19  C   UNL     1       1.133   9.065  20.287  0.00  0.00    +0.000 A 
ATOM     20  C   UNL     1       0.707   9.205  21.727  0.00  0.00    +0.000 C 
ENDBRANCH   8  13
BRANCH   1  21
ATOM     21  C   UNL     1      -0.419  16.170  19.943  0.00  0.00    +0.000 C 
BRANCH  21  22
ATOM     22  C   UNL     1      -0.053  17.317  19.014  0.00  0.00    +0.000 C 
ATOM     23  C   UNL     1      -0.823  17.571  17.736  0.00  0.00    +0.000 C 
ATOM     24  C   UNL     1      -0.970  18.512  18.895  0.00  0.00    +0.000 C 
ENDBRANCH  21  22
BRANCH  21  26
ATOM     25  C   UNL     1      -1.643  16.650  22.136  0.00  0.00    +0.000 C 
ATOM     26  C   UNL     1      -0.297  16.562  21.430  0.00  0.00    +0.000 C 
ENDBRANCH  21  26
ENDBRANCH   1  21
TORSDOF 4
ENDMDL
MODEL 7
REMARK VINA RESULT:      -6.7      6.789      9.051
REMARK  Name = 
REMARK  8 active torsions:
REMARK  status: ('A' for Active; 'I' for Inactive)
REMARK    1  A    between atoms: C_1  and  C_2
REMARK    2  A    between atoms: C_2  and  C_3
REMARK    3  A    between atoms: C_3  and  C_4
REMARK    4  A    between atoms: C_3  and  N_7
REMARK    5  A    between atoms: C_10  and  C_11
REMARK    6  A    between atoms: C_14  and  C_15
REMARK    7  A    between atoms: C_18  and  C_19
REMARK    8  A    between atoms: C_21  and  C_22
REMARK                            x       y       z     vdW  Elec       q    Type
REMARK                         _______ _______ _______ _____ _____    ______ ____
ROOT
ATOM      1  N   UNL     1       1.288  14.241  21.025  0.00  0.00    +0.000 N 
ATOM      2  C   UNL     1       0.707  15.483  20.829  0.00  0.00    +0.000 A 
ATOM      3  O   UNL     1       1.155  16.392  20.140  0.00  0.00    +0.000 OA
ATOM      4  C   UNL     1      -0.583  15.726  21.584  0.00  0.00    +0.000 A 
ATOM      5  C   UNL     1      -1.092  17.139  21.649  0.00  0.00    +0.000 C 
ATOM      6  N   UNL     1      -1.266  14.774  22.134  0.00  0.00    +0.000 NA
ATOM      7  C   UNL     1      -0.825  13.442  21.969  0.00  0.00    +0.000 A 
ATOM      8  C   UNL     1      -1.712  12.360  22.240  0.00  0.00    +0.000 A 
ATOM      9  C   UNL     1      -1.182  11.073  22.029  0.00  0.00    +0.000 A 
ATOM     10  C   UNL     1       0.142  10.901  21.664  0.00  0.00    +0.000 A 
ATOM     11  N   UNL     1       0.981  11.915  21.400  0.00  0.00    +0.000 NA
ATOM     12  C   UNL     1       0.483  13.169  21.503  0.00  0.00    +0.000 A 
ENDROOT
BRANCH   8  13
ATOM     13  C   UNL     1      -3.154  12.544  22.644  0.00  0.00    +0.000 A 
ATOM     14  C   UNL     1      -3.489  12.503  24.018  0.00  0.00    +0.000 A 
ATOM     15  C   UNL     1      -4.796  12.623  24.500  0.00  0.00    +0.000 A 
ATOM     16  C   UNL     1      -5.840  12.862  23.623  0.00  0.00    +0.000 A 
ATOM     17  C   UNL     1      -7.243  13.026  24.119  0.00  0.00    +0.000 C 
ATOM     18  C   UNL     1      -5.552  12.947  22.260  0.00  0.00    +0.000 A 
ATOM     19  C   UNL     1      -4.239  12.772  21.752  0.00  0.00    +0.000 A 
ATOM     20  C   UNL     1      -4.107  12.874  20.253  0.00  0.00    +0.000 C 
ENDBRANCH   8  13
BRANCH   1  21
ATOM     21  C   UNL     1       2.634  13.959  20.513  0.00  0.00    +0.000 C 
BRANCH  21  22
ATOM     22  C   UNL     1       3.647  14.825  21.245  0.00  0.00    +0.000 C 
ATOM     23  C   UNL     1       4.774  14.210  22.048  0.00  0.00    +0.000 C 
ATOM     24  C   UNL     1       5.072  14.900  20.750  0.00  0.00    +0.000 C 
ENDBRANCH  21  22
BRANCH  21  26
ATOM     25  C   UNL     1       2.532  12.828  18.222  0.00  0.00    +0.000 C 
ATOM     26  C   UNL     1       2.716  14.134  18.983  0.00  0.00    +0.000 C 
ENDBRANCH  21  26
ENDBRANCH   1  21
TORSDOF 4
ENDMDL
MODEL 8
REMARK VINA RESULT:      -6.7      6.254     11.499
REMARK  Name = 
REMARK  8 active torsions:
REMARK  status: ('A' for Active; 'I' for Inactive)
REMARK    1  A    between atoms: C_1  and  C_2
REMARK    2  A    between atoms: C_2  and  C_3
REMARK    3  A    between atoms: C_3  and  C_4
REMARK    4  A    between atoms: C_3  and  N_7
REMARK    5  A    between atoms: C_10  and  C_11
REMARK    6  A    between atoms: C_14  and  C_15
REMARK    7  A    between atoms: C_18  and  C_19
REMARK    8  A    between atoms: C_21  and  C_22
REMARK                            x       y       z     vdW  Elec       q    Type
REMARK                         _______ _______ _______ _____ _____    ______ ____
ROOT
ATOM      1  N   UNL     1      -5.028  13.822  21.911  0.00  0.00    +0.000 N 
ATOM      2  C   UNL     1      -5.453  13.673  20.601  0.00  0.00    +0.000 A 
ATOM      3  O   UNL     1      -6.399  14.249  20.076  0.00  0.00    +0.000 OA
ATOM      4  C   UNL     1      -4.682  12.665  19.775  0.00  0.00    +0.000 A 
ATOM      5  C   UNL     1      -5.277  12.246  18.460  0.00  0.00    +0.000 C 
ATOM      6  N   UNL     1      -3.535  12.189  20.139  0.00  0.00    +0.000 NA
ATOM      7  C   UNL     1      -2.945  12.677  21.326  0.00  0.00    +0.000 A 
ATOM      8  C   UNL     1      -1.559  12.458  21.575  0.00  0.00    +0.000 A 
ATOM      9  C   UNL     1      -1.064  12.998  22.777  0.00  0.00    +0.000 A 
ATOM     10  C   UNL     1      -1.911  13.622  23.676  0.00  0.00    +0.000 A 
ATOM     11  N   UNL     1      -3.215  13.839  23.446  0.00  0.00    +0.000 NA
ATOM     12  C   UNL     1      -3.709  13.415  22.260  0.00  0.00    +0.000 A 
ENDROOT
BRANCH   8  13
ATOM     13  C   UNL     1      -0.634  11.773  20.599  0.00  0.00    +0.000 A 
ATOM     14  C   UNL     1      -0.388  10.387  20.749  0.00  0.00    +0.000 A 
ATOM     15  C   UNL     1       0.479   9.661  19.926  0.00  0.00    +0.000 A 
ATOM     16  C   UNL     1       1.100  10.280  18.855  0.00  0.00    +0.000 A 
ATOM     17  C   UNL     1       2.008   9.516  17.941  0.00  0.00    +0.000 C 
ATOM     18  C   UNL     1       0.859  11.639  18.646  0.00  0.00    +0.000 A 
ATOM     19  C   UNL     1       0.024  12.400  19.505  0.00  0.00    +0.000 A 
ATOM     20  C   UNL     1      -0.111  13.859  19.147  0.00  0.00    +0.000 C 
ENDBRANCH   8  13
BRANCH   1  21
ATOM     21  C   UNL     1      -5.815  14.612  22.865  0.00  0.00    +0.000 C 
BRANCH  21  22
ATOM     22  C   UNL     1      -7.178  13.965  23.058  0.00  0.00    +0.000 C 
ATOM     23  C   UNL     1      -7.333  12.674  23.834  0.00  0.00    +0.000 C 
ATOM     24  C   UNL     1      -7.825  13.963  24.423  0.00  0.00    +0.000 C 
ENDBRANCH  21  22
BRANCH  21  26
ATOM     25  C   UNL     1      -6.195  17.032  23.598  0.00  0.00    +0.000 C 
ATOM     26  C   UNL     1      -5.928  16.088  22.433  0.00  0.00    +0.000 C 
ENDBRANCH  21  26
ENDBRANCH   1  21
TORSDOF 4
ENDMDL
MODEL 9
REMARK VINA RESULT:      -6.5      4.617      9.381
REMARK  Name = 
REMARK  8 active torsions:
REMARK  status: ('A' for Active; 'I' for Inactive)
REMARK    1  A    between atoms: C_1  and  C_2
REMARK    2  A    between atoms: C_2  and  C_3
REMARK    3  A    between atoms: C_3  and  C_4
REMARK    4  A    between atoms: C_3  and  N_7
REMARK    5  A    between atoms: C_10  and  C_11
REMARK    6  A    between atoms: C_14  and  C_15
REMARK    7  A    between atoms: C_18  and  C_19
REMARK    8  A    between atoms: C_21  and  C_22
REMARK                            x       y       z     vdW  Elec       q    Type
REMARK                         _______ _______ _______ _____ _____    ______ ____
ROOT
ATOM      1  N   UNL     1      -3.222  12.175  19.726  0.00  0.00    +0.000 N 
ATOM      2  C   UNL     1      -3.520  11.730  18.449  0.00  0.00    +0.000 A 
ATOM      3  O   UNL     1      -4.343  12.219  17.684  0.00  0.00    +0.000 OA
ATOM      4  C   UNL     1      -2.770  10.494  17.998  0.00  0.00    +0.000 A 
ATOM      5  C   UNL     1      -3.263   9.798  16.759  0.00  0.00    +0.000 C 
ATOM      6  N   UNL     1      -1.721  10.046  18.609  0.00  0.00    +0.000 NA
ATOM      7  C   UNL     1      -1.213  10.776  19.706  0.00  0.00    +0.000 A 
ATOM      8  C   UNL     1       0.110  10.531  20.173  0.00  0.00    +0.000 A 
ATOM      9  C   UNL     1       0.528  11.322  21.261  0.00  0.00    +0.000 A 
ATOM     10  C   UNL     1      -0.343  12.211  21.867  0.00  0.00    +0.000 A 
ATOM     11  N   UNL     1      -1.587  12.454  21.428  0.00  0.00    +0.000 NA
ATOM     12  C   UNL     1      -1.994  11.779  20.328  0.00  0.00    +0.000 A 
ENDROOT
BRANCH   8  13
ATOM     13  C   UNL     1       1.059   9.558  19.519  0.00  0.00    +0.000 A 
ATOM     14  C   UNL     1       1.611   9.885  18.257  0.00  0.00    +0.000 A 
ATOM     15  C   UNL     1       2.469   9.041  17.545  0.00  0.00    +0.000 A 
ATOM     16  C   UNL     1       2.878   7.840  18.099  0.00  0.00    +0.000 A 
ATOM     17  C   UNL     1       3.821   6.934  17.369  0.00  0.00    +0.000 C 
ATOM     18  C   UNL     1       2.388   7.491  19.358  0.00  0.00    +0.000 A 
ATOM     19  C   UNL     1       1.474   8.312  20.068  0.00  0.00    +0.000 A 
ATOM     20  C   UNL     1       1.029   7.776  21.406  0.00  0.00    +0.000 C 
ENDBRANCH   8  13
BRANCH   1  21
ATOM     21  C   UNL     1      -4.022  13.235  20.352  0.00  0.00    +0.000 C 
BRANCH  21  22
ATOM     22  C   UNL     1      -3.101  14.331  20.865  0.00  0.00    +0.000 C 
ATOM     23  C   UNL     1      -3.399  15.793  20.610  0.00  0.00    +0.000 C 
ATOM     24  C   UNL     1      -3.554  15.229  21.992  0.00  0.00    +0.000 C 
ENDBRANCH  21  22
BRANCH  21  26
ATOM     25  C   UNL     1      -6.265  12.148  20.925  0.00  0.00    +0.000 C 
ATOM     26  C   UNL     1      -4.942  12.681  21.459  0.00  0.00    +0.000 C 
ENDBRANCH  21  26
ENDBRANCH   1  21
TORSDOF 4
ENDMDL
