MODEL 1
REMARK VINA RESULT:      -7.2      0.000      0.000
REMARK  Name = 
REMARK  9 active torsions:
REMARK  status: ('A' for Active; 'I' for Inactive)
REMARK    1  A    between atoms: C_1  and  C_2
REMARK    2  A    between atoms: C_2  and  C_3
REMARK    3  A    between atoms: C_3  and  O_4
REMARK    4  A    between atoms: O_4  and  C_5
REMARK    5  A    between atoms: C_8  and  N_9
REMARK    6  A    between atoms: N_9  and  C_10
REMARK    7  A    between atoms: C_10  and  C_11
REMARK    8  A    between atoms: C_11  and  C_12
REMARK    9  A    between atoms: C_11  and  C_13
REMARK                            x       y       z     vdW  Elec       q    Type
REMARK                         _______ _______ _______ _____ _____    ______ ____
ROOT
ATOM      1  C   UNL     1       6.714   6.239  17.247  0.00  0.00    +0.000 A 
ATOM      2  C   UNL     1       7.401   5.995  16.058  0.00  0.00    +0.000 A 
ATOM      3  C   UNL     1       6.964   5.004  15.185  0.00  0.00    +0.000 A 
ATOM      4  C   UNL     1       5.836   4.217  15.461  0.00  0.00    +0.000 A 
ATOM      5  C   UNL     1       5.213   4.378  16.730  0.00  0.00    +0.000 A 
ATOM      6  C   UNL     1       4.254   3.373  17.245  0.00  0.00    +0.000 A 
ATOM      7  O   UNL     1       4.391   2.182  16.978  0.00  0.00    +0.000 OA
ATOM      8  C   UNL     1       3.153   3.738  18.159  0.00  0.00    +0.000 A 
ATOM      9  C   UNL     1       2.001   2.936  18.173  0.00  0.00    +0.000 A 
ATOM     10  C   UNL     1       0.993   3.168  19.109  0.00  0.00    +0.000 A 
ATOM     11  C   UNL     1       1.136   4.203  20.028  0.00  0.00    +0.000 A 
ATOM     12  C   UNL     1       2.276   5.013  19.994  0.00  0.00    +0.000 A 
ATOM     13  C   UNL     1       3.295   4.789  19.056  0.00  0.00    +0.000 A 
ATOM     14  S   UNL     1       4.759   5.781  19.142  0.00  0.00    +0.000 S 
ATOM     15  C   UNL     1       5.602   5.433  17.590  0.00  0.00    +0.000 A 
ENDROOT
BRANCH   4  16
ATOM     16  N   UNL     1       5.517   3.312  14.432  0.00  0.00    +0.000 N 
ATOM     17  H   UNL     1       4.523   3.081  14.477  0.00  0.00    +0.000 HD
BRANCH  16  18
ATOM     18  C   UNL     1       5.921   3.598  13.058  0.00  0.00    +0.000 C 
BRANCH  18  19
ATOM     19  C   UNL     1       5.281   2.608  12.071  0.00  0.00    +0.000 C 
ATOM     20  C   UNL     1       4.279   3.371  11.200  0.00  0.00    +0.000 C 
ATOM     21  C   UNL     1       6.317   1.915  11.186  0.00  0.00    +0.000 C 
ENDBRANCH  18  19
ENDBRANCH  16  18
ENDBRANCH   4  16
BRANCH   1  22
ATOM     22  O   UNL     1       7.080   7.230  18.132  0.00  0.00    +0.000 OA
BRANCH  22  23
ATOM     23  C   UNL     1       7.809   8.336  17.602  0.00  0.00    +0.000 C 
BRANCH  23  25
ATOM     24  C   UNL     1       9.000  10.380  18.429  0.00  0.00    +0.000 C 
ATOM     25  C   UNL     1       8.710   8.911  18.688  0.00  0.00    +0.000 C 
ENDBRANCH  23  25
ENDBRANCH  22  23
ENDBRANCH   1  22
TORSDOF 6
ENDMDL
MODEL 2
REMARK VINA RESULT:      -7.1      3.439      6.534
REMARK  Name = 
REMARK  9 active torsions:
REMARK  status: ('A' for Active; 'I' for Inactive)
REMARK    1  A    between atoms: C_1  and  C_2
REMARK    2  A    between atoms: C_2  and  C_3
REMARK    3  A    between atoms: C_3  and  O_4
REMARK    4  A    between atoms: O_4  and  C_5
REMARK    5  A    between atoms: C_8  and  N_9
REMARK    6  A    between atoms: N_9  and  C_10
REMARK    7  A    between atoms: C_10  and  C_11
REMARK    8  A    between atoms: C_11  and  C_12
REMARK    9  A    between atoms: C_11  and  C_13
REMARK                            x       y       z     vdW  Elec       q    Type
REMARK                         _______ _______ _______ _____ _____    ______ ____
ROOT
ATOM      1  C   UNL     1       2.956   4.855  20.236  0.00  0.00    +0.000 A 
ATOM      2  C   UNL     1       4.005   4.226  19.563  0.00  0.00    +0.000 A 
ATOM      3  C   UNL     1       4.683   4.888  18.545  0.00  0.00    +0.000 A 
ATOM      4  C   UNL     1       4.345   6.191  18.154  0.00  0.00    +0.000 A 
ATOM      5  C   UNL     1       3.196   6.783  18.750  0.00  0.00    +0.000 A 
ATOM      6  C   UNL     1       2.565   7.988  18.164  0.00  0.00    +0.000 A 
ATOM      7  O   UNL     1       2.563   8.167  16.948  0.00  0.00    +0.000 OA
ATOM      8  C   UNL     1       1.846   8.977  18.992  0.00  0.00    +0.000 A 
ATOM      9  C   UNL     1       1.763  10.301  18.533  0.00  0.00    +0.000 A 
ATOM     10  C   UNL     1       0.986  11.236  19.219  0.00  0.00    +0.000 A 
ATOM     11  C   UNL     1       0.297  10.847  20.363  0.00  0.00    +0.000 A 
ATOM     12  C   UNL     1       0.403   9.532  20.829  0.00  0.00    +0.000 A 
ATOM     13  C   UNL     1       1.182   8.584  20.147  0.00  0.00    +0.000 A 
ATOM     14  S   UNL     1       1.182   6.912  20.728  0.00  0.00    +0.000 S 
ATOM     15  C   UNL     1       2.548   6.151  19.837  0.00  0.00    +0.000 A 
ENDROOT
BRANCH   4  16
ATOM     16  N   UNL     1       5.184   6.712  17.151  0.00  0.00    +0.000 N 
ATOM     17  H   UNL     1       5.364   7.701  17.336  0.00  0.00    +0.000 HD
BRANCH  16  18
ATOM     18  C   UNL     1       6.420   6.017  16.801  0.00  0.00    +0.000 C 
BRANCH  18  19
ATOM     19  C   UNL     1       7.637   6.668  17.479  0.00  0.00    +0.000 C 
ATOM     20  C   UNL     1       7.414   8.182  17.526  0.00  0.00    +0.000 C 
ATOM     21  C   UNL     1       7.872   6.132  18.892  0.00  0.00    +0.000 C 
ENDBRANCH  18  19
ENDBRANCH  16  18
ENDBRANCH   4  16
BRANCH   1  22
ATOM     22  O   UNL     1       2.273   4.263  21.274  0.00  0.00    +0.000 OA
BRANCH  22  23
ATOM     23  C   UNL     1       1.680   2.990  21.019  0.00  0.00    +0.000 C 
BRANCH  23  25
ATOM     24  C   UNL     1       0.884   2.340  18.733  0.00  0.00    +0.000 C 
ATOM     25  C   UNL     1       0.575   3.149  19.982  0.00  0.00    +0.000 C 
ENDBRANCH  23  25
ENDBRANCH  22  23
ENDBRANCH   1  22
TORSDOF 6
ENDMDL
MODEL 3
REMARK VINA RESULT:      -7.0      3.226      7.436
REMARK  Name = 
REMARK  9 active torsions:
REMARK  status: ('A' for Active; 'I' for Inactive)
REMARK    1  A    between atoms: C_1  and  C_2
REMARK    2  A    between atoms: C_2  and  C_3
REMARK    3  A    between atoms: C_3  and  O_4
REMARK    4  A    between atoms: O_4  and  C_5
REMARK    5  A    between atoms: C_8  and  N_9
REMARK    6  A    between atoms: N_9  and  C_10
REMARK    7  A    between atoms: C_10  and  C_11
REMARK    8  A    between atoms: C_11  and  C_12
REMARK    9  A    between atoms: C_11  and  C_13
REMARK                            x       y       z     vdW  Elec       q    Type
REMARK                         _______ _______ _______ _____ _____    ______ ____
ROOT
ATOM      1  C   UNL     1       2.649   4.878  20.335  0.00  0.00    +0.000 A 
ATOM      2  C   UNL     1       1.861   5.913  20.841  0.00  0.00    +0.000 A 
ATOM      3  C   UNL     1       1.787   7.130  20.173  0.00  0.00    +0.000 A 
ATOM      4  C   UNL     1       2.493   7.369  18.985  0.00  0.00    +0.000 A 
ATOM      5  C   UNL     1       3.395   6.362  18.539  0.00  0.00    +0.000 A 
ATOM      6  C   UNL     1       4.424   6.656  17.514  0.00  0.00    +0.000 A 
ATOM      7  O   UNL     1       4.948   7.766  17.452  0.00  0.00    +0.000 OA
ATOM      8  C   UNL     1       4.922   5.621  16.586  0.00  0.00    +0.000 A 
ATOM      9  C   UNL     1       5.431   6.027  15.342  0.00  0.00    +0.000 A 
ATOM     10  C   UNL     1       6.028   5.097  14.490  0.00  0.00    +0.000 A 
ATOM     11  C   UNL     1       6.112   3.764  14.880  0.00  0.00    +0.000 A 
ATOM     12  C   UNL     1       5.582   3.362  16.111  0.00  0.00    +0.000 A 
ATOM     13  C   UNL     1       4.979   4.289  16.975  0.00  0.00    +0.000 A 
ATOM     14  S   UNL     1       4.429   3.732  18.563  0.00  0.00    +0.000 S 
ATOM     15  C   UNL     1       3.419   5.094  19.167  0.00  0.00    +0.000 A 
ENDROOT
BRANCH   4  16
ATOM     16  N   UNL     1       2.243   8.636  18.428  0.00  0.00    +0.000 N 
ATOM     17  H   UNL     1       2.985   8.870  17.764  0.00  0.00    +0.000 HD
BRANCH  16  18
ATOM     18  C   UNL     1       0.930   8.939  17.864  0.00  0.00    +0.000 C 
BRANCH  18  19
ATOM     19  C   UNL     1       0.402  10.291  18.373  0.00  0.00    +0.000 C 
ATOM     20  C   UNL     1      -1.107  10.348  18.120  0.00  0.00    +0.000 C 
ATOM     21  C   UNL     1       0.690  10.505  19.859  0.00  0.00    +0.000 C 
ENDBRANCH  18  19
ENDBRANCH  16  18
ENDBRANCH   4  16
BRANCH   1  22
ATOM     22  O   UNL     1       2.732   3.641  20.933  0.00  0.00    +0.000 OA
BRANCH  22  23
ATOM     23  C   UNL     1       1.513   2.918  21.101  0.00  0.00    +0.000 C 
BRANCH  23  25
ATOM     24  C   UNL     1       1.103   2.007  18.803  0.00  0.00    +0.000 C 
ATOM     25  C   UNL     1       0.677   3.040  19.833  0.00  0.00    +0.000 C 
ENDBRANCH  23  25
ENDBRANCH  22  23
ENDBRANCH   1  22
TORSDOF 6
ENDMDL
MODEL 4
REMARK VINA RESULT:      -6.9      3.604      6.320
REMARK  Name = 
REMARK  9 active torsions:
REMARK  status: ('A' for Active; 'I' for Inactive)
REMARK    1  A    between atoms: C_1  and  C_2
REMARK    2  A    between atoms: C_2  and  C_3
REMARK    3  A    between atoms: C_3  and  O_4
REMARK    4  A    between atoms: O_4  and  C_5
REMARK    5  A    between atoms: C_8  and  N_9
REMARK    6  A    between atoms: N_9  and  C_10
REMARK    7  A    between atoms: C_10  and  C_11
REMARK    8  A    between atoms: C_11  and  C_12
REMARK    9  A    between atoms: C_11  and  C_13
REMARK                            x       y       z     vdW  Elec       q    Type
REMARK                         _______ _______ _______ _____ _____    ______ ____
ROOT
ATOM      1  C   UNL     1       2.822   5.108  20.292  0.00  0.00    +0.000 A 
ATOM      2  C   UNL     1       3.816   4.446  19.570  0.00  0.00    +0.000 A 
ATOM      3  C   UNL     1       4.442   5.073  18.498  0.00  0.00    +0.000 A 
ATOM      4  C   UNL     1       4.103   6.374  18.099  0.00  0.00    +0.000 A 
ATOM      5  C   UNL     1       3.003   7.000  18.751  0.00  0.00    +0.000 A 
ATOM      6  C   UNL     1       2.357   8.203  18.178  0.00  0.00    +0.000 A 
ATOM      7  O   UNL     1       2.283   8.356  16.961  0.00  0.00    +0.000 OA
ATOM      8  C   UNL     1       1.707   9.222  19.027  0.00  0.00    +0.000 A 
ATOM      9  C   UNL     1       1.618  10.538  18.544  0.00  0.00    +0.000 A 
ATOM     10  C   UNL     1       0.901  11.501  19.255  0.00  0.00    +0.000 A 
ATOM     11  C   UNL     1       0.278  11.149  20.447  0.00  0.00    +0.000 A 
ATOM     12  C   UNL     1       0.390   9.843  20.935  0.00  0.00    +0.000 A 
ATOM     13  C   UNL     1       1.109   8.867  20.228  0.00  0.00    +0.000 A 
ATOM     14  S   UNL     1       1.117   7.208  20.846  0.00  0.00    +0.000 S 
ATOM     15  C   UNL     1       2.412   6.403  19.890  0.00  0.00    +0.000 A 
ENDROOT
BRANCH   4  16
ATOM     16  N   UNL     1       4.886   6.858  17.036  0.00  0.00    +0.000 N 
ATOM     17  H   UNL     1       4.611   7.818  16.818  0.00  0.00    +0.000 HD
BRANCH  16  18
ATOM     18  C   UNL     1       6.341   6.735  17.087  0.00  0.00    +0.000 C 
BRANCH  18  19
ATOM     19  C   UNL     1       6.854   5.740  16.033  0.00  0.00    +0.000 C 
ATOM     20  C   UNL     1       7.428   4.519  16.757  0.00  0.00    +0.000 C 
ATOM     21  C   UNL     1       5.757   5.302  15.063  0.00  0.00    +0.000 C 
ENDBRANCH  18  19
ENDBRANCH  16  18
ENDBRANCH   4  16
BRANCH   1  22
ATOM     22  O   UNL     1       2.194   4.551  21.383  0.00  0.00    +0.000 OA
BRANCH  22  23
ATOM     23  C   UNL     1       1.651   3.241  21.221  0.00  0.00    +0.000 C 
BRANCH  23  25
ATOM     24  C   UNL     1       0.892   2.353  19.004  0.00  0.00    +0.000 C 
ATOM     25  C   UNL     1       0.556   3.278  20.162  0.00  0.00    +0.000 C 
ENDBRANCH  23  25
ENDBRANCH  22  23
ENDBRANCH   1  22
TORSDOF 6
ENDMDL
MODEL 5
REMARK VINA RESULT:      -6.8      3.299      6.295
REMARK  Name = 
REMARK  9 active torsions:
REMARK  status: ('A' for Active; 'I' for Inactive)
REMARK    1  A    between atoms: C_1  and  C_2
REMARK    2  A    between atoms: C_2  and  C_3
REMARK    3  A    between atoms: C_3  and  O_4
REMARK    4  A    between atoms: O_4  and  C_5
REMARK    5  A    between atoms: C_8  and  N_9
REMARK    6  A    between atoms: N_9  and  C_10
REMARK    7  A    between atoms: C_10  and  C_11
REMARK    8  A    between atoms: C_11  and  C_12
REMARK    9  A    between atoms: C_11  and  C_13
REMARK                            x       y       z     vdW  Elec       q    Type
REMARK                         _______ _______ _______ _____ _____    ______ ____
ROOT
ATOM      1  C   UNL     1       3.607   4.375  19.821  0.00  0.00    +0.000 A 
ATOM      2  C   UNL     1       4.635   3.776  19.092  0.00  0.00    +0.000 A 
ATOM      3  C   UNL     1       5.234   4.454  18.036  0.00  0.00    +0.000 A 
ATOM      4  C   UNL     1       4.836   5.745  17.661  0.00  0.00    +0.000 A 
ATOM      5  C   UNL     1       3.704   6.304  18.319  0.00  0.00    +0.000 A 
ATOM      6  C   UNL     1       3.005   7.487  17.767  0.00  0.00    +0.000 A 
ATOM      7  O   UNL     1       2.929   7.660  16.553  0.00  0.00    +0.000 OA
ATOM      8  C   UNL     1       2.303   8.457  18.632  0.00  0.00    +0.000 A 
ATOM      9  C   UNL     1       2.154   9.776  18.175  0.00  0.00    +0.000 A 
ATOM     10  C   UNL     1       1.388  10.689  18.902  0.00  0.00    +0.000 A 
ATOM     11  C   UNL     1       0.777  10.284  20.084  0.00  0.00    +0.000 A 
ATOM     12  C   UNL     1       0.949   8.975  20.546  0.00  0.00    +0.000 A 
ATOM     13  C   UNL     1       1.717   8.049  19.823  0.00  0.00    +0.000 A 
ATOM     14  S   UNL     1       1.801   6.380  20.408  0.00  0.00    +0.000 S 
ATOM     15  C   UNL     1       3.138   5.657  19.443  0.00  0.00    +0.000 A 
ENDROOT
BRANCH   4  16
ATOM     16  N   UNL     1       5.600   6.287  16.612  0.00  0.00    +0.000 N 
ATOM     17  H   UNL     1       5.163   7.150  16.281  0.00  0.00    +0.000 HD
BRANCH  16  18
ATOM     18  C   UNL     1       7.041   6.467  16.776  0.00  0.00    +0.000 C 
BRANCH  18  19
ATOM     19  C   UNL     1       7.361   7.265  18.050  0.00  0.00    +0.000 C 
ATOM     20  C   UNL     1       8.139   6.357  19.008  0.00  0.00    +0.000 C 
ATOM     21  C   UNL     1       8.171   8.529  17.758  0.00  0.00    +0.000 C 
ENDBRANCH  18  19
ENDBRANCH  16  18
ENDBRANCH   4  16
BRANCH   1  22
ATOM     22  O   UNL     1       3.001   3.767  20.898  0.00  0.00    +0.000 OA
BRANCH  22  23
ATOM     23  C   UNL     1       2.388   2.499  20.666  0.00  0.00    +0.000 C 
BRANCH  23  25
ATOM     24  C   UNL     1       0.814   2.383  18.720  0.00  0.00    +0.000 C 
ATOM     25  C   UNL     1       0.954   2.712  20.196  0.00  0.00    +0.000 C 
ENDBRANCH  23  25
ENDBRANCH  22  23
ENDBRANCH   1  22
TORSDOF 6
ENDMDL
MODEL 6
REMARK VINA RESULT:      -6.6      2.857      5.727
REMARK  Name = 
REMARK  9 active torsions:
REMARK  status: ('A' for Active; 'I' for Inactive)
REMARK    1  A    between atoms: C_1  and  C_2
REMARK    2  A    between atoms: C_2  and  C_3
REMARK    3  A    between atoms: C_3  and  O_4
REMARK    4  A    between atoms: O_4  and  C_5
REMARK    5  A    between atoms: C_8  and  N_9
REMARK    6  A    between atoms: N_9  and  C_10
REMARK    7  A    between atoms: C_10  and  C_11
REMARK    8  A    between atoms: C_11  and  C_12
REMARK    9  A    between atoms: C_11  and  C_13
REMARK                            x       y       z     vdW  Elec       q    Type
REMARK                         _______ _______ _______ _____ _____    ______ ____
ROOT
ATOM      1  C   UNL     1       5.308   4.825  15.945  0.00  0.00    +0.000 A 
ATOM      2  C   UNL     1       5.519   3.461  16.154  0.00  0.00    +0.000 A 
ATOM      3  C   UNL     1       4.938   2.819  17.242  0.00  0.00    +0.000 A 
ATOM      4  C   UNL     1       4.134   3.504  18.165  0.00  0.00    +0.000 A 
ATOM      5  C   UNL     1       4.024   4.916  18.025  0.00  0.00    +0.000 A 
ATOM      6  C   UNL     1       3.499   5.755  19.127  0.00  0.00    +0.000 A 
ATOM      7  O   UNL     1       3.703   5.450  20.300  0.00  0.00    +0.000 OA
ATOM      8  C   UNL     1       2.787   7.024  18.873  0.00  0.00    +0.000 A 
ATOM      9  C   UNL     1       1.863   7.476  19.829  0.00  0.00    +0.000 A 
ATOM     10  C   UNL     1       1.265   8.730  19.691  0.00  0.00    +0.000 A 
ATOM     11  C   UNL     1       1.588   9.527  18.598  0.00  0.00    +0.000 A 
ATOM     12  C   UNL     1       2.492   9.061  17.637  0.00  0.00    +0.000 A 
ATOM     13  C   UNL     1       3.099   7.802  17.766  0.00  0.00    +0.000 A 
ATOM     14  S   UNL     1       4.315   7.323  16.573  0.00  0.00    +0.000 S 
ATOM     15  C   UNL     1       4.546   5.565  16.881  0.00  0.00    +0.000 A 
ENDROOT
BRANCH   4  16
ATOM     16  N   UNL     1       3.589   2.673  19.161  0.00  0.00    +0.000 N 
ATOM     17  H   UNL     1       3.797   3.063  20.082  0.00  0.00    +0.000 HD
BRANCH  16  18
ATOM     18  C   UNL     1       2.191   2.257  19.079  0.00  0.00    +0.000 C 
BRANCH  18  19
ATOM     19  C   UNL     1       1.433   2.592  20.374  0.00  0.00    +0.000 C 
ATOM     20  C   UNL     1       2.441   2.650  21.524  0.00  0.00    +0.000 C 
ATOM     21  C   UNL     1       0.673   3.915  20.279  0.00  0.00    +0.000 C 
ENDBRANCH  18  19
ENDBRANCH  16  18
ENDBRANCH   4  16
BRANCH   1  22
ATOM     22  O   UNL     1       5.828   5.505  14.867  0.00  0.00    +0.000 OA
BRANCH  22  23
ATOM     23  C   UNL     1       7.075   5.043  14.347  0.00  0.00    +0.000 C 
BRANCH  23  25
ATOM     24  C   UNL     1       6.237   3.490  12.568  0.00  0.00    +0.000 C 
ATOM     25  C   UNL     1       6.939   4.808  12.848  0.00  0.00    +0.000 C 
ENDBRANCH  23  25
ENDBRANCH  22  23
ENDBRANCH   1  22
TORSDOF 6
ENDMDL
MODEL 7
REMARK VINA RESULT:      -6.5      2.713      3.763
REMARK  Name = 
REMARK  9 active torsions:
REMARK  status: ('A' for Active; 'I' for Inactive)
REMARK    1  A    between atoms: C_1  and  C_2
REMARK    2  A    between atoms: C_2  and  C_3
REMARK    3  A    between atoms: C_3  and  O_4
REMARK    4  A    between atoms: O_4  and  C_5
REMARK    5  A    between atoms: C_8  and  N_9
REMARK    6  A    between atoms: N_9  and  C_10
REMARK    7  A    between atoms: C_10  and  C_11
REMARK    8  A    between atoms: C_11  and  C_12
REMARK    9  A    between atoms: C_11  and  C_13
REMARK                            x       y       z     vdW  Elec       q    Type
REMARK                         _______ _______ _______ _____ _____    ______ ____
ROOT
ATOM      1  C   UNL     1       3.450   7.596  17.785  0.00  0.00    +0.000 A 
ATOM      2  C   UNL     1       4.280   7.739  16.673  0.00  0.00    +0.000 A 
ATOM      3  C   UNL     1       5.054   6.671  16.232  0.00  0.00    +0.000 A 
ATOM      4  C   UNL     1       5.039   5.427  16.878  0.00  0.00    +0.000 A 
ATOM      5  C   UNL     1       4.293   5.319  18.085  0.00  0.00    +0.000 A 
ATOM      6  C   UNL     1       4.493   4.178  19.008  0.00  0.00    +0.000 A 
ATOM      7  O   UNL     1       5.600   3.660  19.135  0.00  0.00    +0.000 OA
ATOM      8  C   UNL     1       3.406   3.669  19.870  0.00  0.00    +0.000 A 
ATOM      9  C   UNL     1       3.450   2.326  20.279  0.00  0.00    +0.000 A 
ATOM     10  C   UNL     1       2.516   1.839  21.195  0.00  0.00    +0.000 A 
ATOM     11  C   UNL     1       1.540   2.694  21.698  0.00  0.00    +0.000 A 
ATOM     12  C   UNL     1       1.488   4.024  21.269  0.00  0.00    +0.000 A 
ATOM     13  C   UNL     1       2.422   4.524  20.348  0.00  0.00    +0.000 A 
ATOM     14  S   UNL     1       2.366   6.244  19.934  0.00  0.00    +0.000 S 
ATOM     15  C   UNL     1       3.444   6.373  18.499  0.00  0.00    +0.000 A 
ENDROOT
BRANCH   4  16
ATOM     16  N   UNL     1       5.840   4.457  16.249  0.00  0.00    +0.000 N 
ATOM     17  H   UNL     1       5.244   3.791  15.753  0.00  0.00    +0.000 HD
BRANCH  16  18
ATOM     18  C   UNL     1       6.963   4.870  15.410  0.00  0.00    +0.000 C 
BRANCH  18  19
ATOM     19  C   UNL     1       6.898   4.206  14.025  0.00  0.00    +0.000 C 
ATOM     20  C   UNL     1       5.428   3.973  13.667  0.00  0.00    +0.000 C 
ATOM     21  C   UNL     1       7.570   5.051  12.942  0.00  0.00    +0.000 C 
ENDBRANCH  18  19
ENDBRANCH  16  18
ENDBRANCH   4  16
BRANCH   1  22
ATOM     22  O   UNL     1       2.636   8.606  18.246  0.00  0.00    +0.000 OA
BRANCH  22  23
ATOM     23  C   UNL     1       1.421   8.836  17.533  0.00  0.00    +0.000 C 
BRANCH  23  25
ATOM     24  C   UNL     1       0.749   9.707  19.785  0.00  0.00    +0.000 C 
ATOM     25  C   UNL     1       0.587   9.868  18.282  0.00  0.00    +0.000 C 
ENDBRANCH  23  25
ENDBRANCH  22  23
ENDBRANCH   1  22
TORSDOF 6
ENDMDL
MODEL 8
REMARK VINA RESULT:      -6.5      3.160      5.717
REMARK  Name = 
REMARK  9 active torsions:
REMARK  status: ('A' for Active; 'I' for Inactive)
REMARK    1  A    between atoms: C_1  and  C_2
REMARK    2  A    between atoms: C_2  and  C_3
REMARK    3  A    between atoms: C_3  and  O_4
REMARK    4  A    between atoms: O_4  and  C_5
REMARK    5  A    between atoms: C_8  and  N_9
REMARK    6  A    between atoms: N_9  and  C_10
REMARK    7  A    between atoms: C_10  and  C_11
REMARK    8  A    between atoms: C_11  and  C_12
REMARK    9  A    between atoms: C_11  and  C_13
REMARK                            x       y       z     vdW  Elec       q    Type
REMARK                         _______ _______ _______ _____ _____    ______ ____
ROOT
ATOM      1  C   UNL     1       5.748   5.766  17.476  0.00  0.00    +0.000 A 
ATOM      2  C   UNL     1       5.603   6.996  16.834  0.00  0.00    +0.000 A 
ATOM      3  C   UNL     1       4.407   7.699  16.924  0.00  0.00    +0.000 A 
ATOM      4  C   UNL     1       3.311   7.207  17.647  0.00  0.00    +0.000 A 
ATOM      5  C   UNL     1       3.413   5.897  18.193  0.00  0.00    +0.000 A 
ATOM      6  C   UNL     1       2.212   5.166  18.660  0.00  0.00    +0.000 A 
ATOM      7  O   UNL     1       1.128   5.319  18.102  0.00  0.00    +0.000 OA
ATOM      8  C   UNL     1       2.276   4.171  19.750  0.00  0.00    +0.000 A 
ATOM      9  C   UNL     1       1.118   3.934  20.508  0.00  0.00    +0.000 A 
ATOM     10  C   UNL     1       1.098   2.913  21.460  0.00  0.00    +0.000 A 
ATOM     11  C   UNL     1       2.234   2.135  21.654  0.00  0.00    +0.000 A 
ATOM     12  C   UNL     1       3.392   2.391  20.911  0.00  0.00    +0.000 A 
ATOM     13  C   UNL     1       3.423   3.415  19.952  0.00  0.00    +0.000 A 
ATOM     14  S   UNL     1       4.884   3.612  18.972  0.00  0.00    +0.000 S 
ATOM     15  C   UNL     1       4.649   5.208  18.173  0.00  0.00    +0.000 A 
ENDROOT
BRANCH   4  16
ATOM     16  N   UNL     1       2.214   8.087  17.672  0.00  0.00    +0.000 N 
ATOM     17  H   UNL     1       1.402   7.634  17.246  0.00  0.00    +0.000 HD
BRANCH  16  18
ATOM     18  C   UNL     1       1.840   8.753  18.918  0.00  0.00    +0.000 C 
BRANCH  18  19
ATOM     19  C   UNL     1       1.137  10.093  18.645  0.00  0.00    +0.000 C 
ATOM     20  C   UNL     1      -0.191   9.809  17.938  0.00  0.00    +0.000 C 
ATOM     21  C   UNL     1       0.885  10.890  19.926  0.00  0.00    +0.000 C 
ENDBRANCH  18  19
ENDBRANCH  16  18
ENDBRANCH   4  16
BRANCH   1  22
ATOM     22  O   UNL     1       6.920   5.043  17.451  0.00  0.00    +0.000 OA
BRANCH  22  23
ATOM     23  C   UNL     1       7.405   4.637  16.171  0.00  0.00    +0.000 C 
BRANCH  23  25
ATOM     24  C   UNL     1       6.040   4.219  14.112  0.00  0.00    +0.000 C 
ATOM     25  C   UNL     1       6.378   3.727  15.509  0.00  0.00    +0.000 C 
ENDBRANCH  23  25
ENDBRANCH  22  23
ENDBRANCH   1  22
TORSDOF 6
ENDMDL
MODEL 9
REMARK VINA RESULT:      -6.4      3.170      5.867
REMARK  Name = 
REMARK  9 active torsions:
REMARK  status: ('A' for Active; 'I' for Inactive)
REMARK    1  A    between atoms: C_1  and  C_2
REMARK    2  A    between atoms: C_2  and  C_3
REMARK    3  A    between atoms: C_3  and  O_4
REMARK    4  A    between atoms: O_4  and  C_5
REMARK    5  A    between atoms: C_8  and  N_9
REMARK    6  A    between atoms: N_9  and  C_10
REMARK    7  A    between atoms: C_10  and  C_11
REMARK    8  A    between atoms: C_11  and  C_12
REMARK    9  A    between atoms: C_11  and  C_13
REMARK                            x       y       z     vdW  Elec       q    Type
REMARK                         _______ _______ _______ _____ _____    ______ ____
ROOT
ATOM      1  C   UNL     1       5.139   5.074  16.248  0.00  0.00    +0.000 A 
ATOM      2  C   UNL     1       5.180   6.376  15.750  0.00  0.00    +0.000 A 
ATOM      3  C   UNL     1       4.484   7.396  16.390  0.00  0.00    +0.000 A 
ATOM      4  C   UNL     1       3.719   7.162  17.542  0.00  0.00    +0.000 A 
ATOM      5  C   UNL     1       3.573   5.814  17.975  0.00  0.00    +0.000 A 
ATOM      6  C   UNL     1       2.524   5.434  18.950  0.00  0.00    +0.000 A 
ATOM      7  O   UNL     1       1.441   6.014  18.964  0.00  0.00    +0.000 OA
ATOM      8  C   UNL     1       2.696   4.301  19.882  0.00  0.00    +0.000 A 
ATOM      9  C   UNL     1       1.987   4.319  21.094  0.00  0.00    +0.000 A 
ATOM     10  C   UNL     1       2.021   3.212  21.944  0.00  0.00    +0.000 A 
ATOM     11  C   UNL     1       2.764   2.093  21.583  0.00  0.00    +0.000 A 
ATOM     12  C   UNL     1       3.486   2.091  20.386  0.00  0.00    +0.000 A 
ATOM     13  C   UNL     1       3.461   3.199  19.524  0.00  0.00    +0.000 A 
ATOM     14  S   UNL     1       4.308   3.085  17.974  0.00  0.00    +0.000 S 
ATOM     15  C   UNL     1       4.337   4.783  17.378  0.00  0.00    +0.000 A 
ENDROOT
BRANCH   4  16
ATOM     16  N   UNL     1       3.140   8.327  18.077  0.00  0.00    +0.000 N 
ATOM     17  H   UNL     1       3.839   9.073  18.107  0.00  0.00    +0.000 HD
BRANCH  16  18
ATOM     18  C   UNL     1       1.875   8.825  17.543  0.00  0.00    +0.000 C 
BRANCH  18  19
ATOM     19  C   UNL     1       1.182   9.769  18.539  0.00  0.00    +0.000 C 
ATOM     20  C   UNL     1      -0.251  10.013  18.060  0.00  0.00    +0.000 C 
ATOM     21  C   UNL     1       1.168   9.208  19.961  0.00  0.00    +0.000 C 
ENDBRANCH  18  19
ENDBRANCH  16  18
ENDBRANCH   4  16
BRANCH   1  22
ATOM     22  O   UNL     1       5.836   4.032  15.677  0.00  0.00    +0.000 OA
BRANCH  22  23
ATOM     23  C   UNL     1       6.589   4.323  14.500  0.00  0.00    +0.000 C 
BRANCH  23  25
ATOM     24  C   UNL     1       6.823   3.683  12.089  0.00  0.00    +0.000 C 
ATOM     25  C   UNL     1       5.898   3.699  13.294  0.00  0.00    +0.000 C 
ENDBRANCH  23  25
ENDBRANCH  22  23
ENDBRANCH   1  22
TORSDOF 6
ENDMDL
