MODEL 1
REMARK VINA RESULT:      -8.3      0.000      0.000
REMARK  Name = 
REMARK  6 active torsions:
REMARK  status: ('A' for Active; 'I' for Inactive)
REMARK    1  A    between atoms: C_1  and  C_2
REMARK    2  A    between atoms: C_7  and  C_8
REMARK    3  A    between atoms: C_8  and  N_9
REMARK    4  A    between atoms: N_20  and  C_21
REMARK    5  A    between atoms: C_21  and  C_22
REMARK    6  A    between atoms: N_28  and  C_29
REMARK                            x       y       z     vdW  Elec       q    Type
REMARK                         _______ _______ _______ _____ _____    ______ ____
ROOT
ATOM      1  N   UNL     1      -4.731  12.128  18.607  0.00  0.00    +0.000 N 
ATOM      2  C   UNL     1      -3.679  12.227  19.516  0.00  0.00    +0.000 A 
ATOM      3  O   UNL     1      -3.760  12.757  20.620  0.00  0.00    +0.000 OA
ATOM      4  C   UNL     1      -2.471  11.669  19.025  0.00  0.00    +0.000 A 
ATOM      5  C   UNL     1      -2.323  11.176  17.765  0.00  0.00    +0.000 A 
ATOM      6  N   UNL     1      -1.065  10.684  17.555  0.00  0.00    +0.000 NA
ATOM      7  C   UNL     1      -0.421  10.906  18.685  0.00  0.00    +0.000 A 
ATOM      8  N   UNL     1      -1.256  11.494  19.611  0.00  0.00    +0.000 N 
ATOM      9  C   UNL     1      -0.857  11.882  20.946  0.00  0.00    +0.000 C 
ATOM     10  C   UNL     1       0.486  11.281  21.343  0.00  0.00    +0.000 C 
ATOM     11  C   UNL     1       1.449  11.336  20.163  0.00  0.00    +0.000 C 
ATOM     12  N   UNL     1       0.861  10.625  19.032  0.00  0.00    +0.000 N 
ATOM     13  N   UNL     1      -3.354  11.237  16.859  0.00  0.00    +0.000 N 
ATOM     14  C   UNL     1      -3.220  10.726  15.510  0.00  0.00    +0.000 C 
ATOM     15  C   UNL     1      -4.584  11.777  17.252  0.00  0.00    +0.000 A 
ATOM     16  O   UNL     1      -5.495  11.943  16.433  0.00  0.00    +0.000 OA
ENDROOT
BRANCH   1  17
ATOM     17  C   UNL     1      -6.062  12.498  19.078  0.00  0.00    +0.000 C 
BRANCH  17  24
ATOM     18  C   UNL     1      -7.436  12.717  21.840  0.00  0.00    +0.000 C 
ATOM     19  C   UNL     1      -7.367  11.437  21.051  0.00  0.00    +0.000 A 
ATOM     20  C   UNL     1      -7.911  10.282  21.645  0.00  0.00    +0.000 A 
ATOM     21  C   UNL     1      -7.887   9.052  20.988  0.00  0.00    +0.000 A 
ATOM     22  C   UNL     1      -7.313   8.956  19.732  0.00  0.00    +0.000 A 
ATOM     23  C   UNL     1      -6.754  10.086  19.135  0.00  0.00    +0.000 A 
ATOM     24  C   UNL     1      -6.757  11.338  19.782  0.00  0.00    +0.000 A 
ENDBRANCH  17  24
ENDBRANCH   1  17
BRANCH  12  25
ATOM     25  C   UNL     1       1.757   9.985  18.078  0.00  0.00    +0.000 C 
BRANCH  25  26
ATOM     26  C   UNL     1       2.101   8.570  18.506  0.00  0.00    +0.000 A 
ATOM     27  C   UNL     1       2.867   7.743  17.668  0.00  0.00    +0.000 A 
ATOM     28  C   UNL     1       3.258   6.468  18.084  0.00  0.00    +0.000 A 
ATOM     29  C   UNL     1       2.890   6.001  19.344  0.00  0.00    +0.000 A 
ATOM     30  C   UNL     1       2.117   6.804  20.182  0.00  0.00    +0.000 A 
ATOM     31  C   UNL     1       1.724   8.079  19.764  0.00  0.00    +0.000 A 
ENDBRANCH  25  26
ENDBRANCH  12  25
TORSDOF 4
ENDMDL
MODEL 2
REMARK VINA RESULT:      -7.9      2.810      5.042
REMARK  Name = 
REMARK  6 active torsions:
REMARK  status: ('A' for Active; 'I' for Inactive)
REMARK    1  A    between atoms: C_1  and  C_2
REMARK    2  A    between atoms: C_7  and  C_8
REMARK    3  A    between atoms: C_8  and  N_9
REMARK    4  A    between atoms: N_20  and  C_21
REMARK    5  A    between atoms: C_21  and  C_22
REMARK    6  A    between atoms: N_28  and  C_29
REMARK                            x       y       z     vdW  Elec       q    Type
REMARK                         _______ _______ _______ _____ _____    ______ ____
ROOT
ATOM      1  N   UNL     1      -0.456  11.747  20.757  0.00  0.00    +0.000 N 
ATOM      2  C   UNL     1       0.124  11.107  19.662  0.00  0.00    +0.000 A 
ATOM      3  O   UNL     1       0.108  11.540  18.513  0.00  0.00    +0.000 OA
ATOM      4  C   UNL     1       0.727   9.869  20.002  0.00  0.00    +0.000 A 
ATOM      5  C   UNL     1       0.664   9.312  21.242  0.00  0.00    +0.000 A 
ATOM      6  N   UNL     1       1.341   8.127  21.304  0.00  0.00    +0.000 NA
ATOM      7  C   UNL     1       1.798   7.933  20.081  0.00  0.00    +0.000 A 
ATOM      8  N   UNL     1       1.453   8.988  19.263  0.00  0.00    +0.000 N 
ATOM      9  C   UNL     1       1.786   9.079  17.858  0.00  0.00    +0.000 C 
ATOM     10  C   UNL     1       2.836   8.054  17.447  0.00  0.00    +0.000 C 
ATOM     11  C   UNL     1       2.551   6.718  18.126  0.00  0.00    +0.000 C 
ATOM     12  N   UNL     1       2.534   6.911  19.572  0.00  0.00    +0.000 N 
ATOM     13  N   UNL     1      -0.048   9.917  22.251  0.00  0.00    +0.000 N 
ATOM     14  C   UNL     1      -0.137   9.342  23.577  0.00  0.00    +0.000 C 
ATOM     15  C   UNL     1      -0.682  11.140  22.006  0.00  0.00    +0.000 A 
ATOM     16  O   UNL     1      -1.416  11.656  22.857  0.00  0.00    +0.000 OA
ENDROOT
BRANCH   1  17
ATOM     17  C   UNL     1      -0.937  13.110  20.559  0.00  0.00    +0.000 C 
BRANCH  17  24
ATOM     18  C   UNL     1      -2.789  14.941  22.227  0.00  0.00    +0.000 C 
ATOM     19  C   UNL     1      -3.297  13.983  21.183  0.00  0.00    +0.000 A 
ATOM     20  C   UNL     1      -4.692  13.891  21.015  0.00  0.00    +0.000 A 
ATOM     21  C   UNL     1      -5.251  13.027  20.074  0.00  0.00    +0.000 A 
ATOM     22  C   UNL     1      -4.426  12.236  19.293  0.00  0.00    +0.000 A 
ATOM     23  C   UNL     1      -3.043  12.301  19.457  0.00  0.00    +0.000 A 
ATOM     24  C   UNL     1      -2.453  13.159  20.407  0.00  0.00    +0.000 A 
ENDBRANCH  17  24
ENDBRANCH   1  17
BRANCH  12  25
ATOM     25  C   UNL     1       2.927   5.796  20.422  0.00  0.00    +0.000 C 
BRANCH  25  26
ATOM     26  C   UNL     1       2.434   4.474  19.862  0.00  0.00    +0.000 A 
ATOM     27  C   UNL     1       3.332   3.587  19.246  0.00  0.00    +0.000 A 
ATOM     28  C   UNL     1       2.907   2.334  18.799  0.00  0.00    +0.000 A 
ATOM     29  C   UNL     1       1.578   1.949  18.960  0.00  0.00    +0.000 A 
ATOM     30  C   UNL     1       0.670   2.823  19.556  0.00  0.00    +0.000 A 
ATOM     31  C   UNL     1       1.096   4.078  20.002  0.00  0.00    +0.000 A 
ENDBRANCH  25  26
ENDBRANCH  12  25
TORSDOF 4
ENDMDL
MODEL 3
REMARK VINA RESULT:      -7.7      4.438      6.869
REMARK  Name = 
REMARK  6 active torsions:
REMARK  status: ('A' for Active; 'I' for Inactive)
REMARK    1  A    between atoms: C_1  and  C_2
REMARK    2  A    between atoms: C_7  and  C_8
REMARK    3  A    between atoms: C_8  and  N_9
REMARK    4  A    between atoms: N_20  and  C_21
REMARK    5  A    between atoms: C_21  and  C_22
REMARK    6  A    between atoms: N_28  and  C_29
REMARK                            x       y       z     vdW  Elec       q    Type
REMARK                         _______ _______ _______ _____ _____    ______ ____
ROOT
ATOM      1  N   UNL     1      -0.016  11.826  20.286  0.00  0.00    +0.000 N 
ATOM      2  C   UNL     1       0.599  11.033  19.319  0.00  0.00    +0.000 A 
ATOM      3  O   UNL     1       0.780  11.371  18.153  0.00  0.00    +0.000 OA
ATOM      4  C   UNL     1       0.983   9.759  19.811  0.00  0.00    +0.000 A 
ATOM      5  C   UNL     1       0.697   9.315  21.065  0.00  0.00    +0.000 A 
ATOM      6  N   UNL     1       1.194   8.062  21.289  0.00  0.00    +0.000 NA
ATOM      7  C   UNL     1       1.763   7.715  20.150  0.00  0.00    +0.000 A 
ATOM      8  N   UNL     1       1.666   8.737  19.229  0.00  0.00    +0.000 N 
ATOM      9  C   UNL     1       2.175   8.673  17.876  0.00  0.00    +0.000 C 
ATOM     10  C   UNL     1       3.117   7.493  17.670  0.00  0.00    +0.000 C 
ATOM     11  C   UNL     1       2.574   6.263  18.389  0.00  0.00    +0.000 C 
ATOM     12  N   UNL     1       2.409   6.571  19.806  0.00  0.00    +0.000 N 
ATOM     13  N   UNL     1      -0.042  10.084  21.933  0.00  0.00    +0.000 N 
ATOM     14  C   UNL     1      -0.368   9.632  23.271  0.00  0.00    +0.000 C 
ATOM     15  C   UNL     1      -0.470  11.354  21.532  0.00  0.00    +0.000 A 
ATOM     16  O   UNL     1      -1.224  12.025  22.246  0.00  0.00    +0.000 OA
ENDROOT
BRANCH   1  17
ATOM     17  C   UNL     1      -0.280  13.219  19.943  0.00  0.00    +0.000 C 
BRANCH  17  24
ATOM     18  C   UNL     1       0.018  16.033  18.697  0.00  0.00    +0.000 C 
ATOM     19  C   UNL     1       1.111  15.357  19.480  0.00  0.00    +0.000 A 
ATOM     20  C   UNL     1       2.342  16.034  19.589  0.00  0.00    +0.000 A 
ATOM     21  C   UNL     1       3.411  15.480  20.292  0.00  0.00    +0.000 A 
ATOM     22  C   UNL     1       3.270  14.239  20.890  0.00  0.00    +0.000 A 
ATOM     23  C   UNL     1       2.065  13.547  20.779  0.00  0.00    +0.000 A 
ATOM     24  C   UNL     1       0.972  14.080  20.066  0.00  0.00    +0.000 A 
ENDBRANCH  17  24
ENDBRANCH   1  17
BRANCH  12  25
ATOM     25  C   UNL     1       2.543   5.486  20.769  0.00  0.00    +0.000 C 
BRANCH  25  26
ATOM     26  C   UNL     1       2.262   4.140  20.125  0.00  0.00    +0.000 A 
ATOM     27  C   UNL     1       0.940   3.737  19.874  0.00  0.00    +0.000 A 
ATOM     28  C   UNL     1       0.670   2.539  19.209  0.00  0.00    +0.000 A 
ATOM     29  C   UNL     1       1.718   1.725  18.785  0.00  0.00    +0.000 A 
ATOM     30  C   UNL     1       3.036   2.103  19.038  0.00  0.00    +0.000 A 
ATOM     31  C   UNL     1       3.305   3.301  19.706  0.00  0.00    +0.000 A 
ENDBRANCH  25  26
ENDBRANCH  12  25
TORSDOF 4
ENDMDL
MODEL 4
REMARK VINA RESULT:      -7.6      4.403      6.556
REMARK  Name = 
REMARK  6 active torsions:
REMARK  status: ('A' for Active; 'I' for Inactive)
REMARK    1  A    between atoms: C_1  and  C_2
REMARK    2  A    between atoms: C_7  and  C_8
REMARK    3  A    between atoms: C_8  and  N_9
REMARK    4  A    between atoms: N_20  and  C_21
REMARK    5  A    between atoms: C_21  and  C_22
REMARK    6  A    between atoms: N_28  and  C_29
REMARK                            x       y       z     vdW  Elec       q    Type
REMARK                         _______ _______ _______ _____ _____    ______ ____
ROOT
ATOM      1  N   UNL     1      -0.251  11.824  20.680  0.00  0.00    +0.000 N 
ATOM      2  C   UNL     1       0.321  11.143  19.606  0.00  0.00    +0.000 A 
ATOM      3  O   UNL     1       0.359  11.565  18.455  0.00  0.00    +0.000 OA
ATOM      4  C   UNL     1       0.844   9.876  19.971  0.00  0.00    +0.000 A 
ATOM      5  C   UNL     1       0.717   9.335  21.214  0.00  0.00    +0.000 A 
ATOM      6  N   UNL     1       1.324   8.113  21.302  0.00  0.00    +0.000 NA
ATOM      7  C   UNL     1       1.801   7.884  20.094  0.00  0.00    +0.000 A 
ATOM      8  N   UNL     1       1.538   8.949  19.259  0.00  0.00    +0.000 N 
ATOM      9  C   UNL     1       1.913   9.009  17.863  0.00  0.00    +0.000 C 
ATOM     10  C   UNL     1       2.914   7.922  17.488  0.00  0.00    +0.000 C 
ATOM     11  C   UNL     1       2.537   6.611  18.169  0.00  0.00    +0.000 C 
ATOM     12  N   UNL     1       2.491   6.818  19.613  0.00  0.00    +0.000 N 
ATOM     13  N   UNL     1       0.014   9.987  22.198  0.00  0.00    +0.000 N 
ATOM     14  C   UNL     1      -0.143   9.430  23.526  0.00  0.00    +0.000 C 
ATOM     15  C   UNL     1      -0.544  11.242  21.928  0.00  0.00    +0.000 A 
ATOM     16  O   UNL     1      -1.270  11.806  22.754  0.00  0.00    +0.000 OA
ENDROOT
BRANCH   1  17
ATOM     17  C   UNL     1      -0.649  13.210  20.460  0.00  0.00    +0.000 C 
BRANCH  17  24
ATOM     18  C   UNL     1      -0.858  14.967  22.996  0.00  0.00    +0.000 C 
ATOM     19  C   UNL     1       0.321  15.002  22.062  0.00  0.00    +0.000 A 
ATOM     20  C   UNL     1       1.342  15.930  22.346  0.00  0.00    +0.000 A 
ATOM     21  C   UNL     1       2.470  16.035  21.532  0.00  0.00    +0.000 A 
ATOM     22  C   UNL     1       2.591  15.220  20.419  0.00  0.00    +0.000 A 
ATOM     23  C   UNL     1       1.583  14.307  20.113  0.00  0.00    +0.000 A 
ATOM     24  C   UNL     1       0.429  14.188  20.914  0.00  0.00    +0.000 A 
ENDBRANCH  17  24
ENDBRANCH   1  17
BRANCH  12  25
ATOM     25  C   UNL     1       2.799   5.689  20.481  0.00  0.00    +0.000 C 
BRANCH  25  26
ATOM     26  C   UNL     1       2.348   4.378  19.863  0.00  0.00    +0.000 A 
ATOM     27  C   UNL     1       3.289   3.498  19.304  0.00  0.00    +0.000 A 
ATOM     28  C   UNL     1       2.898   2.254  18.805  0.00  0.00    +0.000 A 
ATOM     29  C   UNL     1       1.560   1.870  18.857  0.00  0.00    +0.000 A 
ATOM     30  C   UNL     1       0.611   2.737  19.396  0.00  0.00    +0.000 A 
ATOM     31  C   UNL     1       1.002   3.984  19.893  0.00  0.00    +0.000 A 
ENDBRANCH  25  26
ENDBRANCH  12  25
TORSDOF 4
ENDMDL
MODEL 5
REMARK VINA RESULT:      -7.4      4.581      6.994
REMARK  Name = 
REMARK  6 active torsions:
REMARK  status: ('A' for Active; 'I' for Inactive)
REMARK    1  A    between atoms: C_1  and  C_2
REMARK    2  A    between atoms: C_7  and  C_8
REMARK    3  A    between atoms: C_8  and  N_9
REMARK    4  A    between atoms: N_20  and  C_21
REMARK    5  A    between atoms: C_21  and  C_22
REMARK    6  A    between atoms: N_28  and  C_29
REMARK                            x       y       z     vdW  Elec       q    Type
REMARK                         _______ _______ _______ _____ _____    ______ ____
ROOT
ATOM      1  N   UNL     1       0.164  12.117  20.362  0.00  0.00    +0.000 N 
ATOM      2  C   UNL     1       0.757  11.312  19.390  0.00  0.00    +0.000 A 
ATOM      3  O   UNL     1       0.993  11.668  18.239  0.00  0.00    +0.000 OA
ATOM      4  C   UNL     1       1.043  10.004  19.856  0.00  0.00    +0.000 A 
ATOM      5  C   UNL     1       0.692   9.546  21.089  0.00  0.00    +0.000 A 
ATOM      6  N   UNL     1       1.102   8.258  21.291  0.00  0.00    +0.000 NA
ATOM      7  C   UNL     1       1.682   7.906  20.160  0.00  0.00    +0.000 A 
ATOM      8  N   UNL     1       1.677   8.955  19.266  0.00  0.00    +0.000 N 
ATOM      9  C   UNL     1       2.222   8.894  17.927  0.00  0.00    +0.000 C 
ATOM     10  C   UNL     1       3.093   7.662  17.715  0.00  0.00    +0.000 C 
ATOM     11  C   UNL     1       2.452   6.451  18.383  0.00  0.00    +0.000 C 
ATOM     12  N   UNL     1       2.264   6.732  19.802  0.00  0.00    +0.000 N 
ATOM     13  N   UNL     1      -0.022  10.338  21.957  0.00  0.00    +0.000 N 
ATOM     14  C   UNL     1      -0.416   9.873  23.271  0.00  0.00    +0.000 C 
ATOM     15  C   UNL     1      -0.357  11.643  21.580  0.00  0.00    +0.000 A 
ATOM     16  O   UNL     1      -1.088  12.342  22.291  0.00  0.00    +0.000 OA
ENDROOT
BRANCH   1  17
ATOM     17  C   UNL     1      -0.000  13.533  20.050  0.00  0.00    +0.000 C 
BRANCH  17  24
ATOM     18  C   UNL     1       2.271  14.418  18.147  0.00  0.00    +0.000 C 
ATOM     19  C   UNL     1       2.253  14.740  19.617  0.00  0.00    +0.000 A 
ATOM     20  C   UNL     1       3.364  15.429  20.141  0.00  0.00    +0.000 A 
ATOM     21  C   UNL     1       3.434  15.764  21.493  0.00  0.00    +0.000 A 
ATOM     22  C   UNL     1       2.400  15.410  22.343  0.00  0.00    +0.000 A 
ATOM     23  C   UNL     1       1.299  14.712  21.845  0.00  0.00    +0.000 A 
ATOM     24  C   UNL     1       1.209  14.353  20.485  0.00  0.00    +0.000 A 
ENDBRANCH  17  24
ENDBRANCH   1  17
BRANCH  12  25
ATOM     25  C   UNL     1       2.299   5.615  20.737  0.00  0.00    +0.000 C 
BRANCH  25  26
ATOM     26  C   UNL     1       2.193   4.285  20.012  0.00  0.00    +0.000 A 
ATOM     27  C   UNL     1       3.349   3.545  19.719  0.00  0.00    +0.000 A 
ATOM     28  C   UNL     1       3.260   2.284  19.126  0.00  0.00    +0.000 A 
ATOM     29  C   UNL     1       2.014   1.743  18.817  0.00  0.00    +0.000 A 
ATOM     30  C   UNL     1       0.857   2.472  19.089  0.00  0.00    +0.000 A 
ATOM     31  C   UNL     1       0.946   3.735  19.681  0.00  0.00    +0.000 A 
ENDBRANCH  25  26
ENDBRANCH  12  25
TORSDOF 4
ENDMDL
MODEL 6
REMARK VINA RESULT:      -7.4      4.061      6.333
REMARK  Name = 
REMARK  6 active torsions:
REMARK  status: ('A' for Active; 'I' for Inactive)
REMARK    1  A    between atoms: C_1  and  C_2
REMARK    2  A    between atoms: C_7  and  C_8
REMARK    3  A    between atoms: C_8  and  N_9
REMARK    4  A    between atoms: N_20  and  C_21
REMARK    5  A    between atoms: C_21  and  C_22
REMARK    6  A    between atoms: N_28  and  C_29
REMARK                            x       y       z     vdW  Elec       q    Type
REMARK                         _______ _______ _______ _____ _____    ______ ____
ROOT
ATOM      1  N   UNL     1      -0.696  11.807  20.427  0.00  0.00    +0.000 N 
ATOM      2  C   UNL     1      -0.060  11.113  19.398  0.00  0.00    +0.000 A 
ATOM      3  O   UNL     1      -0.040  11.471  18.225  0.00  0.00    +0.000 OA
ATOM      4  C   UNL     1       0.554   9.913  19.840  0.00  0.00    +0.000 A 
ATOM      5  C   UNL     1       0.454   9.435  21.110  0.00  0.00    +0.000 A 
ATOM      6  N   UNL     1       1.152   8.271  21.274  0.00  0.00    +0.000 NA
ATOM      7  C   UNL     1       1.661   8.011  20.084  0.00  0.00    +0.000 A 
ATOM      8  N   UNL     1       1.327   9.003  19.188  0.00  0.00    +0.000 N 
ATOM      9  C   UNL     1       1.714   9.013  17.793  0.00  0.00    +0.000 C 
ATOM     10  C   UNL     1       2.800   7.988  17.490  0.00  0.00    +0.000 C 
ATOM     11  C   UNL     1       2.516   6.692  18.241  0.00  0.00    +0.000 C 
ATOM     12  N   UNL     1       2.437   6.976  19.671  0.00  0.00    +0.000 N 
ATOM     13  N   UNL     1      -0.310  10.085  22.050  0.00  0.00    +0.000 N 
ATOM     14  C   UNL     1      -0.440   9.594  23.406  0.00  0.00    +0.000 C 
ATOM     15  C   UNL     1      -0.959  11.276  21.703  0.00  0.00    +0.000 A 
ATOM     16  O   UNL     1      -1.737  11.827  22.490  0.00  0.00    +0.000 OA
ENDROOT
BRANCH   1  17
ATOM     17  C   UNL     1      -1.197  13.143  20.124  0.00  0.00    +0.000 C 
BRANCH  17  24
ATOM     18  C   UNL     1      -0.317  14.693  22.651  0.00  0.00    +0.000 C 
ATOM     19  C   UNL     1       0.303  14.903  21.296  0.00  0.00    +0.000 A 
ATOM     20  C   UNL     1       1.292  15.900  21.185  0.00  0.00    +0.000 A 
ATOM     21  C   UNL     1       1.917  16.166  19.968  0.00  0.00    +0.000 A 
ATOM     22  C   UNL     1       1.559  15.445  18.840  0.00  0.00    +0.000 A 
ATOM     23  C   UNL     1       0.571  14.465  18.927  0.00  0.00    +0.000 A 
ATOM     24  C   UNL     1      -0.083  14.184  20.144  0.00  0.00    +0.000 A 
ENDBRANCH  17  24
ENDBRANCH   1  17
BRANCH  12  25
ATOM     25  C   UNL     1       2.819   5.926  20.605  0.00  0.00    +0.000 C 
BRANCH  25  26
ATOM     26  C   UNL     1       2.414   4.556  20.092  0.00  0.00    +0.000 A 
ATOM     27  C   UNL     1       1.074   4.143  20.158  0.00  0.00    +0.000 A 
ATOM     28  C   UNL     1       0.674   2.920  19.616  0.00  0.00    +0.000 A 
ATOM     29  C   UNL     1       1.608   2.091  18.999  0.00  0.00    +0.000 A 
ATOM     30  C   UNL     1       2.945   2.479  18.937  0.00  0.00    +0.000 A 
ATOM     31  C   UNL     1       3.345   3.703  19.482  0.00  0.00    +0.000 A 
ENDBRANCH  25  26
ENDBRANCH  12  25
TORSDOF 4
ENDMDL
MODEL 7
REMARK VINA RESULT:      -7.3      4.846      7.472
REMARK  Name = 
REMARK  6 active torsions:
REMARK  status: ('A' for Active; 'I' for Inactive)
REMARK    1  A    between atoms: C_1  and  C_2
REMARK    2  A    between atoms: C_7  and  C_8
REMARK    3  A    between atoms: C_8  and  N_9
REMARK    4  A    between atoms: N_20  and  C_21
REMARK    5  A    between atoms: C_21  and  C_22
REMARK    6  A    between atoms: N_28  and  C_29
REMARK                            x       y       z     vdW  Elec       q    Type
REMARK                         _______ _______ _______ _____ _____    ______ ____
ROOT
ATOM      1  N   UNL     1       0.904  12.290  20.073  0.00  0.00    +0.000 N 
ATOM      2  C   UNL     1       1.447  11.375  19.172  0.00  0.00    +0.000 A 
ATOM      3  O   UNL     1       1.862  11.663  18.054  0.00  0.00    +0.000 OA
ATOM      4  C   UNL     1       1.450  10.047  19.668  0.00  0.00    +0.000 A 
ATOM      5  C   UNL     1       0.896   9.682  20.856  0.00  0.00    +0.000 A 
ATOM      6  N   UNL     1       1.051   8.346  21.103  0.00  0.00    +0.000 NA
ATOM      7  C   UNL     1       1.678   7.877  20.041  0.00  0.00    +0.000 A 
ATOM      8  N   UNL     1       1.951   8.893  19.151  0.00  0.00    +0.000 N 
ATOM      9  C   UNL     1       2.616   8.713  17.878  0.00  0.00    +0.000 C 
ATOM     10  C   UNL     1       3.277   7.344  17.763  0.00  0.00    +0.000 C 
ATOM     11  C   UNL     1       2.367   6.276  18.359  0.00  0.00    +0.000 C 
ATOM     12  N   UNL     1       2.082   6.613  19.749  0.00  0.00    +0.000 N 
ATOM     13  N   UNL     1       0.242  10.601  21.641  0.00  0.00    +0.000 N 
ATOM     14  C   UNL     1      -0.364  10.238  22.906  0.00  0.00    +0.000 C 
ATOM     15  C   UNL     1       0.181  11.937  21.229  0.00  0.00    +0.000 A 
ATOM     16  O   UNL     1      -0.488  12.766  21.856  0.00  0.00    +0.000 OA
ENDROOT
BRANCH   1  17
ATOM     17  C   UNL     1       1.022  13.707  19.744  0.00  0.00    +0.000 C 
BRANCH  17  24
ATOM     18  C   UNL     1       2.999  15.009  17.755  0.00  0.00    +0.000 C 
ATOM     19  C   UNL     1       3.292  14.845  19.222  0.00  0.00    +0.000 A 
ATOM     20  C   UNL     1       4.558  15.259  19.679  0.00  0.00    +0.000 A 
ATOM     21  C   UNL     1       4.916  15.141  21.021  0.00  0.00    +0.000 A 
ATOM     22  C   UNL     1       4.019  14.599  21.926  0.00  0.00    +0.000 A 
ATOM     23  C   UNL     1       2.767  14.167  21.489  0.00  0.00    +0.000 A 
ATOM     24  C   UNL     1       2.384  14.268  20.137  0.00  0.00    +0.000 A 
ENDBRANCH  17  24
ENDBRANCH   1  17
BRANCH  12  25
ATOM     25  C   UNL     1       1.822   5.525  20.684  0.00  0.00    +0.000 C 
BRANCH  25  26
ATOM     26  C   UNL     1       2.036   4.173  20.029  0.00  0.00    +0.000 A 
ATOM     27  C   UNL     1       0.950   3.470  19.483  0.00  0.00    +0.000 A 
ATOM     28  C   UNL     1       1.144   2.264  18.807  0.00  0.00    +0.000 A 
ATOM     29  C   UNL     1       2.427   1.742  18.665  0.00  0.00    +0.000 A 
ATOM     30  C   UNL     1       3.515   2.419  19.213  0.00  0.00    +0.000 A 
ATOM     31  C   UNL     1       3.320   3.625  19.893  0.00  0.00    +0.000 A 
ENDBRANCH  25  26
ENDBRANCH  12  25
TORSDOF 4
ENDMDL
MODEL 8
REMARK VINA RESULT:      -7.2      0.646      1.680
REMARK  Name = 
REMARK  6 active torsions:
REMARK  status: ('A' for Active; 'I' for Inactive)
REMARK    1  A    between atoms: C_1  and  C_2
REMARK    2  A    between atoms: C_7  and  C_8
REMARK    3  A    between atoms: C_8  and  N_9
REMARK    4  A    between atoms: N_20  and  C_21
REMARK    5  A    between atoms: C_21  and  C_22
REMARK    6  A    between atoms: N_28  and  C_29
REMARK                            x       y       z     vdW  Elec       q    Type
REMARK                         _______ _______ _______ _____ _____    ______ ____
ROOT
ATOM      1  N   UNL     1      -5.085  12.501  18.830  0.00  0.00    +0.000 N 
ATOM      2  C   UNL     1      -4.011  12.612  19.712  0.00  0.00    +0.000 A 
ATOM      3  O   UNL     1      -4.049  13.209  20.784  0.00  0.00    +0.000 OA
ATOM      4  C   UNL     1      -2.835  11.979  19.233  0.00  0.00    +0.000 A 
ATOM      5  C   UNL     1      -2.733  11.407  18.002  0.00  0.00    +0.000 A 
ATOM      6  N   UNL     1      -1.499  10.855  17.798  0.00  0.00    +0.000 NA
ATOM      7  C   UNL     1      -0.824  11.118  18.900  0.00  0.00    +0.000 A 
ATOM      8  N   UNL     1      -1.616  11.791  19.805  0.00  0.00    +0.000 N 
ATOM      9  C   UNL     1      -1.174  12.241  21.107  0.00  0.00    +0.000 C 
ATOM     10  C   UNL     1       0.153  11.612  21.514  0.00  0.00    +0.000 C 
ATOM     11  C   UNL     1       1.092  11.560  20.315  0.00  0.00    +0.000 C 
ATOM     12  N   UNL     1       0.454  10.807  19.240  0.00  0.00    +0.000 N 
ATOM     13  N   UNL     1      -3.780  11.455  17.113  0.00  0.00    +0.000 N 
ATOM     14  C   UNL     1      -3.694  10.861  15.794  0.00  0.00    +0.000 C 
ATOM     15  C   UNL     1      -4.980  12.065  17.496  0.00  0.00    +0.000 A 
ATOM     16  O   UNL     1      -5.901  12.219  16.687  0.00  0.00    +0.000 OA
ENDROOT
BRANCH   1  17
ATOM     17  C   UNL     1      -6.390  12.950  19.304  0.00  0.00    +0.000 C 
BRANCH  17  24
ATOM     18  C   UNL     1      -7.128   9.954  19.096  0.00  0.00    +0.000 C 
ATOM     19  C   UNL     1      -7.243  10.746  20.370  0.00  0.00    +0.000 A 
ATOM     20  C   UNL     1      -7.769  10.084  21.497  0.00  0.00    +0.000 A 
ATOM     21  C   UNL     1      -7.915  10.742  22.717  0.00  0.00    +0.000 A 
ATOM     22  C   UNL     1      -7.545  12.072  22.830  0.00  0.00    +0.000 A 
ATOM     23  C   UNL     1      -7.038  12.748  21.721  0.00  0.00    +0.000 A 
ATOM     24  C   UNL     1      -6.889  12.109  20.473  0.00  0.00    +0.000 A 
ENDBRANCH  17  24
ENDBRANCH   1  17
BRANCH  12  25
ATOM     25  C   UNL     1       1.305  10.078  18.308  0.00  0.00    +0.000 C 
BRANCH  25  26
ATOM     26  C   UNL     1       1.721   8.734  18.877  0.00  0.00    +0.000 A 
ATOM     27  C   UNL     1       1.355   8.374  20.184  0.00  0.00    +0.000 A 
ATOM     28  C   UNL     1       1.661   7.110  20.692  0.00  0.00    +0.000 A 
ATOM     29  C   UNL     1       2.338   6.185  19.900  0.00  0.00    +0.000 A 
ATOM     30  C   UNL     1       2.722   6.531  18.605  0.00  0.00    +0.000 A 
ATOM     31  C   UNL     1       2.417   7.798  18.098  0.00  0.00    +0.000 A 
ENDBRANCH  25  26
ENDBRANCH  12  25
TORSDOF 4
ENDMDL
MODEL 9
REMARK VINA RESULT:      -7.2      2.784      5.138
REMARK  Name = 
REMARK  6 active torsions:
REMARK  status: ('A' for Active; 'I' for Inactive)
REMARK    1  A    between atoms: C_1  and  C_2
REMARK    2  A    between atoms: C_7  and  C_8
REMARK    3  A    between atoms: C_8  and  N_9
REMARK    4  A    between atoms: N_20  and  C_21
REMARK    5  A    between atoms: C_21  and  C_22
REMARK    6  A    between atoms: N_28  and  C_29
REMARK                            x       y       z     vdW  Elec       q    Type
REMARK                         _______ _______ _______ _____ _____    ______ ____
ROOT
ATOM      1  N   UNL     1      -0.505  11.754  20.760  0.00  0.00    +0.000 N 
ATOM      2  C   UNL     1       0.079  11.118  19.666  0.00  0.00    +0.000 A 
ATOM      3  O   UNL     1       0.060  11.549  18.517  0.00  0.00    +0.000 OA
ATOM      4  C   UNL     1       0.691   9.884  20.007  0.00  0.00    +0.000 A 
ATOM      5  C   UNL     1       0.633   9.328  21.247  0.00  0.00    +0.000 A 
ATOM      6  N   UNL     1       1.318   8.147  21.310  0.00  0.00    +0.000 NA
ATOM      7  C   UNL     1       1.776   7.956  20.087  0.00  0.00    +0.000 A 
ATOM      8  N   UNL     1       1.423   9.008  19.269  0.00  0.00    +0.000 N 
ATOM      9  C   UNL     1       1.756   9.100  17.863  0.00  0.00    +0.000 C 
ATOM     10  C   UNL     1       2.813   8.082  17.453  0.00  0.00    +0.000 C 
ATOM     11  C   UNL     1       2.538   6.745  18.133  0.00  0.00    +0.000 C 
ATOM     12  N   UNL     1       2.519   6.940  19.579  0.00  0.00    +0.000 N 
ATOM     13  N   UNL     1      -0.083   9.928  22.256  0.00  0.00    +0.000 N 
ATOM     14  C   UNL     1      -0.169   9.354  23.583  0.00  0.00    +0.000 C 
ATOM     15  C   UNL     1      -0.727  11.147  22.010  0.00  0.00    +0.000 A 
ATOM     16  O   UNL     1      -1.464  11.658  22.861  0.00  0.00    +0.000 OA
ENDROOT
BRANCH   1  17
ATOM     17  C   UNL     1      -0.996  13.114  20.562  0.00  0.00    +0.000 C 
BRANCH  17  24
ATOM     18  C   UNL     1      -3.090  11.735  18.751  0.00  0.00    +0.000 C 
ATOM     19  C   UNL     1      -3.456  12.593  19.932  0.00  0.00    +0.000 A 
ATOM     20  C   UNL     1      -4.827  12.811  20.172  0.00  0.00    +0.000 A 
ATOM     21  C   UNL     1      -5.258  13.596  21.241  0.00  0.00    +0.000 A 
ATOM     22  C   UNL     1      -4.326  14.181  22.082  0.00  0.00    +0.000 A 
ATOM     23  C   UNL     1      -2.964  13.989  21.851  0.00  0.00    +0.000 A 
ATOM     24  C   UNL     1      -2.503  13.208  20.772  0.00  0.00    +0.000 A 
ENDBRANCH  17  24
ENDBRANCH   1  17
BRANCH  12  25
ATOM     25  C   UNL     1       2.921   5.827  20.430  0.00  0.00    +0.000 C 
BRANCH  25  26
ATOM     26  C   UNL     1       2.428   4.502  19.876  0.00  0.00    +0.000 A 
ATOM     27  C   UNL     1       3.323   3.623  19.245  0.00  0.00    +0.000 A 
ATOM     28  C   UNL     1       2.900   2.367  18.803  0.00  0.00    +0.000 A 
ATOM     29  C   UNL     1       1.577   1.972  18.985  0.00  0.00    +0.000 A 
ATOM     30  C   UNL     1       0.673   2.839  19.596  0.00  0.00    +0.000 A 
ATOM     31  C   UNL     1       1.096   4.097  20.037  0.00  0.00    +0.000 A 
ENDBRANCH  25  26
ENDBRANCH  12  25
TORSDOF 4
ENDMDL
