MODEL 1
REMARK VINA RESULT:      -7.7      0.000      0.000
REMARK  Name = 
REMARK  9 active torsions:
REMARK  status: ('A' for Active; 'I' for Inactive)
REMARK    1  A    between atoms: C_1  and  N_2
REMARK    2  A    between atoms: C_3  and  C_5
REMARK    3  A    between atoms: C_5  and  C_6
REMARK    4  A    between atoms: C_6  and  C_7
REMARK    5  A    between atoms: C_7  and  N_8
REMARK    6  A    between atoms: N_8  and  C_9
REMARK    7  A    between atoms: C_10  and  C_12
REMARK    8  A    between atoms: N_20  and  C_21
REMARK    9  A    between atoms: C_24  and  C_25
REMARK                            x       y       z     vdW  Elec       q    Type
REMARK                         _______ _______ _______ _____ _____    ______ ____
ROOT
ATOM      1  C   UNL     1       2.856   6.396  19.293  0.00  0.00    +0.000 A 
ATOM      2  C   UNL     1       2.303   5.952  20.493  0.00  0.00    +0.000 A 
ATOM      3  C   UNL     1       1.323   6.684  21.162  0.00  0.00    +0.000 A 
ATOM      4  C   UNL     1       0.987   7.947  20.660  0.00  0.00    +0.000 A 
ATOM      5  C   UNL     1       1.611   8.490  19.532  0.00  0.00    +0.000 A 
ATOM      6  C   UNL     1       2.548   7.693  18.830  0.00  0.00    +0.000 A 
ATOM      7  C   UNL     1       1.129   9.830  19.408  0.00  0.00    +0.000 A 
ATOM      8  C   UNL     1       0.181  10.026  20.394  0.00  0.00    +0.000 A 
ATOM      9  N   UNL     1       0.092   8.886  21.141  0.00  0.00    +0.000 N 
ATOM     10  C   UNL     1      -0.726   8.680  22.316  0.00  0.00    +0.000 C 
ATOM     11  C   UNL     1      -0.557  11.295  20.626  0.00  0.00    +0.000 C 
ATOM     12  C   UNL     1       0.300  12.465  20.130  0.00  0.00    +0.000 C 
ATOM     13  C   UNL     1       0.795  12.266  18.672  0.00  0.00    +0.000 C 
ATOM     14  C   UNL     1       1.581  10.925  18.493  0.00  0.00    +0.000 C 
ENDROOT
BRANCH  13  15
ATOM     15  C   UNL     1       1.643  13.491  18.203  0.00  0.00    +0.000 C 
ATOM     16  C   UNL     1       3.150  13.300  18.471  0.00  0.00    +0.000 C 
ATOM     17  C   UNL     1       3.949  14.556  18.153  0.00  0.00    +0.000 C 
ATOM     18  O   UNL     1       3.440  15.676  18.865  0.00  0.00    +0.000 OA
ATOM     19  C   UNL     1       2.098  15.961  18.492  0.00  0.00    +0.000 C 
ATOM     20  C   UNL     1       1.177  14.804  18.856  0.00  0.00    +0.000 C 
ENDBRANCH  13  15
BRANCH   1  23
ATOM     21  N   UNL     1       3.355   4.543  17.648  0.00  0.00    +0.000 N 
ATOM     22  C   UNL     1       1.953   4.219  17.400  0.00  0.00    +0.000 C 
ATOM     23  C   UNL     1       3.819   5.554  18.513  0.00  0.00    +0.000 C 
ATOM     24  O   UNL     1       5.023   5.796  18.650  0.00  0.00    +0.000 OA
BRANCH  21  25
ATOM     25  C   UNL     1       4.340   3.709  16.957  0.00  0.00    +0.000 C 
BRANCH  25  26
ATOM     26  C   UNL     1       4.822   4.328  15.645  0.00  0.00    +0.000 C 
BRANCH  26  27
ATOM     27  C   UNL     1       6.302   4.030  15.413  0.00  0.00    +0.000 C 
BRANCH  27  30
ATOM     28  C   UNL     1       7.561   7.094  17.243  0.00  0.00    +0.000 C 
ATOM     29  N   UNL     1       6.874   6.188  16.359  0.00  0.00    +0.000 N 
ATOM     30  C   UNL     1       7.162   4.842  16.355  0.00  0.00    +0.000 C 
ATOM     31  O   UNL     1       8.012   4.327  17.074  0.00  0.00    +0.000 OA
ATOM     32  H   UNL     1       6.139   6.545  15.762  0.00  0.00    +0.000 HD
ENDBRANCH  27  30
ENDBRANCH  26  27
ENDBRANCH  25  26
ENDBRANCH  21  25
ENDBRANCH   1  23
TORSDOF 6
ENDMDL
MODEL 2
REMARK VINA RESULT:      -7.6      0.945      1.026
REMARK  Name = 
REMARK  9 active torsions:
REMARK  status: ('A' for Active; 'I' for Inactive)
REMARK    1  A    between atoms: C_1  and  N_2
REMARK    2  A    between atoms: C_3  and  C_5
REMARK    3  A    between atoms: C_5  and  C_6
REMARK    4  A    between atoms: C_6  and  C_7
REMARK    5  A    between atoms: C_7  and  N_8
REMARK    6  A    between atoms: N_8  and  C_9
REMARK    7  A    between atoms: C_10  and  C_12
REMARK    8  A    between atoms: N_20  and  C_21
REMARK    9  A    between atoms: C_24  and  C_25
REMARK                            x       y       z     vdW  Elec       q    Type
REMARK                         _______ _______ _______ _____ _____    ______ ____
ROOT
ATOM      1  C   UNL     1       2.298   7.132  19.070  0.00  0.00    +0.000 A 
ATOM      2  C   UNL     1       2.028   6.689  20.364  0.00  0.00    +0.000 A 
ATOM      3  C   UNL     1       1.308   7.470  21.269  0.00  0.00    +0.000 A 
ATOM      4  C   UNL     1       0.962   8.771  20.886  0.00  0.00    +0.000 A 
ATOM      5  C   UNL     1       1.327   9.305  19.645  0.00  0.00    +0.000 A 
ATOM      6  C   UNL     1       1.991   8.463  18.718  0.00  0.00    +0.000 A 
ATOM      7  C   UNL     1       0.940  10.680  19.666  0.00  0.00    +0.000 A 
ATOM      8  C   UNL     1       0.287  10.913  20.862  0.00  0.00    +0.000 A 
ATOM      9  N   UNL     1       0.295   9.757  21.591  0.00  0.00    +0.000 N 
ATOM     10  C   UNL     1      -0.218   9.573  22.930  0.00  0.00    +0.000 C 
ATOM     11  C   UNL     1      -0.264  12.224  21.291  0.00  0.00    +0.000 C 
ATOM     12  C   UNL     1       0.534  13.343  20.613  0.00  0.00    +0.000 C 
ATOM     13  C   UNL     1       0.633  13.158  19.074  0.00  0.00    +0.000 C 
ATOM     14  C   UNL     1       1.237  11.769  18.683  0.00  0.00    +0.000 C 
ENDROOT
BRANCH  13  15
ATOM     15  C   UNL     1       1.433  14.331  18.425  0.00  0.00    +0.000 C 
ATOM     16  C   UNL     1       2.958  14.097  18.467  0.00  0.00    +0.000 C 
ATOM     17  C   UNL     1       3.734  15.309  17.973  0.00  0.00    +0.000 C 
ATOM     18  O   UNL     1       3.375  16.475  18.702  0.00  0.00    +0.000 OA
ATOM     19  C   UNL     1       2.001  16.793  18.527  0.00  0.00    +0.000 C 
ATOM     20  C   UNL     1       1.114  15.686  19.081  0.00  0.00    +0.000 C 
ENDBRANCH  13  15
BRANCH   1  23
ATOM     21  N   UNL     1       2.634   4.881  17.971  0.00  0.00    +0.000 N 
ATOM     22  C   UNL     1       1.639   4.195  18.789  0.00  0.00    +0.000 C 
ATOM     23  C   UNL     1       2.964   6.248  18.061  0.00  0.00    +0.000 C 
ATOM     24  O   UNL     1       3.796   6.770  17.311  0.00  0.00    +0.000 OA
BRANCH  21  25
ATOM     25  C   UNL     1       3.359   4.049  17.009  0.00  0.00    +0.000 C 
BRANCH  25  26
ATOM     26  C   UNL     1       4.793   3.754  17.447  0.00  0.00    +0.000 C 
BRANCH  26  27
ATOM     27  C   UNL     1       5.781   4.067  16.325  0.00  0.00    +0.000 C 
BRANCH  27  30
ATOM     28  C   UNL     1       7.602   7.134  17.589  0.00  0.00    +0.000 C 
ATOM     29  N   UNL     1       6.633   6.221  17.040  0.00  0.00    +0.000 N 
ATOM     30  C   UNL     1       6.935   4.893  16.849  0.00  0.00    +0.000 C 
ATOM     31  O   UNL     1       8.028   4.399  17.112  0.00  0.00    +0.000 OA
ATOM     32  H   UNL     1       5.702   6.559  16.832  0.00  0.00    +0.000 HD
ENDBRANCH  27  30
ENDBRANCH  26  27
ENDBRANCH  25  26
ENDBRANCH  21  25
ENDBRANCH   1  23
TORSDOF 6
ENDMDL
MODEL 3
REMARK VINA RESULT:      -7.5      1.135      1.493
REMARK  Name = 
REMARK  9 active torsions:
REMARK  status: ('A' for Active; 'I' for Inactive)
REMARK    1  A    between atoms: C_1  and  N_2
REMARK    2  A    between atoms: C_3  and  C_5
REMARK    3  A    between atoms: C_5  and  C_6
REMARK    4  A    between atoms: C_6  and  C_7
REMARK    5  A    between atoms: C_7  and  N_8
REMARK    6  A    between atoms: N_8  and  C_9
REMARK    7  A    between atoms: C_10  and  C_12
REMARK    8  A    between atoms: N_20  and  C_21
REMARK    9  A    between atoms: C_24  and  C_25
REMARK                            x       y       z     vdW  Elec       q    Type
REMARK                         _______ _______ _______ _____ _____    ______ ____
ROOT
ATOM      1  C   UNL     1       2.718   6.573  19.266  0.00  0.00    +0.000 A 
ATOM      2  C   UNL     1       2.205   6.150  20.492  0.00  0.00    +0.000 A 
ATOM      3  C   UNL     1       1.278   6.916  21.200  0.00  0.00    +0.000 A 
ATOM      4  C   UNL     1       0.960   8.187  20.707  0.00  0.00    +0.000 A 
ATOM      5  C   UNL     1       1.550   8.706  19.549  0.00  0.00    +0.000 A 
ATOM      6  C   UNL     1       2.431   7.877  18.811  0.00  0.00    +0.000 A 
ATOM      7  C   UNL     1       1.105  10.060  19.441  0.00  0.00    +0.000 A 
ATOM      8  C   UNL     1       0.209  10.289  20.466  0.00  0.00    +0.000 A 
ATOM      9  N   UNL     1       0.117   9.155  21.222  0.00  0.00    +0.000 N 
ATOM     10  C   UNL     1      -0.654   8.979  22.433  0.00  0.00    +0.000 C 
ATOM     11  C   UNL     1      -0.479  11.581  20.725  0.00  0.00    +0.000 C 
ATOM     12  C   UNL     1       0.391  12.722  20.186  0.00  0.00    +0.000 C 
ATOM     13  C   UNL     1       0.816  12.503  18.709  0.00  0.00    +0.000 C 
ATOM     14  C   UNL     1       1.551  11.137  18.502  0.00  0.00    +0.000 C 
ENDROOT
BRANCH  13  15
ATOM     15  C   UNL     1       1.680  13.699  18.197  0.00  0.00    +0.000 C 
ATOM     16  C   UNL     1       3.190  13.473  18.423  0.00  0.00    +0.000 C 
ATOM     17  C   UNL     1       4.010  14.703  18.063  0.00  0.00    +0.000 C 
ATOM     18  O   UNL     1       3.551  15.846  18.773  0.00  0.00    +0.000 OA
ATOM     19  C   UNL     1       2.206  16.160  18.437  0.00  0.00    +0.000 C 
ATOM     20  C   UNL     1       1.268  15.032  18.845  0.00  0.00    +0.000 C 
ENDBRANCH  13  15
BRANCH   1  23
ATOM     21  N   UNL     1       3.102   4.598  17.736  0.00  0.00    +0.000 N 
ATOM     22  C   UNL     1       1.698   4.205  17.689  0.00  0.00    +0.000 C 
ATOM     23  C   UNL     1       3.619   5.699  18.448  0.00  0.00    +0.000 C 
ATOM     24  O   UNL     1       4.818   5.994  18.417  0.00  0.00    +0.000 OA
BRANCH  21  25
ATOM     25  C   UNL     1       4.035   3.741  17.003  0.00  0.00    +0.000 C 
BRANCH  25  26
ATOM     26  C   UNL     1       4.701   4.459  15.830  0.00  0.00    +0.000 C 
BRANCH  26  27
ATOM     27  C   UNL     1       6.213   4.252  15.850  0.00  0.00    +0.000 C 
BRANCH  27  30
ATOM     28  C   UNL     1       6.682   3.643  12.145  0.00  0.00    +0.000 C 
ATOM     29  N   UNL     1       6.280   3.567  13.525  0.00  0.00    +0.000 N 
ATOM     30  C   UNL     1       6.793   4.431  14.465  0.00  0.00    +0.000 C 
ATOM     31  O   UNL     1       7.619   5.302  14.208  0.00  0.00    +0.000 OA
ATOM     32  H   UNL     1       5.577   2.891  13.797  0.00  0.00    +0.000 HD
ENDBRANCH  27  30
ENDBRANCH  26  27
ENDBRANCH  25  26
ENDBRANCH  21  25
ENDBRANCH   1  23
TORSDOF 6
ENDMDL
MODEL 4
REMARK VINA RESULT:      -7.5      2.582      4.175
REMARK  Name = 
REMARK  9 active torsions:
REMARK  status: ('A' for Active; 'I' for Inactive)
REMARK    1  A    between atoms: C_1  and  N_2
REMARK    2  A    between atoms: C_3  and  C_5
REMARK    3  A    between atoms: C_5  and  C_6
REMARK    4  A    between atoms: C_6  and  C_7
REMARK    5  A    between atoms: C_7  and  N_8
REMARK    6  A    between atoms: N_8  and  C_9
REMARK    7  A    between atoms: C_10  and  C_12
REMARK    8  A    between atoms: N_20  and  C_21
REMARK    9  A    between atoms: C_24  and  C_25
REMARK                            x       y       z     vdW  Elec       q    Type
REMARK                         _______ _______ _______ _____ _____    ______ ____
ROOT
ATOM      1  C   UNL     1       5.649   5.546  17.206  0.00  0.00    +0.000 A 
ATOM      2  C   UNL     1       5.712   4.587  18.215  0.00  0.00    +0.000 A 
ATOM      3  C   UNL     1       4.735   4.503  19.207  0.00  0.00    +0.000 A 
ATOM      4  C   UNL     1       3.741   5.488  19.237  0.00  0.00    +0.000 A 
ATOM      5  C   UNL     1       3.713   6.546  18.322  0.00  0.00    +0.000 A 
ATOM      6  C   UNL     1       4.674   6.564  17.281  0.00  0.00    +0.000 A 
ATOM      7  C   UNL     1       2.665   7.420  18.746  0.00  0.00    +0.000 A 
ATOM      8  C   UNL     1       2.045   6.835  19.833  0.00  0.00    +0.000 A 
ATOM      9  N   UNL     1       2.691   5.665  20.121  0.00  0.00    +0.000 N 
ATOM     10  C   UNL     1       2.415   4.770  21.222  0.00  0.00    +0.000 C 
ATOM     11  C   UNL     1       0.911   7.426  20.589  0.00  0.00    +0.000 C 
ATOM     12  C   UNL     1       0.972   8.952  20.462  0.00  0.00    +0.000 C 
ATOM     13  C   UNL     1       1.079   9.424  18.986  0.00  0.00    +0.000 C 
ATOM     14  C   UNL     1       2.301   8.784  18.248  0.00  0.00    +0.000 C 
ENDROOT
BRANCH  13  15
ATOM     15  C   UNL     1       1.115  10.983  18.904  0.00  0.00    +0.000 C 
ATOM     16  C   UNL     1       2.359  11.504  18.154  0.00  0.00    +0.000 C 
ATOM     17  C   UNL     1       2.465  13.021  18.211  0.00  0.00    +0.000 C 
ATOM     18  O   UNL     1       2.449  13.481  19.556  0.00  0.00    +0.000 OA
ATOM     19  C   UNL     1       1.227  13.150  20.203  0.00  0.00    +0.000 C 
ATOM     20  C   UNL     1       1.055  11.640  20.295  0.00  0.00    +0.000 C 
ENDBRANCH  13  15
BRANCH   1  23
ATOM     21  N   UNL     1       6.387   4.818  14.901  0.00  0.00    +0.000 N 
ATOM     22  C   UNL     1       5.204   4.002  14.645  0.00  0.00    +0.000 C 
ATOM     23  C   UNL     1       6.629   5.561  16.073  0.00  0.00    +0.000 C 
ATOM     24  O   UNL     1       7.640   6.258  16.209  0.00  0.00    +0.000 OA
BRANCH  21  25
ATOM     25  C   UNL     1       7.407   4.819  13.851  0.00  0.00    +0.000 C 
BRANCH  25  26
ATOM     26  C   UNL     1       6.820   4.601  12.456  0.00  0.00    +0.000 C 
BRANCH  26  27
ATOM     27  C   UNL     1       7.058   3.170  11.981  0.00  0.00    +0.000 C 
BRANCH  27  30
ATOM     28  C   UNL     1       3.443   2.994  10.880  0.00  0.00    +0.000 C 
ATOM     29  N   UNL     1       4.730   3.427  11.356  0.00  0.00    +0.000 N 
ATOM     30  C   UNL     1       5.760   2.534  11.538  0.00  0.00    +0.000 C 
ATOM     31  O   UNL     1       5.660   1.329  11.327  0.00  0.00    +0.000 OA
ATOM     32  H   UNL     1       4.887   4.414  11.520  0.00  0.00    +0.000 HD
ENDBRANCH  27  30
ENDBRANCH  26  27
ENDBRANCH  25  26
ENDBRANCH  21  25
ENDBRANCH   1  23
TORSDOF 6
ENDMDL
MODEL 5
REMARK VINA RESULT:      -7.5      2.886      8.820
REMARK  Name = 
REMARK  9 active torsions:
REMARK  status: ('A' for Active; 'I' for Inactive)
REMARK    1  A    between atoms: C_1  and  N_2
REMARK    2  A    between atoms: C_3  and  C_5
REMARK    3  A    between atoms: C_5  and  C_6
REMARK    4  A    between atoms: C_6  and  C_7
REMARK    5  A    between atoms: C_7  and  N_8
REMARK    6  A    between atoms: N_8  and  C_9
REMARK    7  A    between atoms: C_10  and  C_12
REMARK    8  A    between atoms: N_20  and  C_21
REMARK    9  A    between atoms: C_24  and  C_25
REMARK                            x       y       z     vdW  Elec       q    Type
REMARK                         _______ _______ _______ _____ _____    ______ ____
ROOT
ATOM      1  C   UNL     1       1.572   8.456  19.544  0.00  0.00    +0.000 A 
ATOM      2  C   UNL     1       0.999   7.578  20.462  0.00  0.00    +0.000 A 
ATOM      3  C   UNL     1       1.495   6.289  20.649  0.00  0.00    +0.000 A 
ATOM      4  C   UNL     1       2.519   5.847  19.802  0.00  0.00    +0.000 A 
ATOM      5  C   UNL     1       3.036   6.649  18.778  0.00  0.00    +0.000 A 
ATOM      6  C   UNL     1       2.564   7.980  18.661  0.00  0.00    +0.000 A 
ATOM      7  C   UNL     1       3.941   5.828  18.039  0.00  0.00    +0.000 A 
ATOM      8  C   UNL     1       4.010   4.603  18.674  0.00  0.00    +0.000 A 
ATOM      9  N   UNL     1       3.158   4.622  19.742  0.00  0.00    +0.000 N 
ATOM     10  C   UNL     1       2.867   3.526  20.639  0.00  0.00    +0.000 C 
ATOM     11  C   UNL     1       4.830   3.451  18.219  0.00  0.00    +0.000 C 
ATOM     12  C   UNL     1       5.021   3.548  16.701  0.00  0.00    +0.000 C 
ATOM     13  C   UNL     1       5.556   4.935  16.254  0.00  0.00    +0.000 C 
ATOM     14  C   UNL     1       4.643   6.107  16.747  0.00  0.00    +0.000 C 
ENDROOT
BRANCH  13  15
ATOM     15  C   UNL     1       5.757   4.980  14.706  0.00  0.00    +0.000 C 
ATOM     16  C   UNL     1       5.099   3.780  13.993  0.00  0.00    +0.000 C 
ATOM     17  C   UNL     1       5.428   3.750  12.508  0.00  0.00    +0.000 C 
ATOM     18  O   UNL     1       6.834   3.762  12.298  0.00  0.00    +0.000 OA
ATOM     19  C   UNL     1       7.423   4.953  12.805  0.00  0.00    +0.000 C 
ATOM     20  C   UNL     1       7.243   5.046  14.314  0.00  0.00    +0.000 C 
ENDBRANCH  13  15
BRANCH   1  23
ATOM     21  N   UNL     1       0.404  10.495  20.476  0.00  0.00    +0.000 N 
ATOM     22  C   UNL     1       0.057   9.867  21.747  0.00  0.00    +0.000 C 
ATOM     23  C   UNL     1       1.117   9.879  19.428  0.00  0.00    +0.000 C 
ATOM     24  O   UNL     1       1.406  10.483  18.390  0.00  0.00    +0.000 OA
BRANCH  21  25
ATOM     25  C   UNL     1      -0.070  11.867  20.286  0.00  0.00    +0.000 C 
BRANCH  25  26
ATOM     26  C   UNL     1      -1.499  11.928  19.748  0.00  0.00    +0.000 C 
BRANCH  26  27
ATOM     27  C   UNL     1      -1.508  12.271  18.260  0.00  0.00    +0.000 C 
BRANCH  27  30
ATOM     28  C   UNL     1      -2.878  10.452  15.238  0.00  0.00    +0.000 C 
ATOM     29  N   UNL     1      -2.393  11.447  16.159  0.00  0.00    +0.000 N 
ATOM     30  C   UNL     1      -2.061  11.118  17.452  0.00  0.00    +0.000 C 
ATOM     31  O   UNL     1      -2.161   9.985  17.913  0.00  0.00    +0.000 OA
ATOM     32  H   UNL     1      -2.257  12.395  15.831  0.00  0.00    +0.000 HD
ENDBRANCH  27  30
ENDBRANCH  26  27
ENDBRANCH  25  26
ENDBRANCH  21  25
ENDBRANCH   1  23
TORSDOF 6
ENDMDL
MODEL 6
REMARK VINA RESULT:      -7.4      1.432      1.875
REMARK  Name = 
REMARK  9 active torsions:
REMARK  status: ('A' for Active; 'I' for Inactive)
REMARK    1  A    between atoms: C_1  and  N_2
REMARK    2  A    between atoms: C_3  and  C_5
REMARK    3  A    between atoms: C_5  and  C_6
REMARK    4  A    between atoms: C_6  and  C_7
REMARK    5  A    between atoms: C_7  and  N_8
REMARK    6  A    between atoms: N_8  and  C_9
REMARK    7  A    between atoms: C_10  and  C_12
REMARK    8  A    between atoms: N_20  and  C_21
REMARK    9  A    between atoms: C_24  and  C_25
REMARK                            x       y       z     vdW  Elec       q    Type
REMARK                         _______ _______ _______ _____ _____    ______ ____
ROOT
ATOM      1  C   UNL     1       2.327   6.787  18.938  0.00  0.00    +0.000 A 
ATOM      2  C   UNL     1       2.078   6.360  20.242  0.00  0.00    +0.000 A 
ATOM      3  C   UNL     1       1.430   7.178  21.168  0.00  0.00    +0.000 A 
ATOM      4  C   UNL     1       1.138   8.495  20.793  0.00  0.00    +0.000 A 
ATOM      5  C   UNL     1       1.488   9.008  19.539  0.00  0.00    +0.000 A 
ATOM      6  C   UNL     1       2.077   8.132  18.593  0.00  0.00    +0.000 A 
ATOM      7  C   UNL     1       1.173  10.401  19.570  0.00  0.00    +0.000 A 
ATOM      8  C   UNL     1       0.574  10.668  20.785  0.00  0.00    +0.000 A 
ATOM      9  N   UNL     1       0.546   9.515  21.517  0.00  0.00    +0.000 N 
ATOM     10  C   UNL     1       0.070   9.358  22.873  0.00  0.00    +0.000 C 
ATOM     11  C   UNL     1       0.106  12.007  21.229  0.00  0.00    +0.000 C 
ATOM     12  C   UNL     1       0.937  13.082  20.522  0.00  0.00    +0.000 C 
ATOM     13  C   UNL     1       0.974  12.891  18.981  0.00  0.00    +0.000 C 
ATOM     14  C   UNL     1       1.493  11.472  18.574  0.00  0.00    +0.000 C 
ENDROOT
BRANCH  13  15
ATOM     15  C   UNL     1       1.812  14.021  18.302  0.00  0.00    +0.000 C 
ATOM     16  C   UNL     1       3.332  13.781  18.425  0.00  0.00    +0.000 C 
ATOM     17  C   UNL     1       4.139  14.958  17.897  0.00  0.00    +0.000 C 
ATOM     18  O   UNL     1       3.758  16.166  18.543  0.00  0.00    +0.000 OA
ATOM     19  C   UNL     1       2.395  16.481  18.290  0.00  0.00    +0.000 C 
ATOM     20  C   UNL     1       1.476  15.413  18.866  0.00  0.00    +0.000 C 
ENDBRANCH  13  15
BRANCH   1  23
ATOM     21  N   UNL     1       4.180   6.129  17.350  0.00  0.00    +0.000 N 
ATOM     22  C   UNL     1       5.045   7.252  17.700  0.00  0.00    +0.000 C 
ATOM     23  C   UNL     1       2.913   5.869  17.910  0.00  0.00    +0.000 C 
ATOM     24  O   UNL     1       2.248   4.879  17.590  0.00  0.00    +0.000 OA
BRANCH  21  25
ATOM     25  C   UNL     1       4.678   5.234  16.304  0.00  0.00    +0.000 C 
BRANCH  25  26
ATOM     26  C   UNL     1       5.657   4.189  16.838  0.00  0.00    +0.000 C 
BRANCH  26  27
ATOM     27  C   UNL     1       7.069   4.446  16.316  0.00  0.00    +0.000 C 
BRANCH  27  30
ATOM     28  C   UNL     1       6.213   3.564  12.737  0.00  0.00    +0.000 C 
ATOM     29  N   UNL     1       6.365   3.567  14.169  0.00  0.00    +0.000 N 
ATOM     30  C   UNL     1       7.064   4.565  14.808  0.00  0.00    +0.000 C 
ATOM     31  O   UNL     1       7.608   5.496  14.223  0.00  0.00    +0.000 OA
ATOM     32  H   UNL     1       5.913   2.843  14.713  0.00  0.00    +0.000 HD
ENDBRANCH  27  30
ENDBRANCH  26  27
ENDBRANCH  25  26
ENDBRANCH  21  25
ENDBRANCH   1  23
TORSDOF 6
ENDMDL
MODEL 7
REMARK VINA RESULT:      -7.4      2.663      4.334
REMARK  Name = 
REMARK  9 active torsions:
REMARK  status: ('A' for Active; 'I' for Inactive)
REMARK    1  A    between atoms: C_1  and  N_2
REMARK    2  A    between atoms: C_3  and  C_5
REMARK    3  A    between atoms: C_5  and  C_6
REMARK    4  A    between atoms: C_6  and  C_7
REMARK    5  A    between atoms: C_7  and  N_8
REMARK    6  A    between atoms: N_8  and  C_9
REMARK    7  A    between atoms: C_10  and  C_12
REMARK    8  A    between atoms: N_20  and  C_21
REMARK    9  A    between atoms: C_24  and  C_25
REMARK                            x       y       z     vdW  Elec       q    Type
REMARK                         _______ _______ _______ _____ _____    ______ ____
ROOT
ATOM      1  C   UNL     1       5.557   5.461  17.332  0.00  0.00    +0.000 A 
ATOM      2  C   UNL     1       5.648   4.469  18.307  0.00  0.00    +0.000 A 
ATOM      3  C   UNL     1       4.688   4.341  19.311  0.00  0.00    +0.000 A 
ATOM      4  C   UNL     1       3.683   5.313  19.390  0.00  0.00    +0.000 A 
ATOM      5  C   UNL     1       3.628   6.401  18.512  0.00  0.00    +0.000 A 
ATOM      6  C   UNL     1       4.572   6.464  17.457  0.00  0.00    +0.000 A 
ATOM      7  C   UNL     1       2.578   7.248  18.982  0.00  0.00    +0.000 A 
ATOM      8  C   UNL     1       1.983   6.619  20.058  0.00  0.00    +0.000 A 
ATOM      9  N   UNL     1       2.646   5.448  20.296  0.00  0.00    +0.000 N 
ATOM     10  C   UNL     1       2.398   4.513  21.371  0.00  0.00    +0.000 C 
ATOM     11  C   UNL     1       0.854   7.171  20.851  0.00  0.00    +0.000 C 
ATOM     12  C   UNL     1       0.896   8.701  20.774  0.00  0.00    +0.000 C 
ATOM     13  C   UNL     1       0.973   9.223  19.313  0.00  0.00    +0.000 C 
ATOM     14  C   UNL     1       2.191   8.623  18.535  0.00  0.00    +0.000 C 
ENDROOT
BRANCH  13  15
ATOM     15  C   UNL     1       0.991  10.785  19.284  0.00  0.00    +0.000 C 
ATOM     16  C   UNL     1       1.061  11.399  20.697  0.00  0.00    +0.000 C 
ATOM     17  C   UNL     1       0.924  12.915  20.667  0.00  0.00    +0.000 C 
ATOM     18  O   UNL     1      -0.268  13.304  19.997  0.00  0.00    +0.000 OA
ATOM     19  C   UNL     1      -0.260  12.885  18.639  0.00  0.00    +0.000 C 
ATOM     20  C   UNL     1      -0.225  11.366  18.541  0.00  0.00    +0.000 C 
ENDBRANCH  13  15
BRANCH   1  23
ATOM     21  N   UNL     1       6.364   4.683  15.066  0.00  0.00    +0.000 N 
ATOM     22  C   UNL     1       5.291   3.709  14.882  0.00  0.00    +0.000 C 
ATOM     23  C   UNL     1       6.519   5.525  16.185  0.00  0.00    +0.000 C 
ATOM     24  O   UNL     1       7.435   6.351  16.259  0.00  0.00    +0.000 OA
BRANCH  21  25
ATOM     25  C   UNL     1       7.367   4.743  14.002  0.00  0.00    +0.000 C 
BRANCH  25  26
ATOM     26  C   UNL     1       6.750   4.693  12.605  0.00  0.00    +0.000 C 
BRANCH  26  27
ATOM     27  C   UNL     1       7.036   3.353  11.930  0.00  0.00    +0.000 C 
BRANCH  27  30
ATOM     28  C   UNL     1       3.395   3.017  10.954  0.00  0.00    +0.000 C 
ATOM     29  N   UNL     1       4.683   3.511  11.368  0.00  0.00    +0.000 N 
ATOM     30  C   UNL     1       5.745   2.658  11.560  0.00  0.00    +0.000 C 
ATOM     31  O   UNL     1       5.675   1.442  11.411  0.00  0.00    +0.000 OA
ATOM     32  H   UNL     1       4.815   4.509  11.478  0.00  0.00    +0.000 HD
ENDBRANCH  27  30
ENDBRANCH  26  27
ENDBRANCH  25  26
ENDBRANCH  21  25
ENDBRANCH   1  23
TORSDOF 6
ENDMDL
MODEL 8
REMARK VINA RESULT:      -7.3      1.038      1.234
REMARK  Name = 
REMARK  9 active torsions:
REMARK  status: ('A' for Active; 'I' for Inactive)
REMARK    1  A    between atoms: C_1  and  N_2
REMARK    2  A    between atoms: C_3  and  C_5
REMARK    3  A    between atoms: C_5  and  C_6
REMARK    4  A    between atoms: C_6  and  C_7
REMARK    5  A    between atoms: C_7  and  N_8
REMARK    6  A    between atoms: N_8  and  C_9
REMARK    7  A    between atoms: C_10  and  C_12
REMARK    8  A    between atoms: N_20  and  C_21
REMARK    9  A    between atoms: C_24  and  C_25
REMARK                            x       y       z     vdW  Elec       q    Type
REMARK                         _______ _______ _______ _____ _____    ______ ____
ROOT
ATOM      1  C   UNL     1       2.098   6.587  19.258  0.00  0.00    +0.000 A 
ATOM      2  C   UNL     1       1.752   6.281  20.574  0.00  0.00    +0.000 A 
ATOM      3  C   UNL     1       1.151   7.221  21.410  0.00  0.00    +0.000 A 
ATOM      4  C   UNL     1       1.007   8.530  20.934  0.00  0.00    +0.000 A 
ATOM      5  C   UNL     1       1.459   8.915  19.666  0.00  0.00    +0.000 A 
ATOM      6  C   UNL     1       1.998   7.922  18.811  0.00  0.00    +0.000 A 
ATOM      7  C   UNL     1       1.283  10.331  19.587  0.00  0.00    +0.000 A 
ATOM      8  C   UNL     1       0.663  10.741  20.752  0.00  0.00    +0.000 A 
ATOM      9  N   UNL     1       0.490   9.651  21.557  0.00  0.00    +0.000 N 
ATOM     10  C   UNL     1      -0.056   9.640  22.896  0.00  0.00    +0.000 C 
ATOM     11  C   UNL     1       0.312  12.147  21.081  0.00  0.00    +0.000 C 
ATOM     12  C   UNL     1       1.275  13.084  20.344  0.00  0.00    +0.000 C 
ATOM     13  C   UNL     1       1.358  12.780  18.823  0.00  0.00    +0.000 C 
ATOM     14  C   UNL     1       1.750  11.292  18.539  0.00  0.00    +0.000 C 
ENDROOT
BRANCH  13  15
ATOM     15  C   UNL     1       2.332  13.772  18.112  0.00  0.00    +0.000 C 
ATOM     16  C   UNL     1       3.806  13.529  18.500  0.00  0.00    +0.000 C 
ATOM     17  C   UNL     1       4.729  14.593  17.924  0.00  0.00    +0.000 C 
ATOM     18  O   UNL     1       4.306  15.895  18.307  0.00  0.00    +0.000 OA
ATOM     19  C   UNL     1       3.009  16.188  17.804  0.00  0.00    +0.000 C 
ATOM     20  C   UNL     1       1.973  15.242  18.393  0.00  0.00    +0.000 C 
ENDBRANCH  13  15
BRANCH   1  23
ATOM     21  N   UNL     1       3.968   5.108  18.420  0.00  0.00    +0.000 N 
ATOM     22  C   UNL     1       4.942   5.573  19.403  0.00  0.00    +0.000 C 
ATOM     23  C   UNL     1       2.632   5.545  18.324  0.00  0.00    +0.000 C 
ATOM     24  O   UNL     1       1.851   5.083  17.485  0.00  0.00    +0.000 OA
BRANCH  21  25
ATOM     25  C   UNL     1       4.456   4.134  17.442  0.00  0.00    +0.000 C 
BRANCH  25  26
ATOM     26  C   UNL     1       4.804   4.770  16.097  0.00  0.00    +0.000 C 
BRANCH  26  27
ATOM     27  C   UNL     1       6.275   4.545  15.751  0.00  0.00    +0.000 C 
BRANCH  27  30
ATOM     28  C   UNL     1       7.746   7.520  17.569  0.00  0.00    +0.000 C 
ATOM     29  N   UNL     1       7.014   6.662  16.675  0.00  0.00    +0.000 N 
ATOM     30  C   UNL     1       7.167   5.295  16.714  0.00  0.00    +0.000 C 
ATOM     31  O   UNL     1       7.929   4.719  17.485  0.00  0.00    +0.000 OA
ATOM     32  H   UNL     1       6.345   7.073  16.036  0.00  0.00    +0.000 HD
ENDBRANCH  27  30
ENDBRANCH  26  27
ENDBRANCH  25  26
ENDBRANCH  21  25
ENDBRANCH   1  23
TORSDOF 6
ENDMDL
MODEL 9
REMARK VINA RESULT:      -7.3      2.799      4.586
REMARK  Name = 
REMARK  9 active torsions:
REMARK  status: ('A' for Active; 'I' for Inactive)
REMARK    1  A    between atoms: C_1  and  N_2
REMARK    2  A    between atoms: C_3  and  C_5
REMARK    3  A    between atoms: C_5  and  C_6
REMARK    4  A    between atoms: C_6  and  C_7
REMARK    5  A    between atoms: C_7  and  N_8
REMARK    6  A    between atoms: N_8  and  C_9
REMARK    7  A    between atoms: C_10  and  C_12
REMARK    8  A    between atoms: N_20  and  C_21
REMARK    9  A    between atoms: C_24  and  C_25
REMARK                            x       y       z     vdW  Elec       q    Type
REMARK                         _______ _______ _______ _____ _____    ______ ____
ROOT
ATOM      1  C   UNL     1       5.536   5.354  17.262  0.00  0.00    +0.000 A 
ATOM      2  C   UNL     1       5.647   4.300  18.167  0.00  0.00    +0.000 A 
ATOM      3  C   UNL     1       4.721   4.116  19.193  0.00  0.00    +0.000 A 
ATOM      4  C   UNL     1       3.732   5.092  19.371  0.00  0.00    +0.000 A 
ATOM      5  C   UNL     1       3.662   6.236  18.568  0.00  0.00    +0.000 A 
ATOM      6  C   UNL     1       4.570   6.358  17.486  0.00  0.00    +0.000 A 
ATOM      7  C   UNL     1       2.640   7.062  19.129  0.00  0.00    +0.000 A 
ATOM      8  C   UNL     1       2.074   6.370  20.182  0.00  0.00    +0.000 A 
ATOM      9  N   UNL     1       2.729   5.179  20.319  0.00  0.00    +0.000 N 
ATOM     10  C   UNL     1       2.506   4.178  21.339  0.00  0.00    +0.000 C 
ATOM     11  C   UNL     1       0.980   6.881  21.049  0.00  0.00    +0.000 C 
ATOM     12  C   UNL     1       1.040   8.412  21.070  0.00  0.00    +0.000 C 
ATOM     13  C   UNL     1       1.074   9.029  19.645  0.00  0.00    +0.000 C 
ATOM     14  C   UNL     1       2.256   8.467  18.787  0.00  0.00    +0.000 C 
ENDROOT
BRANCH  13  15
ATOM     15  C   UNL     1       1.112  10.588  19.717  0.00  0.00    +0.000 C 
ATOM     16  C   UNL     1       0.471  11.134  21.010  0.00  0.00    +0.000 C 
ATOM     17  C   UNL     1       0.375  12.652  21.002  0.00  0.00    +0.000 C 
ATOM     18  O   UNL     1      -0.324  13.111  19.852  0.00  0.00    +0.000 OA
ATOM     19  C   UNL     1       0.357  12.756  18.656  0.00  0.00    +0.000 C 
ATOM     20  C   UNL     1       0.430  11.243  18.502  0.00  0.00    +0.000 C 
ENDBRANCH  13  15
BRANCH   1  23
ATOM     21  N   UNL     1       6.214   4.770  14.898  0.00  0.00    +0.000 N 
ATOM     22  C   UNL     1       5.081   3.880  14.662  0.00  0.00    +0.000 C 
ATOM     23  C   UNL     1       6.459   5.483  16.089  0.00  0.00    +0.000 C 
ATOM     24  O   UNL     1       7.423   6.246  16.207  0.00  0.00    +0.000 OA
BRANCH  21  25
ATOM     25  C   UNL     1       7.181   4.884  13.805  0.00  0.00    +0.000 C 
BRANCH  25  26
ATOM     26  C   UNL     1       6.573   4.555  12.442  0.00  0.00    +0.000 C 
BRANCH  26  27
ATOM     27  C   UNL     1       7.275   3.358  11.805  0.00  0.00    +0.000 C 
BRANCH  27  30
ATOM     28  C   UNL     1       6.061  -0.171  11.183  0.00  0.00    +0.000 C 
ATOM     29  N   UNL     1       6.865   1.005  11.387  0.00  0.00    +0.000 N 
ATOM     30  C   UNL     1       6.288   2.245  11.534  0.00  0.00    +0.000 C 
ATOM     31  O   UNL     1       5.077   2.441  11.490  0.00  0.00    +0.000 OA
ATOM     32  H   UNL     1       7.870   0.908  11.465  0.00  0.00    +0.000 HD
ENDBRANCH  27  30
ENDBRANCH  26  27
ENDBRANCH  25  26
ENDBRANCH  21  25
ENDBRANCH   1  23
TORSDOF 6
ENDMDL
