MODEL 1
REMARK VINA RESULT:      -7.1      0.000      0.000
REMARK  Name = 
REMARK  7 active torsions:
REMARK  status: ('A' for Active; 'I' for Inactive)
REMARK    1  A    between atoms: C_1  and  O_2
REMARK    2  A    between atoms: O_2  and  C_3
REMARK    3  A    between atoms: C_9  and  C_10
REMARK    4  A    between atoms: C_10  and  C_12
REMARK    5  A    between atoms: N_16  and  C_17
REMARK    6  A    between atoms: C_17  and  C_18
REMARK    7  A    between atoms: C_21  and  C_22
REMARK                            x       y       z     vdW  Elec       q    Type
REMARK                         _______ _______ _______ _____ _____    ______ ____
ROOT
ATOM      1  C   UNL     1       1.455   4.690  18.969  0.00  0.00    +0.000 C 
ATOM      2  C   UNL     1       0.961   3.379  19.607  0.00  0.00    +0.000 C 
ATOM      3  C   UNL     1       2.104   2.435  19.972  0.00  0.00    +0.000 C 
ATOM      4  C   UNL     1       3.114   2.268  18.838  0.00  0.00    +0.000 C 
ATOM      5  N   UNL     1       3.577   3.561  18.298  0.00  0.00    +0.000 NA
ATOM      6  C   UNL     1       2.437   4.369  17.832  0.00  0.00    +0.000 C 
ENDROOT
BRANCH   1   7
ATOM      7  C   UNL     1       2.063   5.629  20.021  0.00  0.00    +0.000 C 
ATOM      8  O   UNL     1       2.807   5.194  20.905  0.00  0.00    +0.000 OA
BRANCH   7  15
ATOM      9  C   UNL     1       1.847   7.989  18.982  0.00  0.00    +0.000 A 
ATOM     10  C   UNL     1       1.328   9.287  19.136  0.00  0.00    +0.000 A 
ATOM     11  C   UNL     1       0.769   9.707  20.348  0.00  0.00    +0.000 A 
ATOM     12  C   UNL     1       0.763   8.848  21.436  0.00  0.00    +0.000 A 
ATOM     13 CL   UNL     1       0.090   9.365  22.932  0.00  0.00    +0.000 Cl
ATOM     14  C   UNL     1       1.269   7.560  21.307  0.00  0.00    +0.000 A 
ATOM     15  C   UNL     1       1.785   7.102  20.074  0.00  0.00    +0.000 A 
BRANCH   9  17
ATOM     16  C   UNL     1       3.734   7.812  17.519  0.00  0.00    +0.000 C 
ATOM     17  O   UNL     1       2.371   7.531  17.807  0.00  0.00    +0.000 OA
ENDBRANCH   9  17
ENDBRANCH   7  15
ENDBRANCH   1   7
BRANCH   5  18
ATOM     18  C   UNL     1       4.557   3.368  17.213  0.00  0.00    +0.000 C 
BRANCH  18  19
ATOM     19  C   UNL     1       5.526   4.507  17.114  0.00  0.00    +0.000 A 
ATOM     20  C   UNL     1       6.002   5.150  15.989  0.00  0.00    +0.000 A 
ATOM     21  N   UNL     1       6.918   6.160  16.216  0.00  0.00    +0.000 NA
ATOM     22  C   UNL     1       7.107   6.302  17.511  0.00  0.00    +0.000 A 
ATOM     23  C   UNL     1       8.003   7.322  18.121  0.00  0.00    +0.000 C 
ATOM     24  S   UNL     1       6.227   5.216  18.511  0.00  0.00    +0.000 S 
ENDBRANCH  18  19
ENDBRANCH   5  18
TORSDOF 5
ENDMDL
MODEL 2
REMARK VINA RESULT:      -7.1      3.547      6.291
REMARK  Name = 
REMARK  7 active torsions:
REMARK  status: ('A' for Active; 'I' for Inactive)
REMARK    1  A    between atoms: C_1  and  O_2
REMARK    2  A    between atoms: O_2  and  C_3
REMARK    3  A    between atoms: C_9  and  C_10
REMARK    4  A    between atoms: C_10  and  C_12
REMARK    5  A    between atoms: N_16  and  C_17
REMARK    6  A    between atoms: C_17  and  C_18
REMARK    7  A    between atoms: C_21  and  C_22
REMARK                            x       y       z     vdW  Elec       q    Type
REMARK                         _______ _______ _______ _____ _____    ______ ____
ROOT
ATOM      1  C   UNL     1       4.297   3.038  18.574  0.00  0.00    +0.000 C 
ATOM      2  C   UNL     1       3.525   1.712  18.702  0.00  0.00    +0.000 C 
ATOM      3  C   UNL     1       2.029   1.921  18.918  0.00  0.00    +0.000 C 
ATOM      4  C   UNL     1       1.729   2.956  20.000  0.00  0.00    +0.000 C 
ATOM      5  N   UNL     1       2.469   4.217  19.797  0.00  0.00    +0.000 NA
ATOM      6  C   UNL     1       3.919   3.965  19.739  0.00  0.00    +0.000 C 
ENDROOT
BRANCH   1   7
ATOM      7  C   UNL     1       4.063   3.691  17.205  0.00  0.00    +0.000 C 
ATOM      8  O   UNL     1       2.923   3.815  16.748  0.00  0.00    +0.000 OA
BRANCH   7  15
ATOM      9  C   UNL     1       6.360   4.799  16.769  0.00  0.00    +0.000 A 
ATOM     10  C   UNL     1       7.406   4.992  15.848  0.00  0.00    +0.000 A 
ATOM     11  C   UNL     1       7.276   4.600  14.511  0.00  0.00    +0.000 A 
ATOM     12  C   UNL     1       6.083   4.051  14.067  0.00  0.00    +0.000 A 
ATOM     13 CL   UNL     1       5.916   3.581  12.422  0.00  0.00    +0.000 Cl
ATOM     14  C   UNL     1       5.037   3.850  14.960  0.00  0.00    +0.000 A 
ATOM     15  C   UNL     1       5.172   4.188  16.326  0.00  0.00    +0.000 A 
BRANCH   9  17
ATOM     16  C   UNL     1       7.353   6.182  18.454  0.00  0.00    +0.000 C 
ATOM     17  O   UNL     1       6.459   5.139  18.089  0.00  0.00    +0.000 OA
ENDBRANCH   9  17
ENDBRANCH   7  15
ENDBRANCH   1   7
BRANCH   5  18
ATOM     18  C   UNL     1       2.152   5.199  20.850  0.00  0.00    +0.000 C 
BRANCH  18  19
ATOM     19  C   UNL     1       1.939   6.576  20.298  0.00  0.00    +0.000 A 
ATOM     20  C   UNL     1       1.330   7.665  20.886  0.00  0.00    +0.000 A 
ATOM     21  N   UNL     1       1.258   8.807  20.109  0.00  0.00    +0.000 NA
ATOM     22  C   UNL     1       1.841   8.589  18.949  0.00  0.00    +0.000 A 
ATOM     23  C   UNL     1       1.982   9.610  17.876  0.00  0.00    +0.000 C 
ATOM     24  S   UNL     1       2.470   7.005  18.723  0.00  0.00    +0.000 S 
ENDBRANCH  18  19
ENDBRANCH   5  18
TORSDOF 5
ENDMDL
MODEL 3
REMARK VINA RESULT:      -7.0      3.635      6.216
REMARK  Name = 
REMARK  7 active torsions:
REMARK  status: ('A' for Active; 'I' for Inactive)
REMARK    1  A    between atoms: C_1  and  O_2
REMARK    2  A    between atoms: O_2  and  C_3
REMARK    3  A    between atoms: C_9  and  C_10
REMARK    4  A    between atoms: C_10  and  C_12
REMARK    5  A    between atoms: N_16  and  C_17
REMARK    6  A    between atoms: C_17  and  C_18
REMARK    7  A    between atoms: C_21  and  C_22
REMARK                            x       y       z     vdW  Elec       q    Type
REMARK                         _______ _______ _______ _____ _____    ______ ____
ROOT
ATOM      1  C   UNL     1       3.520   2.941  18.754  0.00  0.00    +0.000 C 
ATOM      2  C   UNL     1       2.411   1.878  18.863  0.00  0.00    +0.000 C 
ATOM      3  C   UNL     1       1.018   2.491  18.979  0.00  0.00    +0.000 C 
ATOM      4  C   UNL     1       0.953   3.610  20.018  0.00  0.00    +0.000 C 
ATOM      5  N   UNL     1       2.016   4.615  19.833  0.00  0.00    +0.000 NA
ATOM      6  C   UNL     1       3.345   3.980  19.872  0.00  0.00    +0.000 C 
ENDROOT
BRANCH   1   7
ATOM      7  C   UNL     1       3.547   3.579  17.359  0.00  0.00    +0.000 C 
ATOM      8  O   UNL     1       2.514   3.682  16.688  0.00  0.00    +0.000 OA
BRANCH   7  15
ATOM      9  C   UNL     1       5.912   4.628  17.373  0.00  0.00    +0.000 A 
ATOM     10  C   UNL     1       7.100   4.835  16.649  0.00  0.00    +0.000 A 
ATOM     11  C   UNL     1       7.183   4.525  15.288  0.00  0.00    +0.000 A 
ATOM     12  C   UNL     1       6.066   4.046  14.621  0.00  0.00    +0.000 A 
ATOM     13 CL   UNL     1       6.160   3.679  12.945  0.00  0.00    +0.000 Cl
ATOM     14  C   UNL     1       4.882   3.832  15.317  0.00  0.00    +0.000 A 
ATOM     15  C   UNL     1       4.798   4.086  16.705  0.00  0.00    +0.000 A 
BRANCH   9  17
ATOM     16  C   UNL     1       6.871   5.559  19.361  0.00  0.00    +0.000 C 
ATOM     17  O   UNL     1       5.800   4.887  18.710  0.00  0.00    +0.000 OA
ENDBRANCH   9  17
ENDBRANCH   7  15
ENDBRANCH   1   7
BRANCH   5  18
ATOM     18  C   UNL     1       1.922   5.687  20.842  0.00  0.00    +0.000 C 
BRANCH  18  19
ATOM     19  C   UNL     1       1.770   7.041  20.220  0.00  0.00    +0.000 A 
ATOM     20  C   UNL     1       2.173   7.478  18.975  0.00  0.00    +0.000 A 
ATOM     21  N   UNL     1       1.914   8.805  18.689  0.00  0.00    +0.000 NA
ATOM     22  C   UNL     1       1.287   9.361  19.705  0.00  0.00    +0.000 A 
ATOM     23  C   UNL     1       0.821  10.774  19.731  0.00  0.00    +0.000 C 
ATOM     24  S   UNL     1       1.009   8.334  21.055  0.00  0.00    +0.000 S 
ENDBRANCH  18  19
ENDBRANCH   5  18
TORSDOF 5
ENDMDL
MODEL 4
REMARK VINA RESULT:      -6.9      3.517      6.253
REMARK  Name = 
REMARK  7 active torsions:
REMARK  status: ('A' for Active; 'I' for Inactive)
REMARK    1  A    between atoms: C_1  and  O_2
REMARK    2  A    between atoms: O_2  and  C_3
REMARK    3  A    between atoms: C_9  and  C_10
REMARK    4  A    between atoms: C_10  and  C_12
REMARK    5  A    between atoms: N_16  and  C_17
REMARK    6  A    between atoms: C_17  and  C_18
REMARK    7  A    between atoms: C_21  and  C_22
REMARK                            x       y       z     vdW  Elec       q    Type
REMARK                         _______ _______ _______ _____ _____    ______ ____
ROOT
ATOM      1  C   UNL     1       3.316   4.104  19.740  0.00  0.00    +0.000 C 
ATOM      2  C   UNL     1       1.905   3.577  19.420  0.00  0.00    +0.000 C 
ATOM      3  C   UNL     1       1.385   4.070  18.073  0.00  0.00    +0.000 C 
ATOM      4  C   UNL     1       1.578   5.574  17.882  0.00  0.00    +0.000 C 
ATOM      5  N   UNL     1       2.960   6.007  18.165  0.00  0.00    +0.000 NA
ATOM      6  C   UNL     1       3.354   5.625  19.533  0.00  0.00    +0.000 C 
ENDROOT
BRANCH   1   7
ATOM      7  C   UNL     1       4.386   3.373  18.918  0.00  0.00    +0.000 C 
ATOM      8  O   UNL     1       4.580   2.162  19.063  0.00  0.00    +0.000 OA
BRANCH   7  15
ATOM      9  C   UNL     1       6.481   4.720  18.221  0.00  0.00    +0.000 A 
ATOM     10  C   UNL     1       7.323   5.102  17.161  0.00  0.00    +0.000 A 
ATOM     11  C   UNL     1       6.976   4.844  15.831  0.00  0.00    +0.000 A 
ATOM     12  C   UNL     1       5.762   4.242  15.540  0.00  0.00    +0.000 A 
ATOM     13 CL   UNL     1       5.325   3.937  13.906  0.00  0.00    +0.000 Cl
ATOM     14  C   UNL     1       4.915   3.855  16.573  0.00  0.00    +0.000 A 
ATOM     15  C   UNL     1       5.276   4.057  17.923  0.00  0.00    +0.000 A 
BRANCH   9  17
ATOM     16  C   UNL     1       7.950   5.701  19.839  0.00  0.00    +0.000 C 
ATOM     17  O   UNL     1       6.799   4.925  19.534  0.00  0.00    +0.000 OA
ENDBRANCH   9  17
ENDBRANCH   7  15
ENDBRANCH   1   7
BRANCH   5  18
ATOM     18  C   UNL     1       3.119   7.459  17.964  0.00  0.00    +0.000 C 
BRANCH  18  19
ATOM     19  C   UNL     1       2.137   8.255  18.768  0.00  0.00    +0.000 A 
ATOM     20  C   UNL     1       1.814   8.144  20.105  0.00  0.00    +0.000 A 
ATOM     21  N   UNL     1       0.840   9.011  20.563  0.00  0.00    +0.000 NA
ATOM     22  C   UNL     1       0.452   9.798  19.581  0.00  0.00    +0.000 A 
ATOM     23  C   UNL     1      -0.560  10.880  19.722  0.00  0.00    +0.000 C 
ATOM     24  S   UNL     1       1.209   9.515  18.064  0.00  0.00    +0.000 S 
ENDBRANCH  18  19
ENDBRANCH   5  18
TORSDOF 5
ENDMDL
MODEL 5
REMARK VINA RESULT:      -6.8      3.668      6.635
REMARK  Name = 
REMARK  7 active torsions:
REMARK  status: ('A' for Active; 'I' for Inactive)
REMARK    1  A    between atoms: C_1  and  O_2
REMARK    2  A    between atoms: O_2  and  C_3
REMARK    3  A    between atoms: C_9  and  C_10
REMARK    4  A    between atoms: C_10  and  C_12
REMARK    5  A    between atoms: N_16  and  C_17
REMARK    6  A    between atoms: C_17  and  C_18
REMARK    7  A    between atoms: C_21  and  C_22
REMARK                            x       y       z     vdW  Elec       q    Type
REMARK                         _______ _______ _______ _____ _____    ______ ____
ROOT
ATOM      1  C   UNL     1       4.376   4.209  18.181  0.00  0.00    +0.000 C 
ATOM      2  C   UNL     1       3.424   3.107  17.681  0.00  0.00    +0.000 C 
ATOM      3  C   UNL     1       1.965   3.551  17.669  0.00  0.00    +0.000 C 
ATOM      4  C   UNL     1       1.546   4.232  18.971  0.00  0.00    +0.000 C 
ATOM      5  N   UNL     1       2.476   5.304  19.373  0.00  0.00    +0.000 NA
ATOM      6  C   UNL     1       3.847   4.780  19.505  0.00  0.00    +0.000 C 
ENDROOT
BRANCH   1   7
ATOM      7  C   UNL     1       4.584   5.294  17.116  0.00  0.00    +0.000 C 
ATOM      8  O   UNL     1       3.962   6.360  17.166  0.00  0.00    +0.000 OA
BRANCH   7  15
ATOM      9  C   UNL     1       6.905   5.323  15.972  0.00  0.00    +0.000 A 
ATOM     10  C   UNL     1       7.663   4.908  14.862  0.00  0.00    +0.000 A 
ATOM     11  C   UNL     1       7.054   4.333  13.742  0.00  0.00    +0.000 A 
ATOM     12  C   UNL     1       5.674   4.207  13.697  0.00  0.00    +0.000 A 
ATOM     13 CL   UNL     1       4.921   3.514  12.316  0.00  0.00    +0.000 Cl
ATOM     14  C   UNL     1       4.905   4.609  14.783  0.00  0.00    +0.000 A 
ATOM     15  C   UNL     1       5.509   5.138  15.945  0.00  0.00    +0.000 A 
BRANCH   9  17
ATOM     16  C   UNL     1       7.513   7.274  17.221  0.00  0.00    +0.000 C 
ATOM     17  O   UNL     1       7.464   5.858  17.098  0.00  0.00    +0.000 OA
ENDBRANCH   9  17
ENDBRANCH   7  15
ENDBRANCH   1   7
BRANCH   5  18
ATOM     18  C   UNL     1       2.042   5.949  20.626  0.00  0.00    +0.000 C 
BRANCH  18  19
ATOM     19  C   UNL     1       1.616   7.370  20.416  0.00  0.00    +0.000 A 
ATOM     20  C   UNL     1       0.959   8.219  21.282  0.00  0.00    +0.000 A 
ATOM     21  N   UNL     1       0.674   9.479  20.790  0.00  0.00    +0.000 NA
ATOM     22  C   UNL     1       1.144   9.591  19.565  0.00  0.00    +0.000 A 
ATOM     23  C   UNL     1       1.049  10.826  18.740  0.00  0.00    +0.000 C 
ATOM     24  S   UNL     1       1.916   8.190  18.938  0.00  0.00    +0.000 S 
ENDBRANCH  18  19
ENDBRANCH   5  18
TORSDOF 5
ENDMDL
MODEL 6
REMARK VINA RESULT:      -6.8      3.732      6.643
REMARK  Name = 
REMARK  7 active torsions:
REMARK  status: ('A' for Active; 'I' for Inactive)
REMARK    1  A    between atoms: C_1  and  O_2
REMARK    2  A    between atoms: O_2  and  C_3
REMARK    3  A    between atoms: C_9  and  C_10
REMARK    4  A    between atoms: C_10  and  C_12
REMARK    5  A    between atoms: N_16  and  C_17
REMARK    6  A    between atoms: C_17  and  C_18
REMARK    7  A    between atoms: C_21  and  C_22
REMARK                            x       y       z     vdW  Elec       q    Type
REMARK                         _______ _______ _______ _____ _____    ______ ____
ROOT
ATOM      1  C   UNL     1       4.287   4.419  18.433  0.00  0.00    +0.000 C 
ATOM      2  C   UNL     1       3.379   3.251  18.006  0.00  0.00    +0.000 C 
ATOM      3  C   UNL     1       1.905   3.640  17.953  0.00  0.00    +0.000 C 
ATOM      4  C   UNL     1       1.450   4.395  19.201  0.00  0.00    +0.000 C 
ATOM      5  N   UNL     1       2.338   5.525  19.532  0.00  0.00    +0.000 NA
ATOM      6  C   UNL     1       3.726   5.063  19.710  0.00  0.00    +0.000 C 
ENDROOT
BRANCH   1   7
ATOM      7  C   UNL     1       4.465   5.434  17.295  0.00  0.00    +0.000 C 
ATOM      8  O   UNL     1       3.779   6.459  17.246  0.00  0.00    +0.000 OA
BRANCH   7  15
ATOM      9  C   UNL     1       6.831   5.435  16.248  0.00  0.00    +0.000 A 
ATOM     10  C   UNL     1       7.634   4.994  15.181  0.00  0.00    +0.000 A 
ATOM     11  C   UNL     1       7.072   4.393  14.050  0.00  0.00    +0.000 A 
ATOM     12  C   UNL     1       5.695   4.266  13.951  0.00  0.00    +0.000 A 
ATOM     13 CL   UNL     1       4.999   3.541  12.557  0.00  0.00    +0.000 Cl
ATOM     14  C   UNL     1       4.882   4.693  14.995  0.00  0.00    +0.000 A 
ATOM     15  C   UNL     1       5.438   5.250  16.168  0.00  0.00    +0.000 A 
BRANCH   9  17
ATOM     16  C   UNL     1       7.528   7.407  17.416  0.00  0.00    +0.000 C 
ATOM     17  O   UNL     1       7.344   5.997  17.383  0.00  0.00    +0.000 OA
ENDBRANCH   9  17
ENDBRANCH   7  15
ENDBRANCH   1   7
BRANCH   5  18
ATOM     18  C   UNL     1       1.870   6.241  20.734  0.00  0.00    +0.000 C 
BRANCH  18  19
ATOM     19  C   UNL     1       1.462   7.650  20.434  0.00  0.00    +0.000 A 
ATOM     20  C   UNL     1       1.728   8.415  19.316  0.00  0.00    +0.000 A 
ATOM     21  N   UNL     1       1.235   9.706  19.338  0.00  0.00    +0.000 NA
ATOM     22  C   UNL     1       0.568   9.905  20.456  0.00  0.00    +0.000 A 
ATOM     23  C   UNL     1      -0.130  11.173  20.803  0.00  0.00    +0.000 C 
ATOM     24  S   UNL     1       0.530   8.573  21.542  0.00  0.00    +0.000 S 
ENDBRANCH  18  19
ENDBRANCH   5  18
TORSDOF 5
ENDMDL
MODEL 7
REMARK VINA RESULT:      -6.7      2.981      5.621
REMARK  Name = 
REMARK  7 active torsions:
REMARK  status: ('A' for Active; 'I' for Inactive)
REMARK    1  A    between atoms: C_1  and  O_2
REMARK    2  A    between atoms: O_2  and  C_3
REMARK    3  A    between atoms: C_9  and  C_10
REMARK    4  A    between atoms: C_10  and  C_12
REMARK    5  A    between atoms: N_16  and  C_17
REMARK    6  A    between atoms: C_17  and  C_18
REMARK    7  A    between atoms: C_21  and  C_22
REMARK                            x       y       z     vdW  Elec       q    Type
REMARK                         _______ _______ _______ _____ _____    ______ ____
ROOT
ATOM      1  C   UNL     1       3.732   2.773  18.859  0.00  0.00    +0.000 C 
ATOM      2  C   UNL     1       2.570   1.782  18.668  0.00  0.00    +0.000 C 
ATOM      3  C   UNL     1       1.213   2.475  18.586  0.00  0.00    +0.000 C 
ATOM      4  C   UNL     1       1.012   3.508  19.694  0.00  0.00    +0.000 C 
ATOM      5  N   UNL     1       2.142   4.452  19.798  0.00  0.00    +0.000 NA
ATOM      6  C   UNL     1       3.406   3.728  20.018  0.00  0.00    +0.000 C 
ENDROOT
BRANCH   1   7
ATOM      7  C   UNL     1       4.051   3.520  17.557  0.00  0.00    +0.000 C 
ATOM      8  O   UNL     1       3.267   3.493  16.603  0.00  0.00    +0.000 OA
BRANCH   7  15
ATOM      9  C   UNL     1       5.721   4.872  16.116  0.00  0.00    +0.000 A 
ATOM     10  C   UNL     1       6.808   5.765  16.121  0.00  0.00    +0.000 A 
ATOM     11  C   UNL     1       7.490   6.072  17.303  0.00  0.00    +0.000 A 
ATOM     12  C   UNL     1       7.124   5.454  18.489  0.00  0.00    +0.000 A 
ATOM     13 CL   UNL     1       7.970   5.816  19.940  0.00  0.00    +0.000 Cl
ATOM     14  C   UNL     1       6.053   4.569  18.508  0.00  0.00    +0.000 A 
ATOM     15  C   UNL     1       5.317   4.292  17.334  0.00  0.00    +0.000 A 
BRANCH   9  17
ATOM     16  C   UNL     1       5.682   3.932  13.914  0.00  0.00    +0.000 C 
ATOM     17  O   UNL     1       5.009   4.572  14.990  0.00  0.00    +0.000 OA
ENDBRANCH   9  17
ENDBRANCH   7  15
ENDBRANCH   1   7
BRANCH   5  18
ATOM     18  C   UNL     1       1.917   5.442  20.868  0.00  0.00    +0.000 C 
BRANCH  18  19
ATOM     19  C   UNL     1       1.765   6.833  20.332  0.00  0.00    +0.000 A 
ATOM     20  C   UNL     1       1.208   7.942  20.934  0.00  0.00    +0.000 A 
ATOM     21  N   UNL     1       1.186   9.095  20.170  0.00  0.00    +0.000 NA
ATOM     22  C   UNL     1       1.756   8.864  19.006  0.00  0.00    +0.000 A 
ATOM     23  C   UNL     1       1.941   9.890  17.944  0.00  0.00    +0.000 C 
ATOM     24  S   UNL     1       2.312   7.256  18.760  0.00  0.00    +0.000 S 
ENDBRANCH  18  19
ENDBRANCH   5  18
TORSDOF 5
ENDMDL
MODEL 8
REMARK VINA RESULT:      -6.5      3.697      6.293
REMARK  Name = 
REMARK  7 active torsions:
REMARK  status: ('A' for Active; 'I' for Inactive)
REMARK    1  A    between atoms: C_1  and  O_2
REMARK    2  A    between atoms: O_2  and  C_3
REMARK    3  A    between atoms: C_9  and  C_10
REMARK    4  A    between atoms: C_10  and  C_12
REMARK    5  A    between atoms: N_16  and  C_17
REMARK    6  A    between atoms: C_17  and  C_18
REMARK    7  A    between atoms: C_21  and  C_22
REMARK                            x       y       z     vdW  Elec       q    Type
REMARK                         _______ _______ _______ _____ _____    ______ ____
ROOT
ATOM      1  C   UNL     1       4.772   4.093  18.876  0.00  0.00    +0.000 C 
ATOM      2  C   UNL     1       4.418   2.744  19.530  0.00  0.00    +0.000 C 
ATOM      3  C   UNL     1       2.920   2.580  19.768  0.00  0.00    +0.000 C 
ATOM      4  C   UNL     1       2.291   3.808  20.425  0.00  0.00    +0.000 C 
ATOM      5  N   UNL     1       2.635   5.062  19.727  0.00  0.00    +0.000 NA
ATOM      6  C   UNL     1       4.097   5.232  19.654  0.00  0.00    +0.000 C 
ENDROOT
BRANCH   1   7
ATOM      7  C   UNL     1       4.406   4.104  17.385  0.00  0.00    +0.000 C 
ATOM      8  O   UNL     1       3.274   3.782  17.007  0.00  0.00    +0.000 OA
BRANCH   7  15
ATOM      9  C   UNL     1       6.636   5.058  16.488  0.00  0.00    +0.000 A 
ATOM     10  C   UNL     1       7.526   5.116  15.400  0.00  0.00    +0.000 A 
ATOM     11  C   UNL     1       7.172   4.610  14.145  0.00  0.00    +0.000 A 
ATOM     12  C   UNL     1       5.906   4.080  13.949  0.00  0.00    +0.000 A 
ATOM     13 CL   UNL     1       5.461   3.471  12.405  0.00  0.00    +0.000 Cl
ATOM     14  C   UNL     1       5.010   4.011  15.011  0.00  0.00    +0.000 A 
ATOM     15  C   UNL     1       5.373   4.466  16.298  0.00  0.00    +0.000 A 
BRANCH   9  17
ATOM     16  C   UNL     1       7.433   6.844  17.871  0.00  0.00    +0.000 C 
ATOM     17  O   UNL     1       6.957   5.511  17.736  0.00  0.00    +0.000 OA
ENDBRANCH   9  17
ENDBRANCH   7  15
ENDBRANCH   1   7
BRANCH   5  18
ATOM     18  C   UNL     1       2.007   6.227  20.377  0.00  0.00    +0.000 C 
BRANCH  18  19
ATOM     19  C   UNL     1       1.976   7.428  19.483  0.00  0.00    +0.000 A 
ATOM     20  C   UNL     1       2.354   7.540  18.160  0.00  0.00    +0.000 A 
ATOM     21  N   UNL     1       2.234   8.799  17.604  0.00  0.00    +0.000 NA
ATOM     22  C   UNL     1       1.735   9.630  18.495  0.00  0.00    +0.000 A 
ATOM     23  C   UNL     1       1.437  11.064  18.230  0.00  0.00    +0.000 C 
ATOM     24  S   UNL     1       1.418   8.952  20.042  0.00  0.00    +0.000 S 
ENDBRANCH  18  19
ENDBRANCH   5  18
TORSDOF 5
ENDMDL
MODEL 9
REMARK VINA RESULT:      -6.4      0.919      1.020
REMARK  Name = 
REMARK  7 active torsions:
REMARK  status: ('A' for Active; 'I' for Inactive)
REMARK    1  A    between atoms: C_1  and  O_2
REMARK    2  A    between atoms: O_2  and  C_3
REMARK    3  A    between atoms: C_9  and  C_10
REMARK    4  A    between atoms: C_10  and  C_12
REMARK    5  A    between atoms: N_16  and  C_17
REMARK    6  A    between atoms: C_17  and  C_18
REMARK    7  A    between atoms: C_21  and  C_22
REMARK                            x       y       z     vdW  Elec       q    Type
REMARK                         _______ _______ _______ _____ _____    ______ ____
ROOT
ATOM      1  C   UNL     1       1.447   4.671  19.182  0.00  0.00    +0.000 C 
ATOM      2  C   UNL     1       1.027   3.278  19.686  0.00  0.00    +0.000 C 
ATOM      3  C   UNL     1       2.220   2.409  20.074  0.00  0.00    +0.000 C 
ATOM      4  C   UNL     1       3.321   2.414  19.015  0.00  0.00    +0.000 C 
ATOM      5  N   UNL     1       3.705   3.778  18.605  0.00  0.00    +0.000 NA
ATOM      6  C   UNL     1       2.534   4.520  18.107  0.00  0.00    +0.000 C 
ENDROOT
BRANCH   1   7
ATOM      7  C   UNL     1       1.889   5.575  20.340  0.00  0.00    +0.000 C 
ATOM      8  O   UNL     1       2.492   5.111  21.313  0.00  0.00    +0.000 OA
BRANCH   7  15
ATOM      9  C   UNL     1       1.828   7.966  19.353  0.00  0.00    +0.000 A 
ATOM     10  C   UNL     1       1.291   9.261  19.467  0.00  0.00    +0.000 A 
ATOM     11  C   UNL     1       0.558   9.646  20.595  0.00  0.00    +0.000 A 
ATOM     12  C   UNL     1       0.391   8.755  21.644  0.00  0.00    +0.000 A 
ATOM     13 CL   UNL     1      -0.496   9.229  23.038  0.00  0.00    +0.000 Cl
ATOM     14  C   UNL     1       0.912   7.470  21.552  0.00  0.00    +0.000 A 
ATOM     15  C   UNL     1       1.605   7.047  20.396  0.00  0.00    +0.000 A 
BRANCH   9  17
ATOM     16  C   UNL     1       3.076   8.520  17.385  0.00  0.00    +0.000 C 
ATOM     17  O   UNL     1       2.521   7.541  18.255  0.00  0.00    +0.000 OA
ENDBRANCH   9  17
ENDBRANCH   7  15
ENDBRANCH   1   7
BRANCH   5  18
ATOM     18  C   UNL     1       4.775   3.752  17.591  0.00  0.00    +0.000 C 
BRANCH  18  19
ATOM     19  C   UNL     1       5.815   4.803  17.834  0.00  0.00    +0.000 A 
ATOM     20  C   UNL     1       6.832   4.823  18.767  0.00  0.00    +0.000 A 
ATOM     21  N   UNL     1       7.626   5.954  18.768  0.00  0.00    +0.000 NA
ATOM     22  C   UNL     1       7.229   6.773  17.816  0.00  0.00    +0.000 A 
ATOM     23  C   UNL     1       7.879   8.075  17.504  0.00  0.00    +0.000 C 
ATOM     24  S   UNL     1       5.874   6.243  16.901  0.00  0.00    +0.000 S 
ENDBRANCH  18  19
ENDBRANCH   5  18
TORSDOF 5
ENDMDL
