MODEL 1
REMARK VINA RESULT:      -7.1      0.000      0.000
REMARK  Name = 
REMARK  10 active torsions:
REMARK  status: ('A' for Active; 'I' for Inactive)
REMARK    1  A    between atoms: C_1  and  C_2
REMARK    2  A    between atoms: C_2  and  N_3
REMARK    3  A    between atoms: N_3  and  C_4
REMARK    4  A    between atoms: N_3  and  C_6
REMARK    5  A    between atoms: C_4  and  C_5
REMARK    6  A    between atoms: C_6  and  C_7
REMARK    7  A    between atoms: C_7  and  O_8
REMARK    8  A    between atoms: O_8  and  C_9
REMARK    9  A    between atoms: C_9  and  C_11
REMARK   10  A    between atoms: C_11  and  C_12
REMARK                            x       y       z     vdW  Elec       q    Type
REMARK                         _______ _______ _______ _____ _____    ______ ____
ROOT
ATOM      1  C   UNL     1       2.864   4.276  19.252  0.00  0.00    +0.000 C 
ATOM      2  C   UNL     1       1.810   3.300  18.669  0.00  0.00    +0.000 C 
ATOM      3  C   UNL     1       0.728   3.177  19.730  0.00  0.00    +0.000 C 
ATOM      4  C   UNL     1       1.440   3.391  21.061  0.00  0.00    +0.000 C 
ATOM      5  C   UNL     1       2.882   3.762  20.717  0.00  0.00    +0.000 C 
ENDROOT
BRANCH   1   6
ATOM      6  C   UNL     1       2.508   5.770  19.180  0.00  0.00    +0.000 A 
ATOM      7  C   UNL     1       2.541   6.503  17.981  0.00  0.00    +0.000 A 
ATOM      8  C   UNL     1       2.144   7.843  17.929  0.00  0.00    +0.000 A 
ATOM      9  C   UNL     1       1.722   8.487  19.086  0.00  0.00    +0.000 A 
ATOM     10  I   UNL     1       1.104  10.468  19.000  0.00  0.00    +0.000 I 
ATOM     11  C   UNL     1       1.708   7.799  20.296  0.00  0.00    +0.000 A 
ATOM     12  C   UNL     1       2.100   6.454  20.341  0.00  0.00    +0.000 A 
ENDBRANCH   1   6
BRANCH   1  13
ATOM     13  C   UNL     1       4.185   3.965  18.531  0.00  0.00    +0.000 C 
ATOM     14  O   UNL     1       4.258   3.613  17.362  0.00  0.00    +0.000 OA
BRANCH  13  15
ATOM     15  O   UNL     1       5.255   4.055  19.374  0.00  0.00    +0.000 OA
BRANCH  15  16
ATOM     16  C   UNL     1       6.031   5.264  19.263  0.00  0.00    +0.000 C 
BRANCH  16  17
ATOM     17  C   UNL     1       7.425   5.037  18.660  0.00  0.00    +0.000 C 
BRANCH  17  18
ATOM     18  N   UNL     1       7.598   5.570  17.290  0.00  0.00    +0.000 NA
BRANCH  18  20
ATOM     19  C   UNL     1       6.536   5.091  15.045  0.00  0.00    +0.000 C 
ATOM     20  C   UNL     1       7.184   4.544  16.313  0.00  0.00    +0.000 C 
ENDBRANCH  18  20
BRANCH  18  21
ATOM     21  C   UNL     1       6.995   6.891  17.071  0.00  0.00    +0.000 C 
ATOM     22  C   UNL     1       7.791   8.083  17.593  0.00  0.00    +0.000 C 
ENDBRANCH  18  21
ENDBRANCH  17  18
ENDBRANCH  16  17
ENDBRANCH  15  16
ENDBRANCH  13  15
ENDBRANCH   1  13
TORSDOF 8
ENDMDL
MODEL 2
REMARK VINA RESULT:      -7.1      0.228      1.049
REMARK  Name = 
REMARK  10 active torsions:
REMARK  status: ('A' for Active; 'I' for Inactive)
REMARK    1  A    between atoms: C_1  and  C_2
REMARK    2  A    between atoms: C_2  and  N_3
REMARK    3  A    between atoms: N_3  and  C_4
REMARK    4  A    between atoms: N_3  and  C_6
REMARK    5  A    between atoms: C_4  and  C_5
REMARK    6  A    between atoms: C_6  and  C_7
REMARK    7  A    between atoms: C_7  and  O_8
REMARK    8  A    between atoms: O_8  and  C_9
REMARK    9  A    between atoms: C_9  and  C_11
REMARK   10  A    between atoms: C_11  and  C_12
REMARK                            x       y       z     vdW  Elec       q    Type
REMARK                         _______ _______ _______ _____ _____    ______ ____
ROOT
ATOM      1  C   UNL     1       2.859   4.085  19.242  0.00  0.00    +0.000 C 
ATOM      2  C   UNL     1       1.841   3.080  18.643  0.00  0.00    +0.000 C 
ATOM      3  C   UNL     1       0.736   2.943  19.680  0.00  0.00    +0.000 C 
ATOM      4  C   UNL     1       1.411   3.186  21.025  0.00  0.00    +0.000 C 
ATOM      5  C   UNL     1       2.852   3.585  20.712  0.00  0.00    +0.000 C 
ENDROOT
BRANCH   1   6
ATOM      6  C   UNL     1       2.471   5.570  19.146  0.00  0.00    +0.000 A 
ATOM      7  C   UNL     1       2.117   6.337  20.269  0.00  0.00    +0.000 A 
ATOM      8  C   UNL     1       1.837   7.704  20.165  0.00  0.00    +0.000 A 
ATOM      9  C   UNL     1       1.888   8.330  18.926  0.00  0.00    +0.000 A 
ATOM     10  I   UNL     1       1.502  10.366  18.778  0.00  0.00    +0.000 I 
ATOM     11  C   UNL     1       2.204   7.592  17.789  0.00  0.00    +0.000 A 
ATOM     12  C   UNL     1       2.491   6.225  17.899  0.00  0.00    +0.000 A 
ENDBRANCH   1   6
BRANCH   1  13
ATOM     13  C   UNL     1       4.202   3.797  18.555  0.00  0.00    +0.000 C 
ATOM     14  O   UNL     1       4.309   3.385  17.409  0.00  0.00    +0.000 OA
BRANCH  13  15
ATOM     15  O   UNL     1       5.254   3.982  19.406  0.00  0.00    +0.000 OA
BRANCH  15  16
ATOM     16  C   UNL     1       5.996   5.202  19.217  0.00  0.00    +0.000 C 
BRANCH  16  17
ATOM     17  C   UNL     1       7.359   4.987  18.543  0.00  0.00    +0.000 C 
BRANCH  17  18
ATOM     18  N   UNL     1       7.491   5.612  17.208  0.00  0.00    +0.000 NA
BRANCH  18  20
ATOM     19  C   UNL     1       6.196   5.269  15.062  0.00  0.00    +0.000 C 
ATOM     20  C   UNL     1       7.040   4.657  16.177  0.00  0.00    +0.000 C 
ENDBRANCH  18  20
BRANCH  18  21
ATOM     21  C   UNL     1       6.890   6.948  17.099  0.00  0.00    +0.000 C 
ATOM     22  C   UNL     1       7.750   8.108  17.590  0.00  0.00    +0.000 C 
ENDBRANCH  18  21
ENDBRANCH  17  18
ENDBRANCH  16  17
ENDBRANCH  15  16
ENDBRANCH  13  15
ENDBRANCH   1  13
TORSDOF 8
ENDMDL
MODEL 3
REMARK VINA RESULT:      -6.8      1.043      1.233
REMARK  Name = 
REMARK  10 active torsions:
REMARK  status: ('A' for Active; 'I' for Inactive)
REMARK    1  A    between atoms: C_1  and  C_2
REMARK    2  A    between atoms: C_2  and  N_3
REMARK    3  A    between atoms: N_3  and  C_4
REMARK    4  A    between atoms: N_3  and  C_6
REMARK    5  A    between atoms: C_4  and  C_5
REMARK    6  A    between atoms: C_6  and  C_7
REMARK    7  A    between atoms: C_7  and  O_8
REMARK    8  A    between atoms: O_8  and  C_9
REMARK    9  A    between atoms: C_9  and  C_11
REMARK   10  A    between atoms: C_11  and  C_12
REMARK                            x       y       z     vdW  Elec       q    Type
REMARK                         _______ _______ _______ _____ _____    ______ ____
ROOT
ATOM      1  C   UNL     1       3.019   3.714  19.471  0.00  0.00    +0.000 C 
ATOM      2  C   UNL     1       2.438   2.715  18.437  0.00  0.00    +0.000 C 
ATOM      3  C   UNL     1       0.972   2.542  18.806  0.00  0.00    +0.000 C 
ATOM      4  C   UNL     1       0.907   2.758  20.314  0.00  0.00    +0.000 C 
ATOM      5  C   UNL     1       2.312   3.177  20.745  0.00  0.00    +0.000 C 
ENDROOT
BRANCH   1   6
ATOM      6  C   UNL     1       2.697   5.197  19.225  0.00  0.00    +0.000 A 
ATOM      7  C   UNL     1       2.640   5.760  17.938  0.00  0.00    +0.000 A 
ATOM      8  C   UNL     1       2.275   7.096  17.738  0.00  0.00    +0.000 A 
ATOM      9  C   UNL     1       1.977   7.905  18.827  0.00  0.00    +0.000 A 
ATOM     10  I   UNL     1       1.406   9.878  18.524  0.00  0.00    +0.000 I 
ATOM     11  C   UNL     1       2.055   7.387  20.117  0.00  0.00    +0.000 A 
ATOM     12  C   UNL     1       2.414   6.046  20.312  0.00  0.00    +0.000 A 
ENDBRANCH   1   6
BRANCH   1  13
ATOM     13  C   UNL     1       4.532   3.455  19.517  0.00  0.00    +0.000 C 
ATOM     14  O   UNL     1       5.047   2.518  20.112  0.00  0.00    +0.000 OA
BRANCH  13  15
ATOM     15  O   UNL     1       5.233   4.437  18.879  0.00  0.00    +0.000 OA
BRANCH  15  16
ATOM     16  C   UNL     1       5.970   4.017  17.714  0.00  0.00    +0.000 C 
BRANCH  16  17
ATOM     17  C   UNL     1       7.309   4.750  17.545  0.00  0.00    +0.000 C 
BRANCH  17  18
ATOM     18  N   UNL     1       7.292   5.838  16.542  0.00  0.00    +0.000 NA
BRANCH  18  20
ATOM     19  C   UNL     1       5.192   6.716  15.437  0.00  0.00    +0.000 C 
ATOM     20  C   UNL     1       6.211   5.587  15.569  0.00  0.00    +0.000 C 
ENDBRANCH  18  20
BRANCH  18  21
ATOM     21  C   UNL     1       7.289   7.191  17.113  0.00  0.00    +0.000 C 
ATOM     22  C   UNL     1       8.090   7.375  18.398  0.00  0.00    +0.000 C 
ENDBRANCH  18  21
ENDBRANCH  17  18
ENDBRANCH  16  17
ENDBRANCH  15  16
ENDBRANCH  13  15
ENDBRANCH   1  13
TORSDOF 8
ENDMDL
MODEL 4
REMARK VINA RESULT:      -6.7      0.577      1.910
REMARK  Name = 
REMARK  10 active torsions:
REMARK  status: ('A' for Active; 'I' for Inactive)
REMARK    1  A    between atoms: C_1  and  C_2
REMARK    2  A    between atoms: C_2  and  N_3
REMARK    3  A    between atoms: N_3  and  C_4
REMARK    4  A    between atoms: N_3  and  C_6
REMARK    5  A    between atoms: C_4  and  C_5
REMARK    6  A    between atoms: C_6  and  C_7
REMARK    7  A    between atoms: C_7  and  O_8
REMARK    8  A    between atoms: O_8  and  C_9
REMARK    9  A    between atoms: C_9  and  C_11
REMARK   10  A    between atoms: C_11  and  C_12
REMARK                            x       y       z     vdW  Elec       q    Type
REMARK                         _______ _______ _______ _____ _____    ______ ____
ROOT
ATOM      1  C   UNL     1       2.828   3.880  19.231  0.00  0.00    +0.000 C 
ATOM      2  C   UNL     1       1.824   2.887  18.589  0.00  0.00    +0.000 C 
ATOM      3  C   UNL     1       0.673   2.766  19.576  0.00  0.00    +0.000 C 
ATOM      4  C   UNL     1       1.291   3.003  20.949  0.00  0.00    +0.000 C 
ATOM      5  C   UNL     1       2.750   3.383  20.699  0.00  0.00    +0.000 C 
ENDROOT
BRANCH   1   6
ATOM      6  C   UNL     1       2.464   5.370  19.116  0.00  0.00    +0.000 A 
ATOM      7  C   UNL     1       2.124   6.158  20.229  0.00  0.00    +0.000 A 
ATOM      8  C   UNL     1       1.866   7.527  20.106  0.00  0.00    +0.000 A 
ATOM      9  C   UNL     1       1.924   8.136  18.859  0.00  0.00    +0.000 A 
ATOM     10  I   UNL     1       1.571  10.175  18.685  0.00  0.00    +0.000 I 
ATOM     11  C   UNL     1       2.227   7.377  17.732  0.00  0.00    +0.000 A 
ATOM     12  C   UNL     1       2.491   6.007  17.860  0.00  0.00    +0.000 A 
ENDBRANCH   1   6
BRANCH   1  13
ATOM     13  C   UNL     1       4.197   3.573  18.605  0.00  0.00    +0.000 C 
ATOM     14  O   UNL     1       4.346   3.097  17.489  0.00  0.00    +0.000 OA
BRANCH  13  15
ATOM     15  O   UNL     1       5.218   3.825  19.475  0.00  0.00    +0.000 OA
BRANCH  15  16
ATOM     16  C   UNL     1       5.831   5.123  19.352  0.00  0.00    +0.000 C 
BRANCH  16  17
ATOM     17  C   UNL     1       6.958   5.167  18.309  0.00  0.00    +0.000 C 
BRANCH  17  18
ATOM     18  N   UNL     1       6.638   5.942  17.090  0.00  0.00    +0.000 NA
BRANCH  18  20
ATOM     19  C   UNL     1       8.201   7.463  18.372  0.00  0.00    +0.000 C 
ATOM     20  C   UNL     1       7.264   7.275  17.182  0.00  0.00    +0.000 C 
ENDBRANCH  18  20
BRANCH  18  21
ATOM     21  C   UNL     1       6.906   5.234  15.831  0.00  0.00    +0.000 C 
ATOM     22  C   UNL     1       5.712   5.054  14.899  0.00  0.00    +0.000 C 
ENDBRANCH  18  21
ENDBRANCH  17  18
ENDBRANCH  16  17
ENDBRANCH  15  16
ENDBRANCH  13  15
ENDBRANCH   1  13
TORSDOF 8
ENDMDL
MODEL 5
REMARK VINA RESULT:      -6.7      0.401      1.551
REMARK  Name = 
REMARK  10 active torsions:
REMARK  status: ('A' for Active; 'I' for Inactive)
REMARK    1  A    between atoms: C_1  and  C_2
REMARK    2  A    between atoms: C_2  and  N_3
REMARK    3  A    between atoms: N_3  and  C_4
REMARK    4  A    between atoms: N_3  and  C_6
REMARK    5  A    between atoms: C_4  and  C_5
REMARK    6  A    between atoms: C_6  and  C_7
REMARK    7  A    between atoms: C_7  and  O_8
REMARK    8  A    between atoms: O_8  and  C_9
REMARK    9  A    between atoms: C_9  and  C_11
REMARK   10  A    between atoms: C_11  and  C_12
REMARK                            x       y       z     vdW  Elec       q    Type
REMARK                         _______ _______ _______ _____ _____    ______ ____
ROOT
ATOM      1  C   UNL     1       2.842   3.965  19.144  0.00  0.00    +0.000 C 
ATOM      2  C   UNL     1       1.803   3.033  18.470  0.00  0.00    +0.000 C 
ATOM      3  C   UNL     1       0.656   2.906  19.462  0.00  0.00    +0.000 C 
ATOM      4  C   UNL     1       1.293   3.064  20.838  0.00  0.00    +0.000 C 
ATOM      5  C   UNL     1       2.761   3.408  20.591  0.00  0.00    +0.000 C 
ENDROOT
BRANCH   1   6
ATOM      6  C   UNL     1       2.525   5.469  19.097  0.00  0.00    +0.000 A 
ATOM      7  C   UNL     1       2.583   6.221  17.910  0.00  0.00    +0.000 A 
ATOM      8  C   UNL     1       2.221   7.573  17.881  0.00  0.00    +0.000 A 
ATOM      9  C   UNL     1       1.811   8.207  19.047  0.00  0.00    +0.000 A 
ATOM     10  I   UNL     1       1.245  10.204  18.993  0.00  0.00    +0.000 I 
ATOM     11  C   UNL     1       1.773   7.498  20.244  0.00  0.00    +0.000 A 
ATOM     12  C   UNL     1       2.129   6.143  20.268  0.00  0.00    +0.000 A 
ENDBRANCH   1   6
BRANCH   1  13
ATOM     13  C   UNL     1       4.196   3.643  18.493  0.00  0.00    +0.000 C 
ATOM     14  O   UNL     1       4.322   3.231  17.348  0.00  0.00    +0.000 OA
BRANCH  13  15
ATOM     15  O   UNL     1       5.229   3.799  19.371  0.00  0.00    +0.000 OA
BRANCH  15  16
ATOM     16  C   UNL     1       5.811   5.116  19.416  0.00  0.00    +0.000 C 
BRANCH  16  17
ATOM     17  C   UNL     1       7.043   5.267  18.511  0.00  0.00    +0.000 C 
BRANCH  17  18
ATOM     18  N   UNL     1       6.739   5.671  17.120  0.00  0.00    +0.000 NA
BRANCH  18  20
ATOM     19  C   UNL     1       8.022   7.645  18.045  0.00  0.00    +0.000 C 
ATOM     20  C   UNL     1       7.197   7.057  16.905  0.00  0.00    +0.000 C 
ENDBRANCH  18  20
BRANCH  18  21
ATOM     21  C   UNL     1       7.193   4.719  16.098  0.00  0.00    +0.000 C 
ATOM     22  C   UNL     1       6.564   4.874  14.716  0.00  0.00    +0.000 C 
ENDBRANCH  18  21
ENDBRANCH  17  18
ENDBRANCH  16  17
ENDBRANCH  15  16
ENDBRANCH  13  15
ENDBRANCH   1  13
TORSDOF 8
ENDMDL
MODEL 6
REMARK VINA RESULT:      -6.7      3.396      5.613
REMARK  Name = 
REMARK  10 active torsions:
REMARK  status: ('A' for Active; 'I' for Inactive)
REMARK    1  A    between atoms: C_1  and  C_2
REMARK    2  A    between atoms: C_2  and  N_3
REMARK    3  A    between atoms: N_3  and  C_4
REMARK    4  A    between atoms: N_3  and  C_6
REMARK    5  A    between atoms: C_4  and  C_5
REMARK    6  A    between atoms: C_6  and  C_7
REMARK    7  A    between atoms: C_7  and  O_8
REMARK    8  A    between atoms: O_8  and  C_9
REMARK    9  A    between atoms: C_9  and  C_11
REMARK   10  A    between atoms: C_11  and  C_12
REMARK                            x       y       z     vdW  Elec       q    Type
REMARK                         _______ _______ _______ _____ _____    ______ ____
ROOT
ATOM      1  C   UNL     1       6.196   5.602  16.949  0.00  0.00    +0.000 C 
ATOM      2  C   UNL     1       7.404   4.632  16.884  0.00  0.00    +0.000 C 
ATOM      3  C   UNL     1       8.053   4.687  18.259  0.00  0.00    +0.000 C 
ATOM      4  C   UNL     1       7.770   6.091  18.784  0.00  0.00    +0.000 C 
ATOM      5  C   UNL     1       6.856   6.754  17.754  0.00  0.00    +0.000 C 
ENDROOT
BRANCH   1   6
ATOM      6  C   UNL     1       4.941   5.064  17.654  0.00  0.00    +0.000 A 
ATOM      7  C   UNL     1       4.422   3.781  17.408  0.00  0.00    +0.000 A 
ATOM      8  C   UNL     1       3.319   3.288  18.115  0.00  0.00    +0.000 A 
ATOM      9  C   UNL     1       2.699   4.080  19.073  0.00  0.00    +0.000 A 
ATOM     10  I   UNL     1       1.082   3.334  20.142  0.00  0.00    +0.000 I 
ATOM     11  C   UNL     1       3.168   5.367  19.317  0.00  0.00    +0.000 A 
ATOM     12  C   UNL     1       4.277   5.854  18.613  0.00  0.00    +0.000 A 
ENDBRANCH   1   6
BRANCH   1  13
ATOM     13  C   UNL     1       5.906   6.024  15.500  0.00  0.00    +0.000 C 
ATOM     14  O   UNL     1       4.995   6.774  15.177  0.00  0.00    +0.000 OA
BRANCH  13  15
ATOM     15  O   UNL     1       6.737   5.400  14.616  0.00  0.00    +0.000 OA
BRANCH  15  16
ATOM     16  C   UNL     1       6.156   4.299  13.890  0.00  0.00    +0.000 C 
BRANCH  16  17
ATOM     17  C   UNL     1       6.992   3.861  12.678  0.00  0.00    +0.000 C 
BRANCH  17  18
ATOM     18  N   UNL     1       6.214   3.226  11.592  0.00  0.00    +0.000 NA
BRANCH  18  20
ATOM     19  C   UNL     1       6.143   0.723  11.231  0.00  0.00    +0.000 C 
ATOM     20  C   UNL     1       6.930   2.025  11.118  0.00  0.00    +0.000 C 
ENDBRANCH  18  20
BRANCH  18  21
ATOM     21  C   UNL     1       4.798   2.999  11.909  0.00  0.00    +0.000 C 
ATOM     22  C   UNL     1       3.799   3.413  10.833  0.00  0.00    +0.000 C 
ENDBRANCH  18  21
ENDBRANCH  17  18
ENDBRANCH  16  17
ENDBRANCH  15  16
ENDBRANCH  13  15
ENDBRANCH   1  13
TORSDOF 8
ENDMDL
MODEL 7
REMARK VINA RESULT:      -6.6      1.744      2.987
REMARK  Name = 
REMARK  10 active torsions:
REMARK  status: ('A' for Active; 'I' for Inactive)
REMARK    1  A    between atoms: C_1  and  C_2
REMARK    2  A    between atoms: C_2  and  N_3
REMARK    3  A    between atoms: N_3  and  C_4
REMARK    4  A    between atoms: N_3  and  C_6
REMARK    5  A    between atoms: C_4  and  C_5
REMARK    6  A    between atoms: C_6  and  C_7
REMARK    7  A    between atoms: C_7  and  O_8
REMARK    8  A    between atoms: O_8  and  C_9
REMARK    9  A    between atoms: C_9  and  C_11
REMARK   10  A    between atoms: C_11  and  C_12
REMARK                            x       y       z     vdW  Elec       q    Type
REMARK                         _______ _______ _______ _____ _____    ______ ____
ROOT
ATOM      1  C   UNL     1       3.104   5.189  18.734  0.00  0.00    +0.000 C 
ATOM      2  C   UNL     1       2.433   4.280  17.673  0.00  0.00    +0.000 C 
ATOM      3  C   UNL     1       1.197   3.701  18.345  0.00  0.00    +0.000 C 
ATOM      4  C   UNL     1       1.542   3.625  19.828  0.00  0.00    +0.000 C 
ATOM      5  C   UNL     1       2.912   4.284  19.981  0.00  0.00    +0.000 C 
ENDROOT
BRANCH   1   6
ATOM      6  C   UNL     1       2.463   6.572  18.934  0.00  0.00    +0.000 A 
ATOM      7  C   UNL     1       2.038   7.040  20.190  0.00  0.00    +0.000 A 
ATOM      8  C   UNL     1       1.523   8.330  20.356  0.00  0.00    +0.000 A 
ATOM      9  C   UNL     1       1.405   9.177  19.261  0.00  0.00    +0.000 A 
ATOM     10  I   UNL     1       0.670  11.102  19.517  0.00  0.00    +0.000 I 
ATOM     11  C   UNL     1       1.788   8.733  17.999  0.00  0.00    +0.000 A 
ATOM     12  C   UNL     1       2.309   7.443  17.838  0.00  0.00    +0.000 A 
ENDBRANCH   1   6
BRANCH   1  13
ATOM     13  C   UNL     1       4.584   5.293  18.338  0.00  0.00    +0.000 C 
ATOM     14  O   UNL     1       5.496   5.456  19.137  0.00  0.00    +0.000 OA
BRANCH  13  15
ATOM     15  O   UNL     1       4.748   5.259  16.983  0.00  0.00    +0.000 OA
BRANCH  15  16
ATOM     16  C   UNL     1       5.995   4.702  16.523  0.00  0.00    +0.000 C 
BRANCH  16  17
ATOM     17  C   UNL     1       5.826   3.714  15.360  0.00  0.00    +0.000 C 
BRANCH  17  18
ATOM     18  N   UNL     1       6.107   4.282  14.023  0.00  0.00    +0.000 NA
BRANCH  18  20
ATOM     19  C   UNL     1       7.923   5.463  12.716  0.00  0.00    +0.000 C 
ATOM     20  C   UNL     1       7.364   5.053  14.076  0.00  0.00    +0.000 C 
ENDBRANCH  18  20
BRANCH  18  21
ATOM     21  C   UNL     1       6.039   3.312  12.923  0.00  0.00    +0.000 C 
ATOM     22  C   UNL     1       4.847   3.454  11.981  0.00  0.00    +0.000 C 
ENDBRANCH  18  21
ENDBRANCH  17  18
ENDBRANCH  16  17
ENDBRANCH  15  16
ENDBRANCH  13  15
ENDBRANCH   1  13
TORSDOF 8
ENDMDL
MODEL 8
REMARK VINA RESULT:      -6.6      0.868      1.599
REMARK  Name = 
REMARK  10 active torsions:
REMARK  status: ('A' for Active; 'I' for Inactive)
REMARK    1  A    between atoms: C_1  and  C_2
REMARK    2  A    between atoms: C_2  and  N_3
REMARK    3  A    between atoms: N_3  and  C_4
REMARK    4  A    between atoms: N_3  and  C_6
REMARK    5  A    between atoms: C_4  and  C_5
REMARK    6  A    between atoms: C_6  and  C_7
REMARK    7  A    between atoms: C_7  and  O_8
REMARK    8  A    between atoms: O_8  and  C_9
REMARK    9  A    between atoms: C_9  and  C_11
REMARK   10  A    between atoms: C_11  and  C_12
REMARK                            x       y       z     vdW  Elec       q    Type
REMARK                         _______ _______ _______ _____ _____    ______ ____
ROOT
ATOM      1  C   UNL     1       2.746   4.099  19.276  0.00  0.00    +0.000 C 
ATOM      2  C   UNL     1       1.784   3.177  18.482  0.00  0.00    +0.000 C 
ATOM      3  C   UNL     1       0.548   3.020  19.355  0.00  0.00    +0.000 C 
ATOM      4  C   UNL     1       1.047   3.149  20.790  0.00  0.00    +0.000 C 
ATOM      5  C   UNL     1       2.529   3.507  20.695  0.00  0.00    +0.000 C 
ENDROOT
BRANCH   1   6
ATOM      6  C   UNL     1       2.423   5.601  19.232  0.00  0.00    +0.000 A 
ATOM      7  C   UNL     1       2.448   6.351  18.043  0.00  0.00    +0.000 A 
ATOM      8  C   UNL     1       2.082   7.701  18.019  0.00  0.00    +0.000 A 
ATOM      9  C   UNL     1       1.699   8.337  19.193  0.00  0.00    +0.000 A 
ATOM     10  I   UNL     1       1.126  10.332  19.150  0.00  0.00    +0.000 I 
ATOM     11  C   UNL     1       1.694   7.631  20.394  0.00  0.00    +0.000 A 
ATOM     12  C   UNL     1       2.055   6.278  20.412  0.00  0.00    +0.000 A 
ENDBRANCH   1   6
BRANCH   1  13
ATOM     13  C   UNL     1       4.159   3.799  18.752  0.00  0.00    +0.000 C 
ATOM     14  O   UNL     1       5.142   3.682  19.469  0.00  0.00    +0.000 OA
BRANCH  13  15
ATOM     15  O   UNL     1       4.193   3.756  17.387  0.00  0.00    +0.000 OA
BRANCH  15  16
ATOM     16  C   UNL     1       5.429   3.289  16.813  0.00  0.00    +0.000 C 
BRANCH  16  17
ATOM     17  C   UNL     1       6.091   4.313  15.880  0.00  0.00    +0.000 C 
BRANCH  17  18
ATOM     18  N   UNL     1       6.944   5.309  16.566  0.00  0.00    +0.000 NA
BRANCH  18  20
ATOM     19  C   UNL     1       5.069   6.827  15.802  0.00  0.00    +0.000 C 
ATOM     20  C   UNL     1       6.151   6.525  16.835  0.00  0.00    +0.000 C 
ENDBRANCH  18  20
BRANCH  18  21
ATOM     21  C   UNL     1       7.668   4.790  17.733  0.00  0.00    +0.000 C 
ATOM     22  C   UNL     1       7.822   5.753  18.906  0.00  0.00    +0.000 C 
ENDBRANCH  18  21
ENDBRANCH  17  18
ENDBRANCH  16  17
ENDBRANCH  15  16
ENDBRANCH  13  15
ENDBRANCH   1  13
TORSDOF 8
ENDMDL
MODEL 9
REMARK VINA RESULT:      -6.6      3.221      5.496
REMARK  Name = 
REMARK  10 active torsions:
REMARK  status: ('A' for Active; 'I' for Inactive)
REMARK    1  A    between atoms: C_1  and  C_2
REMARK    2  A    between atoms: C_2  and  N_3
REMARK    3  A    between atoms: N_3  and  C_4
REMARK    4  A    between atoms: N_3  and  C_6
REMARK    5  A    between atoms: C_4  and  C_5
REMARK    6  A    between atoms: C_6  and  C_7
REMARK    7  A    between atoms: C_7  and  O_8
REMARK    8  A    between atoms: O_8  and  C_9
REMARK    9  A    between atoms: C_9  and  C_11
REMARK   10  A    between atoms: C_11  and  C_12
REMARK                            x       y       z     vdW  Elec       q    Type
REMARK                         _______ _______ _______ _____ _____    ______ ____
ROOT
ATOM      1  C   UNL     1       6.203   5.572  17.296  0.00  0.00    +0.000 C 
ATOM      2  C   UNL     1       5.763   6.443  16.091  0.00  0.00    +0.000 C 
ATOM      3  C   UNL     1       5.397   5.464  14.985  0.00  0.00    +0.000 C 
ATOM      4  C   UNL     1       6.276   4.241  15.221  0.00  0.00    +0.000 C 
ATOM      5  C   UNL     1       7.021   4.499  16.530  0.00  0.00    +0.000 C 
ENDROOT
BRANCH   1   6
ATOM      6  C   UNL     1       5.067   4.940  18.117  0.00  0.00    +0.000 A 
ATOM      7  C   UNL     1       5.184   3.683  18.735  0.00  0.00    +0.000 A 
ATOM      8  C   UNL     1       4.162   3.162  19.536  0.00  0.00    +0.000 A 
ATOM      9  C   UNL     1       2.989   3.882  19.720  0.00  0.00    +0.000 A 
ATOM     10  I   UNL     1       1.486   3.120  20.935  0.00  0.00    +0.000 I 
ATOM     11  C   UNL     1       2.829   5.117  19.097  0.00  0.00    +0.000 A 
ATOM     12  C   UNL     1       3.858   5.638  18.302  0.00  0.00    +0.000 A 
ENDBRANCH   1   6
BRANCH   1  13
ATOM     13  C   UNL     1       7.111   6.461  18.160  0.00  0.00    +0.000 C 
ATOM     14  O   UNL     1       7.626   6.097  19.207  0.00  0.00    +0.000 OA
BRANCH  13  15
ATOM     15  O   UNL     1       7.208   7.726  17.655  0.00  0.00    +0.000 OA
BRANCH  15  16
ATOM     16  C   UNL     1       8.429   8.425  17.966  0.00  0.00    +0.000 C 
BRANCH  16  17
ATOM     17  C   UNL     1       8.220   9.922  18.236  0.00  0.00    +0.000 C 
BRANCH  17  18
ATOM     18  N   UNL     1       9.419  10.631  18.736  0.00  0.00    +0.000 NA
BRANCH  18  20
ATOM     19  C   UNL     1       8.490  12.695  17.606  0.00  0.00    +0.000 C 
ATOM     20  C   UNL     1       9.693  11.794  17.870  0.00  0.00    +0.000 C 
ENDBRANCH  18  20
BRANCH  18  21
ATOM     21  C   UNL     1       9.390  10.939  20.171  0.00  0.00    +0.000 C 
ATOM     22  C   UNL     1      10.494  11.862  20.679  0.00  0.00    +0.000 C 
ENDBRANCH  18  21
ENDBRANCH  17  18
ENDBRANCH  16  17
ENDBRANCH  15  16
ENDBRANCH  13  15
ENDBRANCH   1  13
TORSDOF 8
ENDMDL
