MODEL 1
REMARK VINA RESULT:      -9.5      0.000      0.000
REMARK  Name = 
REMARK  3 active torsions:
REMARK  status: ('A' for Active; 'I' for Inactive)
REMARK    1  A    between atoms: C_5  and  N_6
REMARK    2  A    between atoms: C_8  and  C_9
REMARK    3  A    between atoms: C_9  and  N_10
REMARK                            x       y       z     vdW  Elec       q    Type
REMARK                         _______ _______ _______ _____ _____    ______ ____
ROOT
ATOM      1  N   UNL     1       6.115   5.252  17.280  0.00  0.00    +0.000 N 
ATOM      2  C   UNL     1       5.994   5.297  15.917  0.00  0.00    +0.000 A 
ATOM      3  C   UNL     1       6.852   5.857  14.968  0.00  0.00    +0.000 A 
ATOM      4  C   UNL     1       7.351   4.838  14.174  0.00  0.00    +0.000 A 
ATOM      5  C   UNL     1       6.504   3.807  13.776  0.00  0.00    +0.000 A 
ATOM      6  C   UNL     1       5.242   3.630  14.386  0.00  0.00    +0.000 A 
ATOM      7  C   UNL     1       5.067   4.286  15.620  0.00  0.00    +0.000 A 
ATOM      8  C   UNL     1       4.205   4.209  16.777  0.00  0.00    +0.000 A 
ATOM      9  N   UNL     1       3.007   3.627  17.041  0.00  0.00    +0.000 NA
ATOM     10  C   UNL     1       2.570   3.811  18.330  0.00  0.00    +0.000 A 
ATOM     11  C   UNL     1       1.304   3.408  18.727  0.00  0.00    +0.000 A 
ATOM     12  C   UNL     1       0.823   3.600  20.034  0.00  0.00    +0.000 A 
ATOM     13  C   UNL     1       1.642   4.187  20.988  0.00  0.00    +0.000 A 
ATOM     14  C   UNL     1       2.917   4.593  20.626  0.00  0.00    +0.000 A 
ATOM     15  C   UNL     1       3.381   4.431  19.327  0.00  0.00    +0.000 A 
ATOM     16  N   UNL     1       4.592   4.899  19.090  0.00  0.00    +0.000 NA
ATOM     17  C   UNL     1       4.937   4.813  17.798  0.00  0.00    +0.000 A 
ENDROOT
BRANCH   1  18
ATOM     18  C   UNL     1       7.318   5.558  18.027  0.00  0.00    +0.000 C 
BRANCH  18  21
ATOM     19  N   UNL     1       8.334   9.066  18.263  0.00  0.00    +0.000 N 
ATOM     20  C   UNL     1       8.571   7.759  18.625  0.00  0.00    +0.000 A 
ATOM     21  C   UNL     1       7.626   7.017  17.948  0.00  0.00    +0.000 A 
ATOM     22  N   UNL     1       6.897   7.861  17.155  0.00  0.00    +0.000 NA
ATOM     23  N   UNL     1       7.339   9.097  17.343  0.00  0.00    +0.000 NA
BRANCH  19  28
ATOM     24  F   UNL     1      10.770  13.667  20.202  0.00  0.00    +0.000 F 
ATOM     25  C   UNL     1      10.180  12.558  19.735  0.00  0.00    +0.000 A 
ATOM     26  C   UNL     1       9.755  12.516  18.412  0.00  0.00    +0.000 A 
ATOM     27  C   UNL     1       9.140  11.363  17.918  0.00  0.00    +0.000 A 
ATOM     28  C   UNL     1       8.946  10.253  18.756  0.00  0.00    +0.000 A 
ATOM     29  C   UNL     1       9.383  10.311  20.092  0.00  0.00    +0.000 A 
ATOM     30  C   UNL     1      10.003  11.467  20.577  0.00  0.00    +0.000 A 
ENDBRANCH  19  28
ENDBRANCH  18  21
ENDBRANCH   1  18
TORSDOF 3
ENDMDL
MODEL 2
REMARK VINA RESULT:      -9.5      7.764     10.417
REMARK  Name = 
REMARK  3 active torsions:
REMARK  status: ('A' for Active; 'I' for Inactive)
REMARK    1  A    between atoms: C_5  and  N_6
REMARK    2  A    between atoms: C_8  and  C_9
REMARK    3  A    between atoms: C_9  and  N_10
REMARK                            x       y       z     vdW  Elec       q    Type
REMARK                         _______ _______ _______ _____ _____    ______ ____
ROOT
ATOM      1  N   UNL     1       1.151   9.917  19.637  0.00  0.00    +0.000 N 
ATOM      2  C   UNL     1       0.964  10.287  20.942  0.00  0.00    +0.000 A 
ATOM      3  C   UNL     1       0.717  11.553  21.479  0.00  0.00    +0.000 A 
ATOM      4  C   UNL     1      -0.546  11.548  22.047  0.00  0.00    +0.000 A 
ATOM      5  C   UNL     1      -0.967  10.430  22.762  0.00  0.00    +0.000 A 
ATOM      6  C   UNL     1      -0.259   9.210  22.683  0.00  0.00    +0.000 A 
ATOM      7  C   UNL     1       0.625   9.091  21.594  0.00  0.00    +0.000 A 
ATOM      8  C   UNL     1       1.302   8.051  20.854  0.00  0.00    +0.000 A 
ATOM      9  N   UNL     1       1.579   6.741  21.081  0.00  0.00    +0.000 NA
ATOM     10  C   UNL     1       2.249   6.126  20.051  0.00  0.00    +0.000 A 
ATOM     11  C   UNL     1       2.735   4.834  20.176  0.00  0.00    +0.000 A 
ATOM     12  C   UNL     1       3.440   4.187  19.147  0.00  0.00    +0.000 A 
ATOM     13  C   UNL     1       3.645   4.839  17.939  0.00  0.00    +0.000 A 
ATOM     14  C   UNL     1       3.163   6.129  17.778  0.00  0.00    +0.000 A 
ATOM     15  C   UNL     1       2.493   6.779  18.806  0.00  0.00    +0.000 A 
ATOM     16  N   UNL     1       2.125   8.021  18.552  0.00  0.00    +0.000 NA
ATOM     17  C   UNL     1       1.584   8.629  19.618  0.00  0.00    +0.000 A 
ENDROOT
BRANCH   1  18
ATOM     18  C   UNL     1       0.870  10.744  18.481  0.00  0.00    +0.000 C 
BRANCH  18  21
ATOM     19  N   UNL     1      -2.753  11.165  18.169  0.00  0.00    +0.000 N 
ATOM     20  C   UNL     1      -1.551  11.690  18.592  0.00  0.00    +0.000 A 
ATOM     21  C   UNL     1      -0.596  10.774  18.203  0.00  0.00    +0.000 A 
ATOM     22  N   UNL     1      -1.215   9.770  17.507  0.00  0.00    +0.000 NA
ATOM     23  N   UNL     1      -2.517  10.020  17.482  0.00  0.00    +0.000 NA
BRANCH  19  28
ATOM     24  F   UNL     1      -7.915  12.986  19.110  0.00  0.00    +0.000 F 
ATOM     25  C   UNL     1      -6.670  12.549  18.882  0.00  0.00    +0.000 A 
ATOM     26  C   UNL     1      -5.659  12.865  19.782  0.00  0.00    +0.000 A 
ATOM     27  C   UNL     1      -4.357  12.412  19.551  0.00  0.00    +0.000 A 
ATOM     28  C   UNL     1      -4.070  11.646  18.410  0.00  0.00    +0.000 A 
ATOM     29  C   UNL     1      -5.104  11.333  17.509  0.00  0.00    +0.000 A 
ATOM     30  C   UNL     1      -6.405  11.786  17.751  0.00  0.00    +0.000 A 
ENDBRANCH  19  28
ENDBRANCH  18  21
ENDBRANCH   1  18
TORSDOF 3
ENDMDL
MODEL 3
REMARK VINA RESULT:      -9.3      8.087     10.669
REMARK  Name = 
REMARK  3 active torsions:
REMARK  status: ('A' for Active; 'I' for Inactive)
REMARK    1  A    between atoms: C_5  and  N_6
REMARK    2  A    between atoms: C_8  and  C_9
REMARK    3  A    between atoms: C_9  and  N_10
REMARK                            x       y       z     vdW  Elec       q    Type
REMARK                         _______ _______ _______ _____ _____    ______ ____
ROOT
ATOM      1  N   UNL     1      -1.007  11.919  20.711  0.00  0.00    +0.000 N 
ATOM      2  C   UNL     1      -1.820  12.231  21.767  0.00  0.00    +0.000 A 
ATOM      3  C   UNL     1      -1.507  12.348  23.123  0.00  0.00    +0.000 A 
ATOM      4  C   UNL     1      -1.705  13.664  23.507  0.00  0.00    +0.000 A 
ATOM      5  C   UNL     1      -2.809  14.357  23.018  0.00  0.00    +0.000 A 
ATOM      6  C   UNL     1      -3.564  13.849  21.937  0.00  0.00    +0.000 A 
ATOM      7  C   UNL     1      -2.933  12.847  21.175  0.00  0.00    +0.000 A 
ATOM      8  C   UNL     1      -3.048  12.245  19.866  0.00  0.00    +0.000 A 
ATOM      9  N   UNL     1      -4.009  12.217  18.907  0.00  0.00    +0.000 NA
ATOM     10  C   UNL     1      -3.654  11.511  17.783  0.00  0.00    +0.000 A 
ATOM     11  C   UNL     1      -4.567  11.261  16.770  0.00  0.00    +0.000 A 
ATOM     12  C   UNL     1      -4.238  10.526  15.618  0.00  0.00    +0.000 A 
ATOM     13  C   UNL     1      -2.946  10.048  15.454  0.00  0.00    +0.000 A 
ATOM     14  C   UNL     1      -2.006  10.289  16.445  0.00  0.00    +0.000 A 
ATOM     15  C   UNL     1      -2.340  10.988  17.597  0.00  0.00    +0.000 A 
ATOM     16  N   UNL     1      -1.375  11.113  18.489  0.00  0.00    +0.000 NA
ATOM     17  C   UNL     1      -1.790  11.699  19.621  0.00  0.00    +0.000 A 
ENDROOT
BRANCH   1  18
ATOM     18  C   UNL     1       0.442  11.894  20.744  0.00  0.00    +0.000 C 
BRANCH  18  21
ATOM     19  N   UNL     1       1.572   8.417  20.570  0.00  0.00    +0.000 N 
ATOM     20  C   UNL     1       1.328   9.597  19.903  0.00  0.00    +0.000 A 
ATOM     21  C   UNL     1       0.938  10.493  20.877  0.00  0.00    +0.000 A 
ATOM     22  N   UNL     1       1.018   9.873  22.095  0.00  0.00    +0.000 NA
ATOM     23  N   UNL     1       1.412   8.621  21.901  0.00  0.00    +0.000 NA
BRANCH  19  28
ATOM     24  F   UNL     1       2.761   3.412  18.476  0.00  0.00    +0.000 F 
ATOM     25  C   UNL     1       2.477   4.619  18.982  0.00  0.00    +0.000 A 
ATOM     26  C   UNL     1       2.809   5.759  18.260  0.00  0.00    +0.000 A 
ATOM     27  C   UNL     1       2.515   7.022  18.781  0.00  0.00    +0.000 A 
ATOM     28  C   UNL     1       1.891   7.139  20.033  0.00  0.00    +0.000 A 
ATOM     29  C   UNL     1       1.559   5.975  20.752  0.00  0.00    +0.000 A 
ATOM     30  C   UNL     1       1.853   4.716  20.220  0.00  0.00    +0.000 A 
ENDBRANCH  19  28
ENDBRANCH  18  21
ENDBRANCH   1  18
TORSDOF 3
ENDMDL
MODEL 4
REMARK VINA RESULT:      -9.1      8.659     11.249
REMARK  Name = 
REMARK  3 active torsions:
REMARK  status: ('A' for Active; 'I' for Inactive)
REMARK    1  A    between atoms: C_5  and  N_6
REMARK    2  A    between atoms: C_8  and  C_9
REMARK    3  A    between atoms: C_9  and  N_10
REMARK                            x       y       z     vdW  Elec       q    Type
REMARK                         _______ _______ _______ _____ _____    ______ ____
ROOT
ATOM      1  N   UNL     1      -2.058  12.319  21.508  0.00  0.00    +0.000 N 
ATOM      2  C   UNL     1      -3.075  12.459  22.414  0.00  0.00    +0.000 A 
ATOM      3  C   UNL     1      -3.019  12.522  23.809  0.00  0.00    +0.000 A 
ATOM      4  C   UNL     1      -3.452  13.776  24.208  0.00  0.00    +0.000 A 
ATOM      5  C   UNL     1      -4.537  14.360  23.560  0.00  0.00    +0.000 A 
ATOM      6  C   UNL     1      -5.020  13.837  22.339  0.00  0.00    +0.000 A 
ATOM      7  C   UNL     1      -4.141  12.972  21.659  0.00  0.00    +0.000 A 
ATOM      8  C   UNL     1      -3.948  12.449  20.326  0.00  0.00    +0.000 A 
ATOM      9  N   UNL     1      -4.717  12.367  19.210  0.00  0.00    +0.000 NA
ATOM     10  C   UNL     1      -4.084  11.787  18.138  0.00  0.00    +0.000 A 
ATOM     11  C   UNL     1      -4.767  11.495  16.968  0.00  0.00    +0.000 A 
ATOM     12  C   UNL     1      -4.150  10.885  15.862  0.00  0.00    +0.000 A 
ATOM     13  C   UNL     1      -2.798  10.580  15.912  0.00  0.00    +0.000 A 
ATOM     14  C   UNL     1      -2.082  10.868  17.065  0.00  0.00    +0.000 A 
ATOM     15  C   UNL     1      -2.699  11.443  18.168  0.00  0.00    +0.000 A 
ATOM     16  N   UNL     1      -1.928  11.625  19.224  0.00  0.00    +0.000 NA
ATOM     17  C   UNL     1      -2.605  12.078  20.288  0.00  0.00    +0.000 A 
ENDROOT
BRANCH   1  18
ATOM     18  C   UNL     1      -0.646  12.469  21.800  0.00  0.00    +0.000 C 
BRANCH  18  21
ATOM     19  N   UNL     1       1.017   9.303  21.024  0.00  0.00    +0.000 N 
ATOM     20  C   UNL     1       0.629  10.552  20.590  0.00  0.00    +0.000 A 
ATOM     21  C   UNL     1       0.054  11.156  21.689  0.00  0.00    +0.000 A 
ATOM     22  N   UNL     1       0.164  10.309  22.758  0.00  0.00    +0.000 NA
ATOM     23  N   UNL     1       0.758   9.195  22.350  0.00  0.00    +0.000 NA
BRANCH  19  28
ATOM     24  F   UNL     1       3.186   5.128  18.072  0.00  0.00    +0.000 F 
ATOM     25  C   UNL     1       2.660   6.134  18.783  0.00  0.00    +0.000 A 
ATOM     26  C   UNL     1       2.220   5.898  20.080  0.00  0.00    +0.000 A 
ATOM     27  C   UNL     1       1.671   6.943  20.828  0.00  0.00    +0.000 A 
ATOM     28  C   UNL     1       1.559   8.226  20.269  0.00  0.00    +0.000 A 
ATOM     29  C   UNL     1       2.011   8.450  18.955  0.00  0.00    +0.000 A 
ATOM     30  C   UNL     1       2.564   7.399  18.216  0.00  0.00    +0.000 A 
ENDBRANCH  19  28
ENDBRANCH  18  21
ENDBRANCH   1  18
TORSDOF 3
ENDMDL
MODEL 5
REMARK VINA RESULT:      -9.0      6.374      8.181
REMARK  Name = 
REMARK  3 active torsions:
REMARK  status: ('A' for Active; 'I' for Inactive)
REMARK    1  A    between atoms: C_5  and  N_6
REMARK    2  A    between atoms: C_8  and  C_9
REMARK    3  A    between atoms: C_9  and  N_10
REMARK                            x       y       z     vdW  Elec       q    Type
REMARK                         _______ _______ _______ _____ _____    ______ ____
ROOT
ATOM      1  N   UNL     1       0.400  11.342  19.902  0.00  0.00    +0.000 N 
ATOM      2  C   UNL     1       0.219  11.592  21.236  0.00  0.00    +0.000 A 
ATOM      3  C   UNL     1      -0.141  12.780  21.876  0.00  0.00    +0.000 A 
ATOM      4  C   UNL     1      -1.377  12.598  22.474  0.00  0.00    +0.000 A 
ATOM      5  C   UNL     1      -1.654  11.391  23.111  0.00  0.00    +0.000 A 
ATOM      6  C   UNL     1      -0.825  10.263  22.919  0.00  0.00    +0.000 A 
ATOM      7  C   UNL     1       0.029  10.321  21.801  0.00  0.00    +0.000 A 
ATOM      8  C   UNL     1       0.786   9.417  20.966  0.00  0.00    +0.000 A 
ATOM      9  N   UNL     1       1.206   8.131  21.083  0.00  0.00    +0.000 NA
ATOM     10  C   UNL     1       1.902   7.671  19.992  0.00  0.00    +0.000 A 
ATOM     11  C   UNL     1       2.525   6.432  20.004  0.00  0.00    +0.000 A 
ATOM     12  C   UNL     1       3.259   5.943  18.910  0.00  0.00    +0.000 A 
ATOM     13  C   UNL     1       3.353   6.701  17.752  0.00  0.00    +0.000 A 
ATOM     14  C   UNL     1       2.734   7.941  17.703  0.00  0.00    +0.000 A 
ATOM     15  C   UNL     1       2.035   8.437  18.795  0.00  0.00    +0.000 A 
ATOM     16  N   UNL     1       1.530   9.647  18.649  0.00  0.00    +0.000 NA
ATOM     17  C   UNL     1       0.965  10.112  19.771  0.00  0.00    +0.000 A 
ENDROOT
BRANCH   1  18
ATOM     18  C   UNL     1      -0.006  12.218  18.821  0.00  0.00    +0.000 C 
BRANCH  18  21
ATOM     19  N   UNL     1       2.720  14.646  18.549  0.00  0.00    +0.000 N 
ATOM     20  C   UNL     1       2.325  13.327  18.494  0.00  0.00    +0.000 A 
ATOM     21  C   UNL     1       0.958  13.349  18.674  0.00  0.00    +0.000 A 
ATOM     22  N   UNL     1       0.551  14.653  18.764  0.00  0.00    +0.000 NA
ATOM     23  N   UNL     1       1.622  15.431  18.676  0.00  0.00    +0.000 NA
BRANCH  19  28
ATOM     24  F   UNL     1       7.863  16.742  18.432  0.00  0.00    +0.000 F 
ATOM     25  C   UNL     1       6.623  16.235  18.463  0.00  0.00    +0.000 A 
ATOM     26  C   UNL     1       5.598  16.972  19.043  0.00  0.00    +0.000 A 
ATOM     27  C   UNL     1       4.302  16.450  19.079  0.00  0.00    +0.000 A 
ATOM     28  C   UNL     1       4.037  15.183  18.534  0.00  0.00    +0.000 A 
ATOM     29  C   UNL     1       5.086  14.450  17.948  0.00  0.00    +0.000 A 
ATOM     30  C   UNL     1       6.378  14.983  17.913  0.00  0.00    +0.000 A 
ENDBRANCH  19  28
ENDBRANCH  18  21
ENDBRANCH   1  18
TORSDOF 3
ENDMDL
MODEL 6
REMARK VINA RESULT:      -8.8      6.832      8.621
REMARK  Name = 
REMARK  3 active torsions:
REMARK  status: ('A' for Active; 'I' for Inactive)
REMARK    1  A    between atoms: C_5  and  N_6
REMARK    2  A    between atoms: C_8  and  C_9
REMARK    3  A    between atoms: C_9  and  N_10
REMARK                            x       y       z     vdW  Elec       q    Type
REMARK                         _______ _______ _______ _____ _____    ______ ____
ROOT
ATOM      1  N   UNL     1       0.172  12.076  20.048  0.00  0.00    +0.000 N 
ATOM      2  C   UNL     1      -0.022  12.293  21.386  0.00  0.00    +0.000 A 
ATOM      3  C   UNL     1      -0.340  13.477  22.056  0.00  0.00    +0.000 A 
ATOM      4  C   UNL     1      -1.594  13.332  22.628  0.00  0.00    +0.000 A 
ATOM      5  C   UNL     1      -1.936  12.120  23.222  0.00  0.00    +0.000 A 
ATOM      6  C   UNL     1      -1.155  10.963  23.010  0.00  0.00    +0.000 A 
ATOM      7  C   UNL     1      -0.278  11.016  21.909  0.00  0.00    +0.000 A 
ATOM      8  C   UNL     1       0.454  10.104  21.060  0.00  0.00    +0.000 A 
ATOM      9  N   UNL     1       0.814   8.798  21.144  0.00  0.00    +0.000 NA
ATOM     10  C   UNL     1       1.509   8.339  20.052  0.00  0.00    +0.000 A 
ATOM     11  C   UNL     1       2.076   7.074  20.036  0.00  0.00    +0.000 A 
ATOM     12  C   UNL     1       2.808   6.586  18.940  0.00  0.00    +0.000 A 
ATOM     13  C   UNL     1       2.957   7.373  17.808  0.00  0.00    +0.000 A 
ATOM     14  C   UNL     1       2.394   8.640  17.787  0.00  0.00    +0.000 A 
ATOM     15  C   UNL     1       1.697   9.134  18.882  0.00  0.00    +0.000 A 
ATOM     16  N   UNL     1       1.249  10.370  18.763  0.00  0.00    +0.000 NA
ATOM     17  C   UNL     1       0.685  10.826  19.890  0.00  0.00    +0.000 A 
ENDROOT
BRANCH   1  18
ATOM     18  C   UNL     1      -0.174  13.001  18.988  0.00  0.00    +0.000 C 
BRANCH  18  21
ATOM     19  N   UNL     1       2.791  15.116  18.626  0.00  0.00    +0.000 N 
ATOM     20  C   UNL     1       2.252  13.849  18.581  0.00  0.00    +0.000 A 
ATOM     21  C   UNL     1       0.903  14.020  18.811  0.00  0.00    +0.000 A 
ATOM     22  N   UNL     1       0.646  15.360  18.920  0.00  0.00    +0.000 NA
ATOM     23  N   UNL     1       1.792  16.016  18.796  0.00  0.00    +0.000 NA
BRANCH  19  28
ATOM     24  F   UNL     1       8.130  16.639  18.451  0.00  0.00    +0.000 F 
ATOM     25  C   UNL     1       6.842  16.273  18.490  0.00  0.00    +0.000 A 
ATOM     26  C   UNL     1       6.461  15.055  17.941  0.00  0.00    +0.000 A 
ATOM     27  C   UNL     1       5.119  14.665  17.980  0.00  0.00    +0.000 A 
ATOM     28  C   UNL     1       4.159  15.505  18.566  0.00  0.00    +0.000 A 
ATOM     29  C   UNL     1       4.561  16.735  19.120  0.00  0.00    +0.000 A 
ATOM     30  C   UNL     1       5.907  17.113  19.081  0.00  0.00    +0.000 A 
ENDBRANCH  19  28
ENDBRANCH  18  21
ENDBRANCH   1  18
TORSDOF 3
ENDMDL
MODEL 7
REMARK VINA RESULT:      -8.7      6.818      9.334
REMARK  Name = 
REMARK  3 active torsions:
REMARK  status: ('A' for Active; 'I' for Inactive)
REMARK    1  A    between atoms: C_5  and  N_6
REMARK    2  A    between atoms: C_8  and  C_9
REMARK    3  A    between atoms: C_9  and  N_10
REMARK                            x       y       z     vdW  Elec       q    Type
REMARK                         _______ _______ _______ _____ _____    ______ ____
ROOT
ATOM      1  N   UNL     1      -0.008  10.665  18.899  0.00  0.00    +0.000 N 
ATOM      2  C   UNL     1      -1.047  10.696  18.008  0.00  0.00    +0.000 A 
ATOM      3  C   UNL     1      -1.677   9.642  17.342  0.00  0.00    +0.000 A 
ATOM      4  C   UNL     1      -2.991   9.573  17.775  0.00  0.00    +0.000 A 
ATOM      5  C   UNL     1      -3.704  10.752  17.976  0.00  0.00    +0.000 A 
ATOM      6  C   UNL     1      -3.044  12.000  18.020  0.00  0.00    +0.000 A 
ATOM      7  C   UNL     1      -1.652  11.943  18.226  0.00  0.00    +0.000 A 
ATOM      8  C   UNL     1      -0.584  12.811  18.668  0.00  0.00    +0.000 A 
ATOM      9  N   UNL     1      -0.441  14.153  18.818  0.00  0.00    +0.000 NA
ATOM     10  C   UNL     1       0.787  14.532  19.303  0.00  0.00    +0.000 A 
ATOM     11  C   UNL     1       1.152  15.868  19.379  0.00  0.00    +0.000 A 
ATOM     12  C   UNL     1       2.407  16.283  19.854  0.00  0.00    +0.000 A 
ATOM     13  C   UNL     1       3.323  15.339  20.294  0.00  0.00    +0.000 A 
ATOM     14  C   UNL     1       2.986  13.995  20.240  0.00  0.00    +0.000 A 
ATOM     15  C   UNL     1       1.757  13.582  19.743  0.00  0.00    +0.000 A 
ATOM     16  N   UNL     1       1.569  12.277  19.695  0.00  0.00    +0.000 NA
ATOM     17  C   UNL     1       0.413  11.941  19.105  0.00  0.00    +0.000 A 
ENDROOT
BRANCH   1  18
ATOM     18  C   UNL     1       0.502   9.477  19.554  0.00  0.00    +0.000 C 
BRANCH  18  21
ATOM     19  N   UNL     1       3.170   7.598  17.897  0.00  0.00    +0.000 N 
ATOM     20  C   UNL     1       2.271   7.672  18.939  0.00  0.00    +0.000 A 
ATOM     21  C   UNL     1       1.541   8.820  18.709  0.00  0.00    +0.000 A 
ATOM     22  N   UNL     1       1.955   9.369  17.525  0.00  0.00    +0.000 NA
ATOM     23  N   UNL     1       2.933   8.618  17.036  0.00  0.00    +0.000 NA
BRANCH  19  28
ATOM     24  F   UNL     1       7.364   4.038  17.132  0.00  0.00    +0.000 F 
ATOM     25  C   UNL     1       6.351   4.895  17.316  0.00  0.00    +0.000 A 
ATOM     26  C   UNL     1       5.606   4.832  18.487  0.00  0.00    +0.000 A 
ATOM     27  C   UNL     1       4.548   5.723  18.686  0.00  0.00    +0.000 A 
ATOM     28  C   UNL     1       4.234   6.674  17.702  0.00  0.00    +0.000 A 
ATOM     29  C   UNL     1       4.999   6.727  16.522  0.00  0.00    +0.000 A 
ATOM     30  C   UNL     1       6.059   5.835  16.335  0.00  0.00    +0.000 A 
ENDBRANCH  19  28
ENDBRANCH  18  21
ENDBRANCH   1  18
TORSDOF 3
ENDMDL
MODEL 8
REMARK VINA RESULT:      -8.7      4.597      6.244
REMARK  Name = 
REMARK  3 active torsions:
REMARK  status: ('A' for Active; 'I' for Inactive)
REMARK    1  A    between atoms: C_5  and  N_6
REMARK    2  A    between atoms: C_8  and  C_9
REMARK    3  A    between atoms: C_9  and  N_10
REMARK                            x       y       z     vdW  Elec       q    Type
REMARK                         _______ _______ _______ _____ _____    ______ ____
ROOT
ATOM      1  N   UNL     1       4.686   6.491  17.341  0.00  0.00    +0.000 N 
ATOM      2  C   UNL     1       6.045   6.330  17.368  0.00  0.00    +0.000 A 
ATOM      3  C   UNL     1       7.042   7.093  16.756  0.00  0.00    +0.000 A 
ATOM      4  C   UNL     1       7.811   7.684  17.747  0.00  0.00    +0.000 A 
ATOM      5  C   UNL     1       8.141   6.948  18.882  0.00  0.00    +0.000 A 
ATOM      6  C   UNL     1       7.485   5.731  19.173  0.00  0.00    +0.000 A 
ATOM      7  C   UNL     1       6.273   5.516  18.488  0.00  0.00    +0.000 A 
ATOM      8  C   UNL     1       5.088   4.699  18.612  0.00  0.00    +0.000 A 
ATOM      9  N   UNL     1       4.764   3.581  19.312  0.00  0.00    +0.000 NA
ATOM     10  C   UNL     1       3.470   3.161  19.123  0.00  0.00    +0.000 A 
ATOM     11  C   UNL     1       3.018   1.959  19.647  0.00  0.00    +0.000 A 
ATOM     12  C   UNL     1       1.706   1.495  19.455  0.00  0.00    +0.000 A 
ATOM     13  C   UNL     1       0.802   2.267  18.740  0.00  0.00    +0.000 A 
ATOM     14  C   UNL     1       1.219   3.478  18.210  0.00  0.00    +0.000 A 
ATOM     15  C   UNL     1       2.524   3.923  18.374  0.00  0.00    +0.000 A 
ATOM     16  N   UNL     1       2.817   5.066  17.784  0.00  0.00    +0.000 NA
ATOM     17  C   UNL     1       4.115   5.384  17.886  0.00  0.00    +0.000 A 
ENDROOT
BRANCH   1  18
ATOM     18  C   UNL     1       3.989   7.671  16.870  0.00  0.00    +0.000 C 
BRANCH  18  21
ATOM     19  N   UNL     1       1.368   9.107  18.982  0.00  0.00    +0.000 N 
ATOM     20  C   UNL     1       1.966   9.054  17.742  0.00  0.00    +0.000 A 
ATOM     21  C   UNL     1       2.946   8.090  17.851  0.00  0.00    +0.000 A 
ATOM     22  N   UNL     1       2.880   7.542  19.104  0.00  0.00    +0.000 NA
ATOM     23  N   UNL     1       1.915   8.156  19.778  0.00  0.00    +0.000 NA
BRANCH  19  28
ATOM     24  F   UNL     1      -2.473  12.667  20.832  0.00  0.00    +0.000 F 
ATOM     25  C   UNL     1      -1.548  11.807  20.387  0.00  0.00    +0.000 A 
ATOM     26  C   UNL     1      -1.679  11.260  19.116  0.00  0.00    +0.000 A 
ATOM     27  C   UNL     1      -0.718  10.362  18.644  0.00  0.00    +0.000 A 
ATOM     28  C   UNL     1       0.373  10.008  19.454  0.00  0.00    +0.000 A 
ATOM     29  C   UNL     1       0.493  10.572  20.738  0.00  0.00    +0.000 A 
ATOM     30  C   UNL     1      -0.471  11.474  21.199  0.00  0.00    +0.000 A 
ENDBRANCH  19  28
ENDBRANCH  18  21
ENDBRANCH   1  18
TORSDOF 3
ENDMDL
MODEL 9
REMARK VINA RESULT:      -8.7      7.806     10.313
REMARK  Name = 
REMARK  3 active torsions:
REMARK  status: ('A' for Active; 'I' for Inactive)
REMARK    1  A    between atoms: C_5  and  N_6
REMARK    2  A    between atoms: C_8  and  C_9
REMARK    3  A    between atoms: C_9  and  N_10
REMARK                            x       y       z     vdW  Elec       q    Type
REMARK                         _______ _______ _______ _____ _____    ______ ____
ROOT
ATOM      1  N   UNL     1      -0.664  11.625  20.172  0.00  0.00    +0.000 N 
ATOM      2  C   UNL     1      -1.341  11.864  21.338  0.00  0.00    +0.000 A 
ATOM      3  C   UNL     1      -0.867  11.884  22.652  0.00  0.00    +0.000 A 
ATOM      4  C   UNL     1      -1.003  13.171  23.147  0.00  0.00    +0.000 A 
ATOM      5  C   UNL     1      -2.151  13.899  22.844  0.00  0.00    +0.000 A 
ATOM      6  C   UNL     1      -3.035  13.470  21.828  0.00  0.00    +0.000 A 
ATOM      7  C   UNL     1      -2.511  12.522  20.928  0.00  0.00    +0.000 A 
ATOM      8  C   UNL     1      -2.788  12.014  19.604  0.00  0.00    +0.000 A 
ATOM      9  N   UNL     1      -3.857  12.055  18.768  0.00  0.00    +0.000 NA
ATOM     10  C   UNL     1      -3.647  11.429  17.563  0.00  0.00    +0.000 A 
ATOM     11  C   UNL     1      -4.678  11.252  16.653  0.00  0.00    +0.000 A 
ATOM     12  C   UNL     1      -4.496  10.600  15.421  0.00  0.00    +0.000 A 
ATOM     13  C   UNL     1      -3.238  10.132  15.070  0.00  0.00    +0.000 A 
ATOM     14  C   UNL     1      -2.184  10.301  15.955  0.00  0.00    +0.000 A 
ATOM     15  C   UNL     1      -2.370  10.918  17.184  0.00  0.00    +0.000 A 
ATOM     16  N   UNL     1      -1.304  10.978  17.961  0.00  0.00    +0.000 NA
ATOM     17  C   UNL     1      -1.574  11.483  19.173  0.00  0.00    +0.000 A 
ENDROOT
BRANCH   1  18
ATOM     18  C   UNL     1       0.778  11.595  20.030  0.00  0.00    +0.000 C 
BRANCH  18  21
ATOM     19  N   UNL     1       1.867   8.171  19.333  0.00  0.00    +0.000 N 
ATOM     20  C   UNL     1       1.231   9.038  20.193  0.00  0.00    +0.000 A 
ATOM     21  C   UNL     1       1.229  10.257  19.547  0.00  0.00    +0.000 A 
ATOM     22  N   UNL     1       1.789  10.093  18.309  0.00  0.00    +0.000 NA
ATOM     23  N   UNL     1       2.163   8.826  18.184  0.00  0.00    +0.000 NA
BRANCH  19  28
ATOM     24  F   UNL     1       3.383   2.895  20.180  0.00  0.00    +0.000 F 
ATOM     25  C   UNL     1       3.015   4.166  19.975  0.00  0.00    +0.000 A 
ATOM     26  C   UNL     1       2.114   4.767  20.846  0.00  0.00    +0.000 A 
ATOM     27  C   UNL     1       1.727   6.093  20.638  0.00  0.00    +0.000 A 
ATOM     28  C   UNL     1       2.241   6.815  19.549  0.00  0.00    +0.000 A 
ATOM     29  C   UNL     1       3.154   6.194  18.677  0.00  0.00    +0.000 A 
ATOM     30  C   UNL     1       3.540   4.867  18.896  0.00  0.00    +0.000 A 
ENDBRANCH  19  28
ENDBRANCH  18  21
ENDBRANCH   1  18
TORSDOF 3
ENDMDL
