MODEL 1
REMARK VINA RESULT:      -7.6      0.000      0.000
REMARK  Name = 
REMARK  8 active torsions:
REMARK  status: ('A' for Active; 'I' for Inactive)
REMARK    1  A    between atoms: C_1  and  O_2
REMARK    2  A    between atoms: O_2  and  C_3
REMARK    3  A    between atoms: C_6  and  N_7
REMARK    4  A    between atoms: C_8  and  C_10
REMARK    5  A    between atoms: C_10  and  S_11
REMARK    6  A    between atoms: S_11  and  C_12
REMARK    7  A    between atoms: C_16  and  C_17
REMARK    8  A    between atoms: C_19  and  C_20
REMARK                            x       y       z     vdW  Elec       q    Type
REMARK                         _______ _______ _______ _____ _____    ______ ____
ROOT
ATOM      1  C   UNL     1       2.815   3.727  21.056  0.00  0.00    +0.000 C 
ENDROOT
BRANCH   1   3
ATOM      2  N   UNL     1       2.759   6.041  20.245  0.00  0.00    +0.000 N 
ATOM      3  C   UNL     1       2.007   4.931  20.610  0.00  0.00    +0.000 C 
ATOM      4  O   UNL     1       0.775   4.869  20.597  0.00  0.00    +0.000 OA
ATOM      5  H   UNL     1       3.761   5.911  20.140  0.00  0.00    +0.000 HD
BRANCH   2   9
ATOM      6  C   UNL     1       1.101   9.647  18.760  0.00  0.00    +0.000 A 
ATOM      7  C   UNL     1       0.956   9.311  20.100  0.00  0.00    +0.000 A 
ATOM      8  C   UNL     1       1.522   8.144  20.606  0.00  0.00    +0.000 A 
ATOM      9  C   UNL     1       2.224   7.264  19.778  0.00  0.00    +0.000 A 
ATOM     10  C   UNL     1       2.384   7.609  18.431  0.00  0.00    +0.000 A 
ATOM     11  C   UNL     1       1.815   8.790  17.918  0.00  0.00    +0.000 A 
BRANCH   6  13
ATOM     12  C   UNL     1      -0.659  11.172  19.154  0.00  0.00    +0.000 C 
ATOM     13  O   UNL     1       0.473  10.801  18.386  0.00  0.00    +0.000 OA
ENDBRANCH   6  13
ENDBRANCH   2   9
ENDBRANCH   1   3
BRANCH   1  14
ATOM     14  S   UNL     1       2.847   2.468  19.753  0.00  0.00    +0.000 S 
BRANCH  14  15
ATOM     15  C   UNL     1       4.132   3.053  18.733  0.00  0.00    +0.000 A 
ATOM     16  N   UNL     1       4.151   2.902  17.380  0.00  0.00    +0.000 NA
ATOM     17  C   UNL     1       5.166   3.658  17.009  0.00  0.00    +0.000 A 
ATOM     18  N   UNL     1       5.605   3.951  15.748  0.00  0.00    +0.000 NA
ATOM     19  C   UNL     1       6.586   4.800  15.659  0.00  0.00    +0.000 A 
ATOM     20  C   UNL     1       7.081   5.194  14.289  0.00  0.00    +0.000 C 
ATOM     21  C   UNL     1       7.280   5.448  16.820  0.00  0.00    +0.000 A 
ATOM     22  C   UNL     1       6.828   5.121  18.042  0.00  0.00    +0.000 A 
ATOM     23  C   UNL     1       7.404   5.694  19.304  0.00  0.00    +0.000 C 
ATOM     24  N   UNL     1       5.759   4.227  18.146  0.00  0.00    +0.000 N 
ATOM     25  N   UNL     1       5.099   3.811  19.248  0.00  0.00    +0.000 NA
ENDBRANCH  14  15
ENDBRANCH   1  14
TORSDOF 5
ENDMDL
MODEL 2
REMARK VINA RESULT:      -7.6      3.373      7.038
REMARK  Name = 
REMARK  8 active torsions:
REMARK  status: ('A' for Active; 'I' for Inactive)
REMARK    1  A    between atoms: C_1  and  O_2
REMARK    2  A    between atoms: O_2  and  C_3
REMARK    3  A    between atoms: C_6  and  N_7
REMARK    4  A    between atoms: C_8  and  C_10
REMARK    5  A    between atoms: C_10  and  S_11
REMARK    6  A    between atoms: S_11  and  C_12
REMARK    7  A    between atoms: C_16  and  C_17
REMARK    8  A    between atoms: C_19  and  C_20
REMARK                            x       y       z     vdW  Elec       q    Type
REMARK                         _______ _______ _______ _____ _____    ______ ____
ROOT
ATOM      1  C   UNL     1       7.675   6.996  17.930  0.00  0.00    +0.000 C 
ENDROOT
BRANCH   1   3
ATOM      2  N   UNL     1       7.526   5.502  15.990  0.00  0.00    +0.000 N 
ATOM      3  C   UNL     1       6.923   6.537  16.695  0.00  0.00    +0.000 C 
ATOM      4  O   UNL     1       5.860   7.084  16.388  0.00  0.00    +0.000 OA
ATOM      5  H   UNL     1       8.308   5.029  16.435  0.00  0.00    +0.000 HD
BRANCH   2   9
ATOM      6  C   UNL     1       6.050   3.644  12.480  0.00  0.00    +0.000 A 
ATOM      7  C   UNL     1       5.339   3.552  13.670  0.00  0.00    +0.000 A 
ATOM      8  C   UNL     1       5.799   4.184  14.823  0.00  0.00    +0.000 A 
ATOM      9  C   UNL     1       6.999   4.901  14.824  0.00  0.00    +0.000 A 
ATOM     10  C   UNL     1       7.707   5.006  13.621  0.00  0.00    +0.000 A 
ATOM     11  C   UNL     1       7.242   4.371  12.454  0.00  0.00    +0.000 A 
BRANCH   6  13
ATOM     12  C   UNL     1       4.100   3.051  11.286  0.00  0.00    +0.000 C 
ATOM     13  O   UNL     1       5.506   2.955  11.432  0.00  0.00    +0.000 OA
ENDBRANCH   6  13
ENDBRANCH   2   9
ENDBRANCH   1   3
BRANCH   1  14
ATOM     14  S   UNL     1       7.600   5.728  19.223  0.00  0.00    +0.000 S 
BRANCH  14  15
ATOM     15  C   UNL     1       5.945   5.202  19.101  0.00  0.00    +0.000 A 
ATOM     16  N   UNL     1       5.578   3.926  18.795  0.00  0.00    +0.000 NA
ATOM     17  C   UNL     1       4.278   3.928  19.016  0.00  0.00    +0.000 A 
ATOM     18  N   UNL     1       3.393   2.888  18.949  0.00  0.00    +0.000 NA
ATOM     19  C   UNL     1       2.168   3.146  19.303  0.00  0.00    +0.000 A 
ATOM     20  C   UNL     1       1.159   2.025  19.292  0.00  0.00    +0.000 C 
ATOM     21  C   UNL     1       1.657   4.487  19.743  0.00  0.00    +0.000 A 
ATOM     22  C   UNL     1       2.556   5.484  19.779  0.00  0.00    +0.000 A 
ATOM     23  C   UNL     1       2.208   6.879  20.212  0.00  0.00    +0.000 C 
ATOM     24  N   UNL     1       3.880   5.210  19.423  0.00  0.00    +0.000 N 
ATOM     25  N   UNL     1       4.956   6.024  19.450  0.00  0.00    +0.000 NA
ENDBRANCH  14  15
ENDBRANCH   1  14
TORSDOF 5
ENDMDL
MODEL 3
REMARK VINA RESULT:      -7.4      3.327      7.069
REMARK  Name = 
REMARK  8 active torsions:
REMARK  status: ('A' for Active; 'I' for Inactive)
REMARK    1  A    between atoms: C_1  and  O_2
REMARK    2  A    between atoms: O_2  and  C_3
REMARK    3  A    between atoms: C_6  and  N_7
REMARK    4  A    between atoms: C_8  and  C_10
REMARK    5  A    between atoms: C_10  and  S_11
REMARK    6  A    between atoms: S_11  and  C_12
REMARK    7  A    between atoms: C_16  and  C_17
REMARK    8  A    between atoms: C_19  and  C_20
REMARK                            x       y       z     vdW  Elec       q    Type
REMARK                         _______ _______ _______ _____ _____    ______ ____
ROOT
ATOM      1  C   UNL     1       7.813   6.997  18.156  0.00  0.00    +0.000 C 
ENDROOT
BRANCH   1   3
ATOM      2  N   UNL     1       7.519   5.367  16.347  0.00  0.00    +0.000 N 
ATOM      3  C   UNL     1       7.094   6.574  16.889  0.00  0.00    +0.000 C 
ATOM      4  O   UNL     1       6.207   7.293  16.420  0.00  0.00    +0.000 OA
ATOM      5  H   UNL     1       8.135   4.793  16.915  0.00  0.00    +0.000 HD
BRANCH   2   9
ATOM      6  C   UNL     1       5.803   3.620  12.889  0.00  0.00    +0.000 A 
ATOM      7  C   UNL     1       6.994   4.329  12.795  0.00  0.00    +0.000 A 
ATOM      8  C   UNL     1       7.583   4.882  13.930  0.00  0.00    +0.000 A 
ATOM      9  C   UNL     1       6.981   4.766  15.186  0.00  0.00    +0.000 A 
ATOM     10  C   UNL     1       5.789   4.039  15.282  0.00  0.00    +0.000 A 
ATOM     11  C   UNL     1       5.194   3.476  14.137  0.00  0.00    +0.000 A 
BRANCH   6  13
ATOM     12  C   UNL     1       5.742   1.858  11.317  0.00  0.00    +0.000 C 
ATOM     13  O   UNL     1       5.317   3.155  11.700  0.00  0.00    +0.000 OA
ENDBRANCH   6  13
ENDBRANCH   2   9
ENDBRANCH   1   3
BRANCH   1  14
ATOM     14  S   UNL     1       7.633   5.729  19.438  0.00  0.00    +0.000 S 
BRANCH  14  15
ATOM     15  C   UNL     1       5.990   5.210  19.189  0.00  0.00    +0.000 A 
ATOM     16  N   UNL     1       5.642   3.936  18.854  0.00  0.00    +0.000 NA
ATOM     17  C   UNL     1       4.329   3.943  18.974  0.00  0.00    +0.000 A 
ATOM     18  N   UNL     1       3.447   2.907  18.838  0.00  0.00    +0.000 NA
ATOM     19  C   UNL     1       2.200   3.171  19.097  0.00  0.00    +0.000 A 
ATOM     20  C   UNL     1       1.190   2.053  19.007  0.00  0.00    +0.000 C 
ATOM     21  C   UNL     1       1.662   4.513  19.497  0.00  0.00    +0.000 A 
ATOM     22  C   UNL     1       2.560   5.506  19.604  0.00  0.00    +0.000 A 
ATOM     23  C   UNL     1       2.186   6.902  20.010  0.00  0.00    +0.000 C 
ATOM     24  N   UNL     1       3.906   5.227  19.350  0.00  0.00    +0.000 N 
ATOM     25  N   UNL     1       4.981   6.036  19.461  0.00  0.00    +0.000 NA
ENDBRANCH  14  15
ENDBRANCH   1  14
TORSDOF 5
ENDMDL
MODEL 4
REMARK VINA RESULT:      -7.4      0.447      1.073
REMARK  Name = 
REMARK  8 active torsions:
REMARK  status: ('A' for Active; 'I' for Inactive)
REMARK    1  A    between atoms: C_1  and  O_2
REMARK    2  A    between atoms: O_2  and  C_3
REMARK    3  A    between atoms: C_6  and  N_7
REMARK    4  A    between atoms: C_8  and  C_10
REMARK    5  A    between atoms: C_10  and  S_11
REMARK    6  A    between atoms: S_11  and  C_12
REMARK    7  A    between atoms: C_16  and  C_17
REMARK    8  A    between atoms: C_19  and  C_20
REMARK                            x       y       z     vdW  Elec       q    Type
REMARK                         _______ _______ _______ _____ _____    ______ ____
ROOT
ATOM      1  C   UNL     1       2.744   3.706  20.868  0.00  0.00    +0.000 C 
ENDROOT
BRANCH   1   3
ATOM      2  N   UNL     1       2.684   6.053  20.156  0.00  0.00    +0.000 N 
ATOM      3  C   UNL     1       1.934   4.941  20.522  0.00  0.00    +0.000 C 
ATOM      4  O   UNL     1       0.702   4.901  20.584  0.00  0.00    +0.000 OA
ATOM      5  H   UNL     1       3.675   5.910  19.984  0.00  0.00    +0.000 HD
BRANCH   2   9
ATOM      6  C   UNL     1       1.123   9.850  19.105  0.00  0.00    +0.000 A 
ATOM      7  C   UNL     1       1.834   9.105  18.173  0.00  0.00    +0.000 A 
ATOM      8  C   UNL     1       2.326   7.842  18.497  0.00  0.00    +0.000 A 
ATOM      9  C   UNL     1       2.145   7.303  19.774  0.00  0.00    +0.000 A 
ATOM     10  C   UNL     1       1.416   8.047  20.709  0.00  0.00    +0.000 A 
ATOM     11  C   UNL     1       0.915   9.321  20.382  0.00  0.00    +0.000 A 
BRANCH   6  13
ATOM     12  C   UNL     1       0.812  12.135  19.615  0.00  0.00    +0.000 C 
ATOM     13  O   UNL     1       0.722  11.081  18.671  0.00  0.00    +0.000 OA
ENDBRANCH   6  13
ENDBRANCH   2   9
ENDBRANCH   1   3
BRANCH   1  14
ATOM     14  S   UNL     1       2.682   2.509  19.508  0.00  0.00    +0.000 S 
BRANCH  14  15
ATOM     15  C   UNL     1       4.016   3.034  18.519  0.00  0.00    +0.000 A 
ATOM     16  N   UNL     1       4.079   2.841  17.172  0.00  0.00    +0.000 NA
ATOM     17  C   UNL     1       5.124   3.563  16.816  0.00  0.00    +0.000 A 
ATOM     18  N   UNL     1       5.613   3.807  15.563  0.00  0.00    +0.000 NA
ATOM     19  C   UNL     1       6.616   4.632  15.484  0.00  0.00    +0.000 A 
ATOM     20  C   UNL     1       7.167   4.973  14.121  0.00  0.00    +0.000 C 
ATOM     21  C   UNL     1       7.283   5.300  16.650  0.00  0.00    +0.000 A 
ATOM     22  C   UNL     1       6.781   5.021  17.864  0.00  0.00    +0.000 A 
ATOM     23  C   UNL     1       7.324   5.620  19.128  0.00  0.00    +0.000 C 
ATOM     24  N   UNL     1       5.688   4.153  17.956  0.00  0.00    +0.000 N 
ATOM     25  N   UNL     1       4.981   3.786  19.046  0.00  0.00    +0.000 NA
ENDBRANCH  14  15
ENDBRANCH   1  14
TORSDOF 5
ENDMDL
MODEL 5
REMARK VINA RESULT:      -7.4      1.178      2.053
REMARK  Name = 
REMARK  8 active torsions:
REMARK  status: ('A' for Active; 'I' for Inactive)
REMARK    1  A    between atoms: C_1  and  O_2
REMARK    2  A    between atoms: O_2  and  C_3
REMARK    3  A    between atoms: C_6  and  N_7
REMARK    4  A    between atoms: C_8  and  C_10
REMARK    5  A    between atoms: C_10  and  S_11
REMARK    6  A    between atoms: S_11  and  C_12
REMARK    7  A    between atoms: C_16  and  C_17
REMARK    8  A    between atoms: C_19  and  C_20
REMARK                            x       y       z     vdW  Elec       q    Type
REMARK                         _______ _______ _______ _____ _____    ______ ____
ROOT
ATOM      1  C   UNL     1       2.648   2.967  20.770  0.00  0.00    +0.000 C 
ENDROOT
BRANCH   1   3
ATOM      2  N   UNL     1       2.620   5.401  20.468  0.00  0.00    +0.000 N 
ATOM      3  C   UNL     1       2.083   4.185  20.063  0.00  0.00    +0.000 C 
ATOM      4  O   UNL     1       1.210   4.042  19.203  0.00  0.00    +0.000 OA
ATOM      5  H   UNL     1       3.445   5.372  21.060  0.00  0.00    +0.000 HD
BRANCH   2   9
ATOM      6  C   UNL     1       1.498   9.123  18.782  0.00  0.00    +0.000 A 
ATOM      7  C   UNL     1       1.179   8.830  20.102  0.00  0.00    +0.000 A 
ATOM      8  C   UNL     1       1.569   7.623  20.677  0.00  0.00    +0.000 A 
ATOM      9  C   UNL     1       2.263   6.662  19.936  0.00  0.00    +0.000 A 
ATOM     10  C   UNL     1       2.597   6.963  18.610  0.00  0.00    +0.000 A 
ATOM     11  C   UNL     1       2.207   8.185  18.029  0.00  0.00    +0.000 A 
BRANCH   6  13
ATOM     12  C   UNL     1       0.199  11.046  19.227  0.00  0.00    +0.000 C 
ATOM     13  O   UNL     1       1.032  10.327  18.333  0.00  0.00    +0.000 OA
ENDBRANCH   6  13
ENDBRANCH   2   9
ENDBRANCH   1   3
BRANCH   1  14
ATOM     14  S   UNL     1       3.924   2.180  19.751  0.00  0.00    +0.000 S 
BRANCH  14  15
ATOM     15  C   UNL     1       4.638   3.557  18.959  0.00  0.00    +0.000 A 
ATOM     16  N   UNL     1       5.329   4.531  19.614  0.00  0.00    +0.000 NA
ATOM     17  C   UNL     1       5.855   5.236  18.632  0.00  0.00    +0.000 A 
ATOM     18  N   UNL     1       6.716   6.296  18.699  0.00  0.00    +0.000 NA
ATOM     19  C   UNL     1       7.153   6.759  17.565  0.00  0.00    +0.000 A 
ATOM     20  C   UNL     1       8.141   7.899  17.581  0.00  0.00    +0.000 C 
ATOM     21  C   UNL     1       6.766   6.244  16.210  0.00  0.00    +0.000 A 
ATOM     22  C   UNL     1       5.906   5.212  16.189  0.00  0.00    +0.000 A 
ATOM     23  C   UNL     1       5.432   4.572  14.916  0.00  0.00    +0.000 C 
ATOM     24  N   UNL     1       5.448   4.693  17.404  0.00  0.00    +0.000 N 
ATOM     25  N   UNL     1       4.648   3.629  17.629  0.00  0.00    +0.000 NA
ENDBRANCH  14  15
ENDBRANCH   1  14
TORSDOF 5
ENDMDL
MODEL 6
REMARK VINA RESULT:      -7.3      1.235      2.326
REMARK  Name = 
REMARK  8 active torsions:
REMARK  status: ('A' for Active; 'I' for Inactive)
REMARK    1  A    between atoms: C_1  and  O_2
REMARK    2  A    between atoms: O_2  and  C_3
REMARK    3  A    between atoms: C_6  and  N_7
REMARK    4  A    between atoms: C_8  and  C_10
REMARK    5  A    between atoms: C_10  and  S_11
REMARK    6  A    between atoms: S_11  and  C_12
REMARK    7  A    between atoms: C_16  and  C_17
REMARK    8  A    between atoms: C_19  and  C_20
REMARK                            x       y       z     vdW  Elec       q    Type
REMARK                         _______ _______ _______ _____ _____    ______ ____
ROOT
ATOM      1  C   UNL     1       2.694   3.100  21.102  0.00  0.00    +0.000 C 
ENDROOT
BRANCH   1   3
ATOM      2  N   UNL     1       2.610   5.502  20.615  0.00  0.00    +0.000 N 
ATOM      3  C   UNL     1       2.061   4.254  20.348  0.00  0.00    +0.000 C 
ATOM      4  O   UNL     1       1.127   4.038  19.571  0.00  0.00    +0.000 OA
ATOM      5  H   UNL     1       3.478   5.526  21.143  0.00  0.00    +0.000 HD
BRANCH   2   9
ATOM      6  C   UNL     1       1.421   9.195  18.910  0.00  0.00    +0.000 A 
ATOM      7  C   UNL     1       2.134   8.274  18.154  0.00  0.00    +0.000 A 
ATOM      8  C   UNL     1       2.504   7.044  18.693  0.00  0.00    +0.000 A 
ATOM      9  C   UNL     1       2.197   6.715  20.016  0.00  0.00    +0.000 A 
ATOM     10  C   UNL     1       1.464   7.636  20.774  0.00  0.00    +0.000 A 
ATOM     11  C   UNL     1       1.087   8.878  20.229  0.00  0.00    +0.000 A 
BRANCH   6  13
ATOM     12  C   UNL     1       2.194  11.326  18.247  0.00  0.00    +0.000 C 
ATOM     13  O   UNL     1       1.146  10.372  18.273  0.00  0.00    +0.000 OA
ENDBRANCH   6  13
ENDBRANCH   2   9
ENDBRANCH   1   3
BRANCH   1  14
ATOM     14  S   UNL     1       3.911   2.255  20.058  0.00  0.00    +0.000 S 
BRANCH  14  15
ATOM     15  C   UNL     1       4.614   3.590  19.190  0.00  0.00    +0.000 A 
ATOM     16  N   UNL     1       5.317   4.593  19.787  0.00  0.00    +0.000 NA
ATOM     17  C   UNL     1       5.828   5.249  18.763  0.00  0.00    +0.000 A 
ATOM     18  N   UNL     1       6.692   6.309  18.765  0.00  0.00    +0.000 NA
ATOM     19  C   UNL     1       7.112   6.717  17.604  0.00  0.00    +0.000 A 
ATOM     20  C   UNL     1       8.102   7.854  17.550  0.00  0.00    +0.000 C 
ATOM     21  C   UNL     1       6.702   6.138  16.282  0.00  0.00    +0.000 A 
ATOM     22  C   UNL     1       5.840   5.108  16.323  0.00  0.00    +0.000 A 
ATOM     23  C   UNL     1       5.346   4.409  15.091  0.00  0.00    +0.000 C 
ATOM     24  N   UNL     1       5.401   4.649  17.569  0.00  0.00    +0.000 N 
ATOM     25  N   UNL     1       4.603   3.599  17.858  0.00  0.00    +0.000 NA
ENDBRANCH  14  15
ENDBRANCH   1  14
TORSDOF 5
ENDMDL
MODEL 7
REMARK VINA RESULT:      -7.2      3.630      7.591
REMARK  Name = 
REMARK  8 active torsions:
REMARK  status: ('A' for Active; 'I' for Inactive)
REMARK    1  A    between atoms: C_1  and  O_2
REMARK    2  A    between atoms: O_2  and  C_3
REMARK    3  A    between atoms: C_6  and  N_7
REMARK    4  A    between atoms: C_8  and  C_10
REMARK    5  A    between atoms: C_10  and  S_11
REMARK    6  A    between atoms: S_11  and  C_12
REMARK    7  A    between atoms: C_16  and  C_17
REMARK    8  A    between atoms: C_19  and  C_20
REMARK                            x       y       z     vdW  Elec       q    Type
REMARK                         _______ _______ _______ _____ _____    ______ ____
ROOT
ATOM      1  C   UNL     1       7.520   6.534  17.371  0.00  0.00    +0.000 C 
ENDROOT
BRANCH   1   3
ATOM      2  N   UNL     1       6.621   5.765  15.222  0.00  0.00    +0.000 N 
ATOM      3  C   UNL     1       7.358   5.424  16.350  0.00  0.00    +0.000 C 
ATOM      4  O   UNL     1       7.863   4.319  16.564  0.00  0.00    +0.000 OA
ATOM      5  H   UNL     1       6.402   6.748  15.089  0.00  0.00    +0.000 HD
BRANCH   2   9
ATOM      6  C   UNL     1       5.940   3.123  11.980  0.00  0.00    +0.000 A 
ATOM      7  C   UNL     1       4.983   3.268  12.976  0.00  0.00    +0.000 A 
ATOM      8  C   UNL     1       5.182   4.155  14.031  0.00  0.00    +0.000 A 
ATOM      9  C   UNL     1       6.359   4.902  14.133  0.00  0.00    +0.000 A 
ATOM     10  C   UNL     1       7.317   4.768  13.121  0.00  0.00    +0.000 A 
ATOM     11  C   UNL     1       7.116   3.874  12.053  0.00  0.00    +0.000 A 
BRANCH   6  13
ATOM     12  C   UNL     1       6.296   0.951  11.124  0.00  0.00    +0.000 C 
ATOM     13  O   UNL     1       5.635   2.201  11.020  0.00  0.00    +0.000 OA
ENDBRANCH   6  13
ENDBRANCH   2   9
ENDBRANCH   1   3
BRANCH   1  14
ATOM     14  S   UNL     1       7.552   5.850  19.049  0.00  0.00    +0.000 S 
BRANCH  14  15
ATOM     15  C   UNL     1       5.910   5.300  19.234  0.00  0.00    +0.000 A 
ATOM     16  N   UNL     1       5.573   4.010  19.517  0.00  0.00    +0.000 NA
ATOM     17  C   UNL     1       4.282   4.089  19.771  0.00  0.00    +0.000 A 
ATOM     18  N   UNL     1       3.427   3.108  20.192  0.00  0.00    +0.000 NA
ATOM     19  C   UNL     1       2.207   3.476  20.453  0.00  0.00    +0.000 A 
ATOM     20  C   UNL     1       1.233   2.443  20.965  0.00  0.00    +0.000 C 
ATOM     21  C   UNL     1       1.670   4.868  20.301  0.00  0.00    +0.000 A 
ATOM     22  C   UNL     1       2.538   5.798  19.871  0.00  0.00    +0.000 A 
ATOM     23  C   UNL     1       2.163   7.239  19.682  0.00  0.00    +0.000 C 
ATOM     24  N   UNL     1       3.858   5.416  19.609  0.00  0.00    +0.000 N 
ATOM     25  N   UNL     1       4.909   6.178  19.241  0.00  0.00    +0.000 NA
ENDBRANCH  14  15
ENDBRANCH   1  14
TORSDOF 5
ENDMDL
MODEL 8
REMARK VINA RESULT:      -7.2      4.913      6.914
REMARK  Name = 
REMARK  8 active torsions:
REMARK  status: ('A' for Active; 'I' for Inactive)
REMARK    1  A    between atoms: C_1  and  O_2
REMARK    2  A    between atoms: O_2  and  C_3
REMARK    3  A    between atoms: C_6  and  N_7
REMARK    4  A    between atoms: C_8  and  C_10
REMARK    5  A    between atoms: C_10  and  S_11
REMARK    6  A    between atoms: S_11  and  C_12
REMARK    7  A    between atoms: C_16  and  C_17
REMARK    8  A    between atoms: C_19  and  C_20
REMARK                            x       y       z     vdW  Elec       q    Type
REMARK                         _______ _______ _______ _____ _____    ______ ____
ROOT
ATOM      1  C   UNL     1       8.013   6.550  18.577  0.00  0.00    +0.000 C 
ENDROOT
BRANCH   1   3
ATOM      2  N   UNL     1       8.943   8.724  19.231  0.00  0.00    +0.000 N 
ATOM      3  C   UNL     1       8.148   8.039  18.319  0.00  0.00    +0.000 C 
ATOM      4  O   UNL     1       7.567   8.548  17.356  0.00  0.00    +0.000 OA
ATOM      5  H   UNL     1       9.496   8.167  19.876  0.00  0.00    +0.000 HD
BRANCH   2   9
ATOM      6  C   UNL     1       9.708  12.885  18.996  0.00  0.00    +0.000 A 
ATOM      7  C   UNL     1       9.516  12.279  20.231  0.00  0.00    +0.000 A 
ATOM      8  C   UNL     1       9.294  10.907  20.323  0.00  0.00    +0.000 A 
ATOM      9  C   UNL     1       9.228  10.108  19.178  0.00  0.00    +0.000 A 
ATOM     10  C   UNL     1       9.436  10.716  17.935  0.00  0.00    +0.000 A 
ATOM     11  C   UNL     1       9.664  12.102  17.840  0.00  0.00    +0.000 A 
BRANCH   6  13
ATOM     12  C   UNL     1       8.775  14.999  19.484  0.00  0.00    +0.000 C 
ATOM     13  O   UNL     1       9.886  14.239  19.042  0.00  0.00    +0.000 OA
ENDBRANCH   6  13
ENDBRANCH   2   9
ENDBRANCH   1   3
BRANCH   1  14
ATOM     14  S   UNL     1       7.108   5.754  17.223  0.00  0.00    +0.000 S 
BRANCH  14  15
ATOM     15  C   UNL     1       5.645   5.255  18.026  0.00  0.00    +0.000 A 
ATOM     16  N   UNL     1       5.465   4.016  18.564  0.00  0.00    +0.000 NA
ATOM     17  C   UNL     1       4.336   4.144  19.235  0.00  0.00    +0.000 A 
ATOM     18  N   UNL     1       3.707   3.237  20.041  0.00  0.00    +0.000 NA
ATOM     19  C   UNL     1       2.639   3.652  20.657  0.00  0.00    +0.000 A 
ATOM     20  C   UNL     1       1.931   2.706  21.595  0.00  0.00    +0.000 C 
ATOM     21  C   UNL     1       2.041   5.022  20.528  0.00  0.00    +0.000 A 
ATOM     22  C   UNL     1       2.681   5.877  19.714  0.00  0.00    +0.000 A 
ATOM     23  C   UNL     1       2.220   7.288  19.489  0.00  0.00    +0.000 C 
ATOM     24  N   UNL     1       3.843   5.446  19.065  0.00  0.00    +0.000 N 
ATOM     25  N   UNL     1       4.681   6.141  18.267  0.00  0.00    +0.000 NA
ENDBRANCH  14  15
ENDBRANCH   1  14
TORSDOF 5
ENDMDL
MODEL 9
REMARK VINA RESULT:      -7.2      4.998      7.105
REMARK  Name = 
REMARK  8 active torsions:
REMARK  status: ('A' for Active; 'I' for Inactive)
REMARK    1  A    between atoms: C_1  and  O_2
REMARK    2  A    between atoms: O_2  and  C_3
REMARK    3  A    between atoms: C_6  and  N_7
REMARK    4  A    between atoms: C_8  and  C_10
REMARK    5  A    between atoms: C_10  and  S_11
REMARK    6  A    between atoms: S_11  and  C_12
REMARK    7  A    between atoms: C_16  and  C_17
REMARK    8  A    between atoms: C_19  and  C_20
REMARK                            x       y       z     vdW  Elec       q    Type
REMARK                         _______ _______ _______ _____ _____    ______ ____
ROOT
ATOM      1  C   UNL     1       6.982   7.100  17.212  0.00  0.00    +0.000 C 
ENDROOT
BRANCH   1   3
ATOM      2  N   UNL     1       7.914   9.314  17.709  0.00  0.00    +0.000 N 
ATOM      3  C   UNL     1       7.921   7.962  18.035  0.00  0.00    +0.000 C 
ATOM      4  O   UNL     1       8.616   7.444  18.913  0.00  0.00    +0.000 OA
ATOM      5  H   UNL     1       7.181   9.639  17.087  0.00  0.00    +0.000 HD
BRANCH   2   9
ATOM      6  C   UNL     1      10.145  12.364  19.627  0.00  0.00    +0.000 A 
ATOM      7  C   UNL     1       9.990  11.125  20.236  0.00  0.00    +0.000 A 
ATOM      8  C   UNL     1       9.285  10.105  19.602  0.00  0.00    +0.000 A 
ATOM      9  C   UNL     1       8.689  10.306  18.353  0.00  0.00    +0.000 A 
ATOM     10  C   UNL     1       8.858  11.550  17.733  0.00  0.00    +0.000 A 
ATOM     11  C   UNL     1       9.574  12.581  18.371  0.00  0.00    +0.000 A 
BRANCH   6  13
ATOM     12  C   UNL     1      10.846  14.607  19.858  0.00  0.00    +0.000 C 
ATOM     13  O   UNL     1      10.832  13.284  20.367  0.00  0.00    +0.000 OA
ENDBRANCH   6  13
ENDBRANCH   2   9
ENDBRANCH   1   3
BRANCH   1  14
ATOM     14  S   UNL     1       7.206   5.350  17.627  0.00  0.00    +0.000 S 
BRANCH  14  15
ATOM     15  C   UNL     1       5.662   4.955  18.327  0.00  0.00    +0.000 A 
ATOM     16  N   UNL     1       5.361   3.737  18.856  0.00  0.00    +0.000 NA
ATOM     17  C   UNL     1       4.200   3.945  19.445  0.00  0.00    +0.000 A 
ATOM     18  N   UNL     1       3.456   3.089  20.209  0.00  0.00    +0.000 NA
ATOM     19  C   UNL     1       2.379   3.579  20.747  0.00  0.00    +0.000 A 
ATOM     20  C   UNL     1       1.544   2.691  21.637  0.00  0.00    +0.000 C 
ATOM     21  C   UNL     1       1.884   4.985  20.570  0.00  0.00    +0.000 A 
ATOM     22  C   UNL     1       2.635   5.788  19.800  0.00  0.00    +0.000 A 
ATOM     23  C   UNL     1       2.287   7.225  19.538  0.00  0.00    +0.000 C 
ATOM     24  N   UNL     1       3.808   5.276  19.236  0.00  0.00    +0.000 N 
ATOM     25  N   UNL     1       4.744   5.906  18.497  0.00  0.00    +0.000 NA
ENDBRANCH  14  15
ENDBRANCH   1  14
TORSDOF 5
ENDMDL
