MODEL 1
REMARK VINA RESULT:      -7.4      0.000      0.000
REMARK  Name = 
REMARK  5 active torsions:
REMARK  status: ('A' for Active; 'I' for Inactive)
REMARK    1  A    between atoms: C_2  and  C_4
REMARK    2  A    between atoms: C_4  and  C_5
REMARK    3  A    between atoms: N_8  and  C_9
REMARK    4  A    between atoms: C_9  and  C_10
REMARK    5  A    between atoms: C_20  and  O_21
REMARK                            x       y       z     vdW  Elec       q    Type
REMARK                         _______ _______ _______ _____ _____    ______ ____
ROOT
ATOM      1  C   UNL     1       1.983   7.531  19.974  0.00  0.00    +0.000 A 
ATOM      2  C   UNL     1       2.415   7.944  18.726  0.00  0.00    +0.000 A 
ATOM      3 BR   UNL     1       2.244   9.685  18.055  0.00  0.00    +0.000 Br
ATOM      4  N   UNL     1       2.961   6.870  18.067  0.00  0.00    +0.000 N 
ATOM      5  C   UNL     1       2.685   5.711  18.777  0.00  0.00    +0.000 A 
ATOM      6  C   UNL     1       2.893   4.355  18.452  0.00  0.00    +0.000 A 
ATOM      7  C   UNL     1       2.463   3.395  19.369  0.00  0.00    +0.000 A 
ATOM      8 CL   UNL     1       2.632   1.723  18.972  0.00  0.00    +0.000 Cl
ATOM      9  C   UNL     1       1.889   3.768  20.584  0.00  0.00    +0.000 A 
ATOM     10  C   UNL     1       1.721   5.113  20.912  0.00  0.00    +0.000 A 
ATOM     11  C   UNL     1       2.094   6.105  19.982  0.00  0.00    +0.000 A 
ENDROOT
BRANCH   9  12
ATOM     12  O   UNL     1       1.449   2.850  21.496  0.00  0.00    +0.000 OA
ATOM     13  H   UNL     1       0.688   2.389  21.095  0.00  0.00    +0.000 HD
ENDBRANCH   9  12
BRANCH   1  14
ATOM     14  C   UNL     1       1.487   8.366  21.125  0.00  0.00    +0.000 C 
BRANCH  14  16
ATOM     15  N   UNL     1      -0.428   9.781  20.422  0.00  0.00    +0.000 N 
ATOM     16  C   UNL     1       0.012   8.717  21.142  0.00  0.00    +0.000 C 
ATOM     17  O   UNL     1      -0.802   8.056  21.795  0.00  0.00    +0.000 OA
ATOM     18  H   UNL     1      -1.411   9.999  20.511  0.00  0.00    +0.000 HD
ATOM     19  H   UNL     1       0.198  10.538  20.176  0.00  0.00    +0.000 HD
ENDBRANCH  14  16
ENDBRANCH   1  14
BRANCH   4  20
ATOM     20  C   UNL     1       3.720   6.911  16.816  0.00  0.00    +0.000 C 
BRANCH  20  21
ATOM     21  C   UNL     1       5.047   6.184  16.863  0.00  0.00    +0.000 A 
ATOM     22  C   UNL     1       5.356   5.106  16.020  0.00  0.00    +0.000 A 
ATOM     23  C   UNL     1       6.513   4.357  16.214  0.00  0.00    +0.000 A 
ATOM     24  C   UNL     1       7.404   4.694  17.230  0.00  0.00    +0.000 A 
ATOM     25  C   UNL     1       7.157   5.812  18.022  0.00  0.00    +0.000 A 
ATOM     26  C   UNL     1       5.991   6.558  17.837  0.00  0.00    +0.000 A 
ENDBRANCH  20  21
ENDBRANCH   4  20
TORSDOF 5
ENDMDL
MODEL 2
REMARK VINA RESULT:      -7.3      0.238      1.030
REMARK  Name = 
REMARK  5 active torsions:
REMARK  status: ('A' for Active; 'I' for Inactive)
REMARK    1  A    between atoms: C_2  and  C_4
REMARK    2  A    between atoms: C_4  and  C_5
REMARK    3  A    between atoms: N_8  and  C_9
REMARK    4  A    between atoms: C_9  and  C_10
REMARK    5  A    between atoms: C_20  and  O_21
REMARK                            x       y       z     vdW  Elec       q    Type
REMARK                         _______ _______ _______ _____ _____    ______ ____
ROOT
ATOM      1  C   UNL     1       1.930   7.527  19.980  0.00  0.00    +0.000 A 
ATOM      2  C   UNL     1       2.441   7.931  18.759  0.00  0.00    +0.000 A 
ATOM      3 BR   UNL     1       2.416   9.691  18.117  0.00  0.00    +0.000 Br
ATOM      4  N   UNL     1       2.943   6.834  18.103  0.00  0.00    +0.000 N 
ATOM      5  C   UNL     1       2.561   5.684  18.778  0.00  0.00    +0.000 A 
ATOM      6  C   UNL     1       2.692   4.324  18.436  0.00  0.00    +0.000 A 
ATOM      7  C   UNL     1       2.160   3.379  19.314  0.00  0.00    +0.000 A 
ATOM      8 CL   UNL     1       2.235   1.706  18.892  0.00  0.00    +0.000 Cl
ATOM      9  C   UNL     1       1.561   3.769  20.511  0.00  0.00    +0.000 A 
ATOM     10  C   UNL     1       1.468   5.117  20.858  0.00  0.00    +0.000 A 
ATOM     11  C   UNL     1       1.945   6.097  19.965  0.00  0.00    +0.000 A 
ENDROOT
BRANCH   9  12
ATOM     12  O   UNL     1       1.021   2.867  21.386  0.00  0.00    +0.000 OA
ATOM     13  H   UNL     1       0.635   3.376  22.122  0.00  0.00    +0.000 HD
ENDBRANCH   9  12
BRANCH   1  14
ATOM     14  C   UNL     1       1.441   8.374  21.125  0.00  0.00    +0.000 C 
BRANCH  14  16
ATOM     15  N   UNL     1      -0.456   9.783  20.366  0.00  0.00    +0.000 N 
ATOM     16  C   UNL     1      -0.028   8.748  21.133  0.00  0.00    +0.000 C 
ATOM     17  O   UNL     1      -0.848   8.132  21.821  0.00  0.00    +0.000 OA
ATOM     18  H   UNL     1      -1.435  10.020  20.449  0.00  0.00    +0.000 HD
ATOM     19  H   UNL     1       0.180  10.518  20.081  0.00  0.00    +0.000 HD
ENDBRANCH  14  16
ENDBRANCH   1  14
BRANCH   4  20
ATOM     20  C   UNL     1       3.757   6.845  16.886  0.00  0.00    +0.000 C 
BRANCH  20  21
ATOM     21  C   UNL     1       5.017   6.009  16.966  0.00  0.00    +0.000 A 
ATOM     22  C   UNL     1       6.029   6.245  17.909  0.00  0.00    +0.000 A 
ATOM     23  C   UNL     1       7.243   5.570  17.836  0.00  0.00    +0.000 A 
ATOM     24  C   UNL     1       7.457   4.616  16.844  0.00  0.00    +0.000 A 
ATOM     25  C   UNL     1       6.433   4.307  15.953  0.00  0.00    +0.000 A 
ATOM     26  C   UNL     1       5.218   4.992  16.015  0.00  0.00    +0.000 A 
ENDBRANCH  20  21
ENDBRANCH   4  20
TORSDOF 5
ENDMDL
MODEL 3
REMARK VINA RESULT:      -7.2      3.003      4.418
REMARK  Name = 
REMARK  5 active torsions:
REMARK  status: ('A' for Active; 'I' for Inactive)
REMARK    1  A    between atoms: C_2  and  C_4
REMARK    2  A    between atoms: C_4  and  C_5
REMARK    3  A    between atoms: N_8  and  C_9
REMARK    4  A    between atoms: C_9  and  C_10
REMARK    5  A    between atoms: C_20  and  O_21
REMARK                            x       y       z     vdW  Elec       q    Type
REMARK                         _______ _______ _______ _____ _____    ______ ____
ROOT
ATOM      1  C   UNL     1       2.660   4.527  20.262  0.00  0.00    +0.000 A 
ATOM      2  C   UNL     1       3.287   3.955  19.168  0.00  0.00    +0.000 A 
ATOM      3 BR   UNL     1       4.151   2.293  19.177  0.00  0.00    +0.000 Br
ATOM      4  N   UNL     1       3.185   4.813  18.100  0.00  0.00    +0.000 N 
ATOM      5  C   UNL     1       2.701   6.036  18.541  0.00  0.00    +0.000 A 
ATOM      6  C   UNL     1       2.561   7.270  17.875  0.00  0.00    +0.000 A 
ATOM      7  C   UNL     1       2.075   8.352  18.609  0.00  0.00    +0.000 A 
ATOM      8 CL   UNL     1       1.961   9.898  17.848  0.00  0.00    +0.000 Cl
ATOM      9  C   UNL     1       1.698   8.203  19.944  0.00  0.00    +0.000 A 
ATOM     10  C   UNL     1       1.806   6.969  20.583  0.00  0.00    +0.000 A 
ATOM     11  C   UNL     1       2.347   5.871  19.885  0.00  0.00    +0.000 A 
ENDROOT
BRANCH   9  12
ATOM     12  O   UNL     1       1.230   9.247  20.691  0.00  0.00    +0.000 OA
ATOM     13  H   UNL     1       1.584  10.066  20.296  0.00  0.00    +0.000 HD
ENDBRANCH   9  12
BRANCH   1  14
ATOM     14  C   UNL     1       2.348   3.910  21.599  0.00  0.00    +0.000 C 
BRANCH  14  16
ATOM     15  N   UNL     1       0.448   2.689  20.570  0.00  0.00    +0.000 N 
ATOM     16  C   UNL     1       1.275   2.839  21.636  0.00  0.00    +0.000 C 
ATOM     17  O   UNL     1       1.135   2.098  22.613  0.00  0.00    +0.000 OA
ATOM     18  H   UNL     1      -0.280   1.994  20.669  0.00  0.00    +0.000 HD
ATOM     19  H   UNL     1       0.279   3.455  19.930  0.00  0.00    +0.000 HD
ENDBRANCH  14  16
ENDBRANCH   1  14
BRANCH   4  20
ATOM     20  C   UNL     1       3.522   4.512  16.708  0.00  0.00    +0.000 C 
BRANCH  20  21
ATOM     21  C   UNL     1       4.983   4.707  16.360  0.00  0.00    +0.000 A 
ATOM     22  C   UNL     1       5.860   5.462  17.154  0.00  0.00    +0.000 A 
ATOM     23  C   UNL     1       7.145   5.761  16.711  0.00  0.00    +0.000 A 
ATOM     24  C   UNL     1       7.593   5.280  15.482  0.00  0.00    +0.000 A 
ATOM     25  C   UNL     1       6.766   4.458  14.721  0.00  0.00    +0.000 A 
ATOM     26  C   UNL     1       5.473   4.166  15.158  0.00  0.00    +0.000 A 
ENDBRANCH  20  21
ENDBRANCH   4  20
TORSDOF 5
ENDMDL
MODEL 4
REMARK VINA RESULT:      -7.1      2.845      4.245
REMARK  Name = 
REMARK  5 active torsions:
REMARK  status: ('A' for Active; 'I' for Inactive)
REMARK    1  A    between atoms: C_2  and  C_4
REMARK    2  A    between atoms: C_4  and  C_5
REMARK    3  A    between atoms: N_8  and  C_9
REMARK    4  A    between atoms: C_9  and  C_10
REMARK    5  A    between atoms: C_20  and  O_21
REMARK                            x       y       z     vdW  Elec       q    Type
REMARK                         _______ _______ _______ _____ _____    ______ ____
ROOT
ATOM      1  C   UNL     1       2.541   5.111  20.335  0.00  0.00    +0.000 A 
ATOM      2  C   UNL     1       3.240   4.731  19.203  0.00  0.00    +0.000 A 
ATOM      3 BR   UNL     1       4.257   3.166  19.046  0.00  0.00    +0.000 Br
ATOM      4  N   UNL     1       3.079   5.695  18.238  0.00  0.00    +0.000 N 
ATOM      5  C   UNL     1       2.472   6.809  18.801  0.00  0.00    +0.000 A 
ATOM      6  C   UNL     1       2.230   8.094  18.278  0.00  0.00    +0.000 A 
ATOM      7  C   UNL     1       1.629   9.034  19.117  0.00  0.00    +0.000 A 
ATOM      8 CL   UNL     1       1.385  10.642  18.535  0.00  0.00    +0.000 Cl
ATOM      9  C   UNL     1       1.242   8.695  20.413  0.00  0.00    +0.000 A 
ATOM     10  C   UNL     1       1.453   7.410  20.909  0.00  0.00    +0.000 A 
ATOM     11  C   UNL     1       2.109   6.455  20.105  0.00  0.00    +0.000 A 
ENDROOT
BRANCH   9  12
ATOM     12  O   UNL     1       0.662   9.597  21.260  0.00  0.00    +0.000 OA
ATOM     13  H   UNL     1       1.370   9.957  21.827  0.00  0.00    +0.000 HD
ENDBRANCH   9  12
BRANCH   1  14
ATOM     14  C   UNL     1       2.261   4.315  21.582  0.00  0.00    +0.000 C 
BRANCH  14  16
ATOM     15  N   UNL     1       0.508   3.021  20.394  0.00  0.00    +0.000 N 
ATOM     16  C   UNL     1       1.365   3.100  21.444  0.00  0.00    +0.000 C 
ATOM     17  O   UNL     1       1.396   2.177  22.264  0.00  0.00    +0.000 OA
ATOM     18  H   UNL     1      -0.101   2.214  20.379  0.00  0.00    +0.000 HD
ATOM     19  H   UNL     1       0.188   3.856  19.919  0.00  0.00    +0.000 HD
ENDBRANCH  14  16
ENDBRANCH   1  14
BRANCH   4  20
ATOM     20  C   UNL     1       3.471   5.592  16.831  0.00  0.00    +0.000 C 
BRANCH  20  21
ATOM     21  C   UNL     1       4.957   5.408  16.606  0.00  0.00    +0.000 A 
ATOM     22  C   UNL     1       5.481   4.443  15.733  0.00  0.00    +0.000 A 
ATOM     23  C   UNL     1       6.848   4.188  15.687  0.00  0.00    +0.000 A 
ATOM     24  C   UNL     1       7.725   4.921  16.486  0.00  0.00    +0.000 A 
ATOM     25  C   UNL     1       7.231   5.941  17.295  0.00  0.00    +0.000 A 
ATOM     26  C   UNL     1       5.858   6.189  17.352  0.00  0.00    +0.000 A 
ENDBRANCH  20  21
ENDBRANCH   4  20
TORSDOF 5
ENDMDL
MODEL 5
REMARK VINA RESULT:      -7.0      2.890      5.909
REMARK  Name = 
REMARK  5 active torsions:
REMARK  status: ('A' for Active; 'I' for Inactive)
REMARK    1  A    between atoms: C_2  and  C_4
REMARK    2  A    between atoms: C_4  and  C_5
REMARK    3  A    between atoms: N_8  and  C_9
REMARK    4  A    between atoms: C_9  and  C_10
REMARK    5  A    between atoms: C_20  and  O_21
REMARK                            x       y       z     vdW  Elec       q    Type
REMARK                         _______ _______ _______ _____ _____    ______ ____
ROOT
ATOM      1  C   UNL     1       5.345   5.113  17.175  0.00  0.00    +0.000 A 
ATOM      2  C   UNL     1       4.926   6.428  17.269  0.00  0.00    +0.000 A 
ATOM      3 BR   UNL     1       6.052   7.922  17.165  0.00  0.00    +0.000 Br
ATOM      4  N   UNL     1       3.567   6.448  17.471  0.00  0.00    +0.000 N 
ATOM      5  C   UNL     1       3.127   5.159  17.738  0.00  0.00    +0.000 A 
ATOM      6  C   UNL     1       1.869   4.679  18.153  0.00  0.00    +0.000 A 
ATOM      7  C   UNL     1       1.742   3.309  18.387  0.00  0.00    +0.000 A 
ATOM      8 CL   UNL     1       0.236   2.695  18.969  0.00  0.00    +0.000 Cl
ATOM      9  C   UNL     1       2.813   2.442  18.173  0.00  0.00    +0.000 A 
ATOM     10  C   UNL     1       4.044   2.923  17.727  0.00  0.00    +0.000 A 
ATOM     11  C   UNL     1       4.219   4.308  17.537  0.00  0.00    +0.000 A 
ENDROOT
BRANCH   9  12
ATOM     12  O   UNL     1       2.721   1.098  18.405  0.00  0.00    +0.000 OA
ATOM     13  H   UNL     1       3.451   0.859  19.006  0.00  0.00    +0.000 HD
ENDBRANCH   9  12
BRANCH   1  14
ATOM     14  C   UNL     1       6.696   4.579  16.779  0.00  0.00    +0.000 C 
BRANCH  14  16
ATOM     15  N   UNL     1       6.444   3.647  14.492  0.00  0.00    +0.000 N 
ATOM     16  C   UNL     1       7.031   4.567  15.300  0.00  0.00    +0.000 C 
ATOM     17  O   UNL     1       7.826   5.375  14.810  0.00  0.00    +0.000 OA
ATOM     18  H   UNL     1       6.742   3.652  13.526  0.00  0.00    +0.000 HD
ATOM     19  H   UNL     1       6.088   2.776  14.867  0.00  0.00    +0.000 HD
ENDBRANCH  14  16
ENDBRANCH   1  14
BRANCH   4  20
ATOM     20  C   UNL     1       2.697   7.623  17.416  0.00  0.00    +0.000 C 
BRANCH  20  21
ATOM     21  C   UNL     1       2.154   8.065  18.759  0.00  0.00    +0.000 A 
ATOM     22  C   UNL     1       2.264   7.284  19.919  0.00  0.00    +0.000 A 
ATOM     23  C   UNL     1       1.602   7.645  21.088  0.00  0.00    +0.000 A 
ATOM     24  C   UNL     1       0.848   8.816  21.134  0.00  0.00    +0.000 A 
ATOM     25  C   UNL     1       0.798   9.647  20.018  0.00  0.00    +0.000 A 
ATOM     26  C   UNL     1       1.451   9.281  18.840  0.00  0.00    +0.000 A 
ENDBRANCH  20  21
ENDBRANCH   4  20
TORSDOF 5
ENDMDL
MODEL 6
REMARK VINA RESULT:      -6.8      2.868      4.799
REMARK  Name = 
REMARK  5 active torsions:
REMARK  status: ('A' for Active; 'I' for Inactive)
REMARK    1  A    between atoms: C_2  and  C_4
REMARK    2  A    between atoms: C_4  and  C_5
REMARK    3  A    between atoms: N_8  and  C_9
REMARK    4  A    between atoms: C_9  and  C_10
REMARK    5  A    between atoms: C_20  and  O_21
REMARK                            x       y       z     vdW  Elec       q    Type
REMARK                         _______ _______ _______ _____ _____    ______ ____
ROOT
ATOM      1  C   UNL     1       1.936   8.406  18.636  0.00  0.00    +0.000 A 
ATOM      2  C   UNL     1       1.628   7.882  19.878  0.00  0.00    +0.000 A 
ATOM      3 BR   UNL     1       0.519   8.706  21.144  0.00  0.00    +0.000 Br
ATOM      4  N   UNL     1       2.281   6.683  20.029  0.00  0.00    +0.000 N 
ATOM      5  C   UNL     1       3.193   6.528  18.995  0.00  0.00    +0.000 A 
ATOM      6  C   UNL     1       4.194   5.559  18.782  0.00  0.00    +0.000 A 
ATOM      7  C   UNL     1       4.998   5.694  17.649  0.00  0.00    +0.000 A 
ATOM      8 CL   UNL     1       6.283   4.569  17.395  0.00  0.00    +0.000 Cl
ATOM      9  C   UNL     1       4.786   6.728  16.738  0.00  0.00    +0.000 A 
ATOM     10  C   UNL     1       3.769   7.661  16.939  0.00  0.00    +0.000 A 
ATOM     11  C   UNL     1       2.977   7.584  18.102  0.00  0.00    +0.000 A 
ENDROOT
BRANCH   9  12
ATOM     12  O   UNL     1       5.564   6.892  15.626  0.00  0.00    +0.000 OA
ATOM     13  H   UNL     1       4.965   6.927  14.858  0.00  0.00    +0.000 HD
ENDBRANCH   9  12
BRANCH   1  14
ATOM     14  C   UNL     1       1.333   9.597  17.938  0.00  0.00    +0.000 C 
BRANCH  14  16
ATOM     15  N   UNL     1       2.651  11.664  17.552  0.00  0.00    +0.000 N 
ATOM     16  C   UNL     1       1.816  10.969  18.365  0.00  0.00    +0.000 C 
ATOM     17  O   UNL     1       1.466  11.472  19.438  0.00  0.00    +0.000 OA
ATOM     18  H   UNL     1       2.981  12.551  17.910  0.00  0.00    +0.000 HD
ATOM     19  H   UNL     1       3.234  11.188  16.874  0.00  0.00    +0.000 HD
ENDBRANCH  14  16
ENDBRANCH   1  14
BRANCH   4  20
ATOM     20  C   UNL     1       2.069   5.705  21.097  0.00  0.00    +0.000 C 
BRANCH  20  21
ATOM     21  C   UNL     1       1.857   4.286  20.614  0.00  0.00    +0.000 A 
ATOM     22  C   UNL     1       2.661   3.212  21.028  0.00  0.00    +0.000 A 
ATOM     23  C   UNL     1       2.545   1.962  20.429  0.00  0.00    +0.000 A 
ATOM     24  C   UNL     1       1.596   1.747  19.432  0.00  0.00    +0.000 A 
ATOM     25  C   UNL     1       0.732   2.777  19.070  0.00  0.00    +0.000 A 
ATOM     26  C   UNL     1       0.854   4.036  19.660  0.00  0.00    +0.000 A 
ENDBRANCH  20  21
ENDBRANCH   4  20
TORSDOF 5
ENDMDL
MODEL 7
REMARK VINA RESULT:      -6.8      3.552      6.206
REMARK  Name = 
REMARK  5 active torsions:
REMARK  status: ('A' for Active; 'I' for Inactive)
REMARK    1  A    between atoms: C_2  and  C_4
REMARK    2  A    between atoms: C_4  and  C_5
REMARK    3  A    between atoms: N_8  and  C_9
REMARK    4  A    between atoms: C_9  and  C_10
REMARK    5  A    between atoms: C_20  and  O_21
REMARK                            x       y       z     vdW  Elec       q    Type
REMARK                         _______ _______ _______ _____ _____    ______ ____
ROOT
ATOM      1  C   UNL     1       3.775   4.063  19.429  0.00  0.00    +0.000 A 
ATOM      2  C   UNL     1       2.749   4.621  18.688  0.00  0.00    +0.000 A 
ATOM      3 BR   UNL     1       1.059   3.850  18.446  0.00  0.00    +0.000 Br
ATOM      4  N   UNL     1       3.185   5.809  18.152  0.00  0.00    +0.000 N 
ATOM      5  C   UNL     1       4.554   5.921  18.344  0.00  0.00    +0.000 A 
ATOM      6  C   UNL     1       5.482   6.864  17.858  0.00  0.00    +0.000 A 
ATOM      7  C   UNL     1       6.825   6.686  18.194  0.00  0.00    +0.000 A 
ATOM      8 CL   UNL     1       8.000   7.777  17.554  0.00  0.00    +0.000 Cl
ATOM      9  C   UNL     1       7.225   5.637  19.021  0.00  0.00    +0.000 A 
ATOM     10  C   UNL     1       6.293   4.730  19.527  0.00  0.00    +0.000 A 
ATOM     11  C   UNL     1       4.938   4.850  19.159  0.00  0.00    +0.000 A 
ENDROOT
BRANCH   9  12
ATOM     12  O   UNL     1       8.533   5.431  19.358  0.00  0.00    +0.000 OA
ATOM     13  H   UNL     1       8.663   4.467  19.434  0.00  0.00    +0.000 HD
ENDBRANCH   9  12
BRANCH   1  14
ATOM     14  C   UNL     1       3.735   2.870  20.347  0.00  0.00    +0.000 C 
BRANCH  14  16
ATOM     15  N   UNL     1       4.273   1.048  18.750  0.00  0.00    +0.000 N 
ATOM     16  C   UNL     1       4.538   1.651  19.937  0.00  0.00    +0.000 C 
ATOM     17  O   UNL     1       5.430   1.192  20.657  0.00  0.00    +0.000 OA
ATOM     18  H   UNL     1       4.804   0.210  18.551  0.00  0.00    +0.000 HD
ATOM     19  H   UNL     1       3.366   1.142  18.309  0.00  0.00    +0.000 HD
ENDBRANCH  14  16
ENDBRANCH   1  14
BRANCH   4  20
ATOM     20  C   UNL     1       2.359   6.815  17.482  0.00  0.00    +0.000 C 
BRANCH  20  21
ATOM     21  C   UNL     1       1.928   7.964  18.369  0.00  0.00    +0.000 A 
ATOM     22  C   UNL     1       1.794   7.844  19.760  0.00  0.00    +0.000 A 
ATOM     23  C   UNL     1       1.230   8.867  20.515  0.00  0.00    +0.000 A 
ATOM     24  C   UNL     1       0.822  10.049  19.899  0.00  0.00    +0.000 A 
ATOM     25  C   UNL     1       1.026  10.220  18.532  0.00  0.00    +0.000 A 
ATOM     26  C   UNL     1       1.581   9.189  17.771  0.00  0.00    +0.000 A 
ENDBRANCH  20  21
ENDBRANCH   4  20
TORSDOF 5
ENDMDL
MODEL 8
REMARK VINA RESULT:      -6.8      4.826      7.373
REMARK  Name = 
REMARK  5 active torsions:
REMARK  status: ('A' for Active; 'I' for Inactive)
REMARK    1  A    between atoms: C_2  and  C_4
REMARK    2  A    between atoms: C_4  and  C_5
REMARK    3  A    between atoms: N_8  and  C_9
REMARK    4  A    between atoms: C_9  and  C_10
REMARK    5  A    between atoms: C_20  and  O_21
REMARK                            x       y       z     vdW  Elec       q    Type
REMARK                         _______ _______ _______ _____ _____    ______ ____
ROOT
ATOM      1  C   UNL     1      -2.100  12.610  20.288  0.00  0.00    +0.000 A 
ATOM      2  C   UNL     1      -0.730  12.521  20.120  0.00  0.00    +0.000 A 
ATOM      3 BR   UNL     1       0.540  13.398  21.182  0.00  0.00    +0.000 Br
ATOM      4  N   UNL     1      -0.467  11.707  19.045  0.00  0.00    +0.000 N 
ATOM      5  C   UNL     1      -1.650  11.449  18.368  0.00  0.00    +0.000 A 
ATOM      6  C   UNL     1      -1.891  10.803  17.139  0.00  0.00    +0.000 A 
ATOM      7  C   UNL     1      -3.210  10.733  16.689  0.00  0.00    +0.000 A 
ATOM      8 CL   UNL     1      -3.534  10.017  15.152  0.00  0.00    +0.000 Cl
ATOM      9  C   UNL     1      -4.257  11.245  17.455  0.00  0.00    +0.000 A 
ATOM     10  C   UNL     1      -4.012  11.850  18.687  0.00  0.00    +0.000 A 
ATOM     11  C   UNL     1      -2.685  11.986  19.141  0.00  0.00    +0.000 A 
ENDROOT
BRANCH   9  12
ATOM     12  O   UNL     1      -5.557  11.201  17.035  0.00  0.00    +0.000 OA
ATOM     13  H   UNL     1      -5.708  11.990  16.482  0.00  0.00    +0.000 HD
ENDBRANCH   9  12
BRANCH   1  14
ATOM     14  C   UNL     1      -2.873  13.227  21.424  0.00  0.00    +0.000 C 
BRANCH  14  16
ATOM     15  N   UNL     1      -4.293  12.330  23.251  0.00  0.00    +0.000 N 
ATOM     16  C   UNL     1      -3.068  12.385  22.669  0.00  0.00    +0.000 C 
ATOM     17  O   UNL     1      -2.138  11.744  23.168  0.00  0.00    +0.000 OA
ATOM     18  H   UNL     1      -4.354  11.794  24.106  0.00  0.00    +0.000 HD
ATOM     19  H   UNL     1      -4.967  13.074  23.118  0.00  0.00    +0.000 HD
ENDBRANCH  14  16
ENDBRANCH   1  14
BRANCH   4  20
ATOM     20  C   UNL     1       0.841  11.180  18.652  0.00  0.00    +0.000 C 
BRANCH  20  21
ATOM     21  C   UNL     1       1.129   9.781  19.153  0.00  0.00    +0.000 A 
ATOM     22  C   UNL     1       0.793   9.350  20.445  0.00  0.00    +0.000 A 
ATOM     23  C   UNL     1       1.230   8.118  20.924  0.00  0.00    +0.000 A 
ATOM     24  C   UNL     1       1.980   7.275  20.106  0.00  0.00    +0.000 A 
ATOM     25  C   UNL     1       2.250   7.649  18.793  0.00  0.00    +0.000 A 
ATOM     26  C   UNL     1       1.823   8.889  18.314  0.00  0.00    +0.000 A 
ENDBRANCH  20  21
ENDBRANCH   4  20
TORSDOF 5
ENDMDL
MODEL 9
REMARK VINA RESULT:      -6.7      1.526      1.809
REMARK  Name = 
REMARK  5 active torsions:
REMARK  status: ('A' for Active; 'I' for Inactive)
REMARK    1  A    between atoms: C_2  and  C_4
REMARK    2  A    between atoms: C_4  and  C_5
REMARK    3  A    between atoms: N_8  and  C_9
REMARK    4  A    between atoms: C_9  and  C_10
REMARK    5  A    between atoms: C_20  and  O_21
REMARK                            x       y       z     vdW  Elec       q    Type
REMARK                         _______ _______ _______ _____ _____    ______ ____
ROOT
ATOM      1  C   UNL     1       1.888   6.770  19.933  0.00  0.00    +0.000 A 
ATOM      2  C   UNL     1       2.431   7.179  18.728  0.00  0.00    +0.000 A 
ATOM      3 BR   UNL     1       1.933   8.726  17.797  0.00  0.00    +0.000 Br
ATOM      4  N   UNL     1       3.369   6.257  18.329  0.00  0.00    +0.000 N 
ATOM      5  C   UNL     1       3.282   5.137  19.142  0.00  0.00    +0.000 A 
ATOM      6  C   UNL     1       3.910   3.878  19.053  0.00  0.00    +0.000 A 
ATOM      7  C   UNL     1       3.582   2.919  20.013  0.00  0.00    +0.000 A 
ATOM      8 CL   UNL     1       4.275   1.342  19.892  0.00  0.00    +0.000 Cl
ATOM      9  C   UNL     1       2.698   3.215  21.050  0.00  0.00    +0.000 A 
ATOM     10  C   UNL     1       2.109   4.475  21.149  0.00  0.00    +0.000 A 
ATOM     11  C   UNL     1       2.377   5.446  20.163  0.00  0.00    +0.000 A 
ENDROOT
BRANCH   9  12
ATOM     12  O   UNL     1       2.349   2.294  21.997  0.00  0.00    +0.000 OA
ATOM     13  H   UNL     1       2.578   2.673  22.866  0.00  0.00    +0.000 HD
ENDBRANCH   9  12
BRANCH   1  14
ATOM     14  C   UNL     1       0.963   7.522  20.854  0.00  0.00    +0.000 C 
BRANCH  14  16
ATOM     15  N   UNL     1       2.170   8.987  22.453  0.00  0.00    +0.000 N 
ATOM     16  C   UNL     1       1.417   8.889  21.327  0.00  0.00    +0.000 C 
ATOM     17  O   UNL     1       1.120   9.918  20.712  0.00  0.00    +0.000 OA
ATOM     18  H   UNL     1       2.402   9.926  22.750  0.00  0.00    +0.000 HD
ATOM     19  H   UNL     1       2.141   8.267  23.164  0.00  0.00    +0.000 HD
ENDBRANCH  14  16
ENDBRANCH   1  14
BRANCH   4  20
ATOM     20  C   UNL     1       4.323   6.407  17.229  0.00  0.00    +0.000 C 
BRANCH  20  21
ATOM     21  C   UNL     1       5.763   6.575  17.666  0.00  0.00    +0.000 A 
ATOM     22  C   UNL     1       6.403   5.682  18.539  0.00  0.00    +0.000 A 
ATOM     23  C   UNL     1       7.665   5.966  19.052  0.00  0.00    +0.000 A 
ATOM     24  C   UNL     1       8.330   7.129  18.672  0.00  0.00    +0.000 A 
ATOM     25  C   UNL     1       7.747   7.984  17.741  0.00  0.00    +0.000 A 
ATOM     26  C   UNL     1       6.476   7.708  17.234  0.00  0.00    +0.000 A 
ENDBRANCH  20  21
ENDBRANCH   4  20
TORSDOF 5
ENDMDL
