MODEL 1
REMARK VINA RESULT:      -7.7      0.000      0.000
REMARK  Name = 
REMARK  5 active torsions:
REMARK  status: ('A' for Active; 'I' for Inactive)
REMARK    1  A    between atoms: N_1  and  C_2
REMARK    2  A    between atoms: C_3  and  C_4
REMARK    3  A    between atoms: N_6  and  C_7
REMARK    4  A    between atoms: C_7  and  C_8
REMARK    5  A    between atoms: N_16  and  C_17
REMARK                            x       y       z     vdW  Elec       q    Type
REMARK                         _______ _______ _______ _____ _____    ______ ____
ROOT
ATOM      1  C   UNL     1       4.530   4.328  17.464  0.00  0.00    +0.000 A 
ATOM      2  C   UNL     1       5.206   5.164  16.642  0.00  0.00    +0.000 A 
ATOM      3  S   UNL     1       4.573   6.770  16.618  0.00  0.00    +0.000 S 
ATOM      4  C   UNL     1       3.422   6.375  17.893  0.00  0.00    +0.000 A 
ATOM      5  S   UNL     1       2.595   7.624  18.643  0.00  0.00    +0.000 S 
ATOM      6  N   UNL     1       3.474   4.980  18.150  0.00  0.00    +0.000 N 
ENDROOT
BRANCH   6   7
ATOM      7  C   UNL     1       2.604   4.350  19.117  0.00  0.00    +0.000 A 
ATOM      8  C   UNL     1       2.891   4.419  20.491  0.00  0.00    +0.000 A 
ATOM      9  C   UNL     1       2.127   3.731  21.439  0.00  0.00    +0.000 A 
ATOM     10  C   UNL     1       1.017   3.001  21.037  0.00  0.00    +0.000 A 
ATOM     11  C   UNL     1       0.668   2.974  19.690  0.00  0.00    +0.000 A 
ATOM     12  C   UNL     1       1.457   3.637  18.739  0.00  0.00    +0.000 A 
ENDBRANCH   6   7
BRANCH   2  13
ATOM     13  C   UNL     1       6.396   4.833  15.796  0.00  0.00    +0.000 C 
ATOM     14  O   UNL     1       7.505   4.647  16.283  0.00  0.00    +0.000 OA
ATOM     15  N   UNL     1       6.128   4.774  14.448  0.00  0.00    +0.000 N 
ATOM     16  H   UNL     1       5.159   4.822  14.148  0.00  0.00    +0.000 HD
BRANCH  15  17
ATOM     17  C   UNL     1       7.098   4.437  13.422  0.00  0.00    +0.000 C 
BRANCH  17  18
ATOM     18  C   UNL     1       6.425   3.882  12.159  0.00  0.00    +0.000 C 
ATOM     19  C   UNL     1       4.916   3.711  12.265  0.00  0.00    +0.000 C 
ATOM     20  C   UNL     1       4.649   2.633  11.245  0.00  0.00    +0.000 C 
ATOM     21  C   UNL     1       5.868   1.747  11.382  0.00  0.00    +0.000 C 
ATOM     22  O   UNL     1       6.949   2.574  11.841  0.00  0.00    +0.000 OA
ENDBRANCH  17  18
ENDBRANCH  15  17
ENDBRANCH   2  13
BRANCH   1  23
ATOM     23  N   UNL     1       4.826   2.981  17.591  0.00  0.00    +0.000 N 
ATOM     24  H   UNL     1       5.798   2.813  17.880  0.00  0.00    +0.000 HD
ATOM     25  H   UNL     1       4.576   2.444  16.766  0.00  0.00    +0.000 HD
ENDBRANCH   1  23
TORSDOF 5
ENDMDL
MODEL 2
REMARK VINA RESULT:      -7.5      0.123      1.029
REMARK  Name = 
REMARK  5 active torsions:
REMARK  status: ('A' for Active; 'I' for Inactive)
REMARK    1  A    between atoms: N_1  and  C_2
REMARK    2  A    between atoms: C_3  and  C_4
REMARK    3  A    between atoms: N_6  and  C_7
REMARK    4  A    between atoms: C_7  and  C_8
REMARK    5  A    between atoms: N_16  and  C_17
REMARK                            x       y       z     vdW  Elec       q    Type
REMARK                         _______ _______ _______ _____ _____    ______ ____
ROOT
ATOM      1  C   UNL     1       4.609   4.221  17.471  0.00  0.00    +0.000 A 
ATOM      2  C   UNL     1       5.257   5.086  16.656  0.00  0.00    +0.000 A 
ATOM      3  S   UNL     1       4.595   6.679  16.673  0.00  0.00    +0.000 S 
ATOM      4  C   UNL     1       3.470   6.239  17.956  0.00  0.00    +0.000 A 
ATOM      5  S   UNL     1       2.631   7.457  18.743  0.00  0.00    +0.000 S 
ATOM      6  N   UNL     1       3.552   4.840  18.184  0.00  0.00    +0.000 N 
ENDROOT
BRANCH   6   7
ATOM      7  C   UNL     1       2.708   4.175  19.152  0.00  0.00    +0.000 A 
ATOM      8  C   UNL     1       1.545   3.499  18.745  0.00  0.00    +0.000 A 
ATOM      9  C   UNL     1       0.656   2.940  19.669  0.00  0.00    +0.000 A 
ATOM     10  C   UNL     1       0.942   2.993  21.025  0.00  0.00    +0.000 A 
ATOM     11  C   UNL     1       2.123   3.593  21.453  0.00  0.00    +0.000 A 
ATOM     12  C   UNL     1       2.994   4.183  20.525  0.00  0.00    +0.000 A 
ENDBRANCH   6   7
BRANCH   2  13
ATOM     13  C   UNL     1       6.440   4.793  15.786  0.00  0.00    +0.000 C 
ATOM     14  O   UNL     1       7.562   4.629  16.252  0.00  0.00    +0.000 OA
ATOM     15  N   UNL     1       6.151   4.742  14.443  0.00  0.00    +0.000 N 
ATOM     16  H   UNL     1       5.176   4.769  14.159  0.00  0.00    +0.000 HD
BRANCH  15  17
ATOM     17  C   UNL     1       7.111   4.440  13.397  0.00  0.00    +0.000 C 
BRANCH  17  18
ATOM     18  C   UNL     1       6.431   3.879  12.140  0.00  0.00    +0.000 C 
ATOM     19  C   UNL     1       4.926   3.684  12.265  0.00  0.00    +0.000 C 
ATOM     20  C   UNL     1       4.664   2.606  11.244  0.00  0.00    +0.000 C 
ATOM     21  C   UNL     1       5.899   1.739  11.362  0.00  0.00    +0.000 C 
ATOM     22  O   UNL     1       6.972   2.582  11.810  0.00  0.00    +0.000 OA
ENDBRANCH  17  18
ENDBRANCH  15  17
ENDBRANCH   2  13
BRANCH   1  23
ATOM     23  N   UNL     1       4.932   2.878  17.567  0.00  0.00    +0.000 N 
ATOM     24  H   UNL     1       4.131   2.263  17.382  0.00  0.00    +0.000 HD
ATOM     25  H   UNL     1       5.396   2.647  18.441  0.00  0.00    +0.000 HD
ENDBRANCH   1  23
TORSDOF 5
ENDMDL
MODEL 3
REMARK VINA RESULT:      -6.9      2.062      3.023
REMARK  Name = 
REMARK  5 active torsions:
REMARK  status: ('A' for Active; 'I' for Inactive)
REMARK    1  A    between atoms: N_1  and  C_2
REMARK    2  A    between atoms: C_3  and  C_4
REMARK    3  A    between atoms: N_6  and  C_7
REMARK    4  A    between atoms: C_7  and  C_8
REMARK    5  A    between atoms: N_16  and  C_17
REMARK                            x       y       z     vdW  Elec       q    Type
REMARK                         _______ _______ _______ _____ _____    ______ ____
ROOT
ATOM      1  C   UNL     1       4.551   6.098  17.241  0.00  0.00    +0.000 A 
ATOM      2  C   UNL     1       5.043   4.936  16.751  0.00  0.00    +0.000 A 
ATOM      3  S   UNL     1       4.116   3.551  17.197  0.00  0.00    +0.000 S 
ATOM      4  C   UNL     1       2.896   4.566  17.963  0.00  0.00    +0.000 A 
ATOM      5  S   UNL     1       1.437   3.873  18.405  0.00  0.00    +0.000 S 
ATOM      6  N   UNL     1       3.356   5.910  17.980  0.00  0.00    +0.000 N 
ENDROOT
BRANCH   6   7
ATOM      7  C   UNL     1       2.586   6.970  18.591  0.00  0.00    +0.000 A 
ATOM      8  C   UNL     1       2.115   8.048  17.823  0.00  0.00    +0.000 A 
ATOM      9  C   UNL     1       1.461   9.139  18.406  0.00  0.00    +0.000 A 
ATOM     10  C   UNL     1       1.210   9.147  19.771  0.00  0.00    +0.000 A 
ATOM     11  C   UNL     1       1.602   8.059  20.545  0.00  0.00    +0.000 A 
ATOM     12  C   UNL     1       2.288   6.984  19.962  0.00  0.00    +0.000 A 
ENDBRANCH   6   7
BRANCH   2  13
ATOM     13  C   UNL     1       6.261   4.760  15.899  0.00  0.00    +0.000 C 
ATOM     14  O   UNL     1       7.393   4.894  16.351  0.00  0.00    +0.000 OA
ATOM     15  N   UNL     1       5.989   4.456  14.586  0.00  0.00    +0.000 N 
ATOM     16  H   UNL     1       5.029   4.246  14.330  0.00  0.00    +0.000 HD
BRANCH  15  17
ATOM     17  C   UNL     1       6.991   4.201  13.567  0.00  0.00    +0.000 C 
BRANCH  17  18
ATOM     18  C   UNL     1       6.357   3.767  12.237  0.00  0.00    +0.000 C 
ATOM     19  C   UNL     1       4.838   3.676  12.257  0.00  0.00    +0.000 C 
ATOM     20  C   UNL     1       4.569   2.682  11.155  0.00  0.00    +0.000 C 
ATOM     21  C   UNL     1       5.730   1.721  11.293  0.00  0.00    +0.000 C 
ATOM     22  O   UNL     1       6.827   2.455  11.859  0.00  0.00    +0.000 OA
ENDBRANCH  17  18
ENDBRANCH  15  17
ENDBRANCH   2  13
BRANCH   1  23
ATOM     23  N   UNL     1       5.168   7.324  17.059  0.00  0.00    +0.000 N 
ATOM     24  H   UNL     1       4.923   8.004  17.789  0.00  0.00    +0.000 HD
ATOM     25  H   UNL     1       5.029   7.700  16.126  0.00  0.00    +0.000 HD
ENDBRANCH   1  23
TORSDOF 5
ENDMDL
MODEL 4
REMARK VINA RESULT:      -6.9      2.041      2.894
REMARK  Name = 
REMARK  5 active torsions:
REMARK  status: ('A' for Active; 'I' for Inactive)
REMARK    1  A    between atoms: N_1  and  C_2
REMARK    2  A    between atoms: C_3  and  C_4
REMARK    3  A    between atoms: N_6  and  C_7
REMARK    4  A    between atoms: C_7  and  C_8
REMARK    5  A    between atoms: N_16  and  C_17
REMARK                            x       y       z     vdW  Elec       q    Type
REMARK                         _______ _______ _______ _____ _____    ______ ____
ROOT
ATOM      1  C   UNL     1       4.647   6.032  17.231  0.00  0.00    +0.000 A 
ATOM      2  C   UNL     1       5.084   4.855  16.725  0.00  0.00    +0.000 A 
ATOM      3  S   UNL     1       4.082   3.512  17.137  0.00  0.00    +0.000 S 
ATOM      4  C   UNL     1       2.908   4.576  17.909  0.00  0.00    +0.000 A 
ATOM      5  S   UNL     1       1.409   3.952  18.324  0.00  0.00    +0.000 S 
ATOM      6  N   UNL     1       3.436   5.893  17.955  0.00  0.00    +0.000 N 
ENDROOT
BRANCH   6   7
ATOM      7  C   UNL     1       2.716   6.981  18.577  0.00  0.00    +0.000 A 
ATOM      8  C   UNL     1       2.409   6.946  19.949  0.00  0.00    +0.000 A 
ATOM      9  C   UNL     1       1.622   7.932  20.553  0.00  0.00    +0.000 A 
ATOM     10  C   UNL     1       1.173   9.013  19.808  0.00  0.00    +0.000 A 
ATOM     11  C   UNL     1       1.522   9.111  18.464  0.00  0.00    +0.000 A 
ATOM     12  C   UNL     1       2.282   8.101  17.854  0.00  0.00    +0.000 A 
ENDBRANCH   6   7
BRANCH   2  13
ATOM     13  C   UNL     1       6.300   4.631  15.882  0.00  0.00    +0.000 C 
ATOM     14  O   UNL     1       7.426   4.592  16.366  0.00  0.00    +0.000 OA
ATOM     15  N   UNL     1       6.036   4.490  14.540  0.00  0.00    +0.000 N 
ATOM     16  H   UNL     1       5.067   4.415  14.246  0.00  0.00    +0.000 HD
BRANCH  15  17
ATOM     17  C   UNL     1       7.034   4.228  13.519  0.00  0.00    +0.000 C 
BRANCH  17  18
ATOM     18  C   UNL     1       6.397   3.759  12.203  0.00  0.00    +0.000 C 
ATOM     19  C   UNL     1       4.880   3.639  12.238  0.00  0.00    +0.000 C 
ATOM     20  C   UNL     1       4.620   2.622  11.156  0.00  0.00    +0.000 C 
ATOM     21  C   UNL     1       5.801   1.686  11.300  0.00  0.00    +0.000 C 
ATOM     22  O   UNL     1       6.889   2.450  11.843  0.00  0.00    +0.000 OA
ENDBRANCH  17  18
ENDBRANCH  15  17
ENDBRANCH   2  13
BRANCH   1  23
ATOM     23  N   UNL     1       5.330   7.227  17.077  0.00  0.00    +0.000 N 
ATOM     24  H   UNL     1       4.945   7.981  17.658  0.00  0.00    +0.000 HD
ATOM     25  H   UNL     1       5.422   7.505  16.105  0.00  0.00    +0.000 HD
ENDBRANCH   1  23
TORSDOF 5
ENDMDL
MODEL 5
REMARK VINA RESULT:      -6.7      0.885      1.075
REMARK  Name = 
REMARK  5 active torsions:
REMARK  status: ('A' for Active; 'I' for Inactive)
REMARK    1  A    between atoms: N_1  and  C_2
REMARK    2  A    between atoms: C_3  and  C_4
REMARK    3  A    between atoms: N_6  and  C_7
REMARK    4  A    between atoms: C_7  and  C_8
REMARK    5  A    between atoms: N_16  and  C_17
REMARK                            x       y       z     vdW  Elec       q    Type
REMARK                         _______ _______ _______ _____ _____    ______ ____
ROOT
ATOM      1  C   UNL     1       4.314   4.815  17.749  0.00  0.00    +0.000 A 
ATOM      2  C   UNL     1       4.865   5.798  16.999  0.00  0.00    +0.000 A 
ATOM      3  S   UNL     1       4.089   7.328  17.189  0.00  0.00    +0.000 S 
ATOM      4  C   UNL     1       3.051   6.687  18.460  0.00  0.00    +0.000 A 
ATOM      5  S   UNL     1       2.157   7.760  19.386  0.00  0.00    +0.000 S 
ATOM      6  N   UNL     1       3.244   5.283  18.552  0.00  0.00    +0.000 N 
ENDROOT
BRANCH   6   7
ATOM      7  C   UNL     1       2.490   4.469  19.479  0.00  0.00    +0.000 A 
ATOM      8  C   UNL     1       2.881   4.367  20.825  0.00  0.00    +0.000 A 
ATOM      9  C   UNL     1       2.234   3.504  21.717  0.00  0.00    +0.000 A 
ATOM     10  C   UNL     1       1.137   2.766  21.295  0.00  0.00    +0.000 A 
ATOM     11  C   UNL     1       0.684   2.902  19.986  0.00  0.00    +0.000 A 
ATOM     12  C   UNL     1       1.357   3.741  19.086  0.00  0.00    +0.000 A 
ENDBRANCH   6   7
BRANCH   2  13
ATOM     13  C   UNL     1       6.030   5.678  16.067  0.00  0.00    +0.000 C 
ATOM     14  O   UNL     1       7.139   6.114  16.357  0.00  0.00    +0.000 OA
ATOM     15  N   UNL     1       5.736   5.058  14.876  0.00  0.00    +0.000 N 
ATOM     16  H   UNL     1       4.824   4.623  14.773  0.00  0.00    +0.000 HD
BRANCH  15  17
ATOM     17  C   UNL     1       6.695   4.786  13.821  0.00  0.00    +0.000 C 
BRANCH  17  18
ATOM     18  C   UNL     1       6.402   3.458  13.110  0.00  0.00    +0.000 C 
ATOM     19  C   UNL     1       7.196   3.232  11.830  0.00  0.00    +0.000 C 
ATOM     20  C   UNL     1       6.306   2.278  11.073  0.00  0.00    +0.000 C 
ATOM     21  C   UNL     1       4.921   2.768  11.436  0.00  0.00    +0.000 C 
ATOM     22  O   UNL     1       5.011   3.385  12.730  0.00  0.00    +0.000 OA
ENDBRANCH  17  18
ENDBRANCH  15  17
ENDBRANCH   2  13
BRANCH   1  23
ATOM     23  N   UNL     1       4.738   3.497  17.706  0.00  0.00    +0.000 N 
ATOM     24  H   UNL     1       4.995   3.133  18.631  0.00  0.00    +0.000 HD
ATOM     25  H   UNL     1       5.468   3.341  17.018  0.00  0.00    +0.000 HD
ENDBRANCH   1  23
TORSDOF 5
ENDMDL
MODEL 6
REMARK VINA RESULT:      -6.6      0.832      1.450
REMARK  Name = 
REMARK  5 active torsions:
REMARK  status: ('A' for Active; 'I' for Inactive)
REMARK    1  A    between atoms: N_1  and  C_2
REMARK    2  A    between atoms: C_3  and  C_4
REMARK    3  A    between atoms: N_6  and  C_7
REMARK    4  A    between atoms: C_7  and  C_8
REMARK    5  A    between atoms: N_16  and  C_17
REMARK                            x       y       z     vdW  Elec       q    Type
REMARK                         _______ _______ _______ _____ _____    ______ ____
ROOT
ATOM      1  C   UNL     1       4.385   4.700  17.679  0.00  0.00    +0.000 A 
ATOM      2  C   UNL     1       4.909   5.693  16.923  0.00  0.00    +0.000 A 
ATOM      3  S   UNL     1       4.122   7.214  17.140  0.00  0.00    +0.000 S 
ATOM      4  C   UNL     1       3.119   6.554  18.431  0.00  0.00    +0.000 A 
ATOM      5  S   UNL     1       2.236   7.612  19.383  0.00  0.00    +0.000 S 
ATOM      6  N   UNL     1       3.328   5.151  18.509  0.00  0.00    +0.000 N 
ENDROOT
BRANCH   6   7
ATOM      7  C   UNL     1       2.603   4.325  19.448  0.00  0.00    +0.000 A 
ATOM      8  C   UNL     1       1.475   3.594  19.037  0.00  0.00    +0.000 A 
ATOM      9  C   UNL     1       0.693   2.873  19.946  0.00  0.00    +0.000 A 
ATOM     10  C   UNL     1       1.060   2.816  21.283  0.00  0.00    +0.000 A 
ATOM     11  C   UNL     1       2.214   3.470  21.704  0.00  0.00    +0.000 A 
ATOM     12  C   UNL     1       2.974   4.222  20.796  0.00  0.00    +0.000 A 
ENDBRANCH   6   7
BRANCH   2  13
ATOM     13  C   UNL     1       6.054   5.591  15.965  0.00  0.00    +0.000 C 
ATOM     14  O   UNL     1       7.177   5.989  16.253  0.00  0.00    +0.000 OA
ATOM     15  N   UNL     1       5.724   5.032  14.752  0.00  0.00    +0.000 N 
ATOM     16  H   UNL     1       4.801   4.622  14.647  0.00  0.00    +0.000 HD
BRANCH  15  17
ATOM     17  C   UNL     1       6.658   4.789  13.668  0.00  0.00    +0.000 C 
BRANCH  17  18
ATOM     18  C   UNL     1       6.435   3.415  13.019  0.00  0.00    +0.000 C 
ATOM     19  C   UNL     1       7.265   3.160  11.769  0.00  0.00    +0.000 C 
ATOM     20  C   UNL     1       6.432   2.133  11.043  0.00  0.00    +0.000 C 
ATOM     21  C   UNL     1       5.021   2.583  11.352  0.00  0.00    +0.000 C 
ATOM     22  O   UNL     1       5.056   3.266  12.615  0.00  0.00    +0.000 OA
ENDBRANCH  17  18
ENDBRANCH  15  17
ENDBRANCH   2  13
BRANCH   1  23
ATOM     23  N   UNL     1       4.821   3.387  17.619  0.00  0.00    +0.000 N 
ATOM     24  H   UNL     1       4.194   2.785  17.070  0.00  0.00    +0.000 HD
ATOM     25  H   UNL     1       5.018   2.996  18.535  0.00  0.00    +0.000 HD
ENDBRANCH   1  23
TORSDOF 5
ENDMDL
MODEL 7
REMARK VINA RESULT:      -6.5      2.591      3.823
REMARK  Name = 
REMARK  5 active torsions:
REMARK  status: ('A' for Active; 'I' for Inactive)
REMARK    1  A    between atoms: N_1  and  C_2
REMARK    2  A    between atoms: C_3  and  C_4
REMARK    3  A    between atoms: N_6  and  C_7
REMARK    4  A    between atoms: C_7  and  C_8
REMARK    5  A    between atoms: N_16  and  C_17
REMARK                            x       y       z     vdW  Elec       q    Type
REMARK                         _______ _______ _______ _____ _____    ______ ____
ROOT
ATOM      1  C   UNL     1       4.089   6.175  18.291  0.00  0.00    +0.000 A 
ATOM      2  C   UNL     1       4.638   4.938  18.319  0.00  0.00    +0.000 A 
ATOM      3  S   UNL     1       3.851   3.858  19.411  0.00  0.00    +0.000 S 
ATOM      4  C   UNL     1       2.608   5.057  19.761  0.00  0.00    +0.000 A 
ATOM      5  S   UNL     1       1.238   4.574  20.595  0.00  0.00    +0.000 S 
ATOM      6  N   UNL     1       2.963   6.286  19.144  0.00  0.00    +0.000 N 
ENDROOT
BRANCH   6   7
ATOM      7  C   UNL     1       2.154   7.475  19.295  0.00  0.00    +0.000 A 
ATOM      8  C   UNL     1       1.805   8.251  18.176  0.00  0.00    +0.000 A 
ATOM      9  C   UNL     1       1.116   9.462  18.305  0.00  0.00    +0.000 A 
ATOM     10  C   UNL     1       0.706   9.895  19.557  0.00  0.00    +0.000 A 
ATOM     11  C   UNL     1       0.975   9.111  20.675  0.00  0.00    +0.000 A 
ATOM     12  C   UNL     1       1.697   7.915  20.545  0.00  0.00    +0.000 A 
ENDBRANCH   6   7
BRANCH   2  13
ATOM     13  C   UNL     1       5.809   4.451  17.523  0.00  0.00    +0.000 C 
ATOM     14  O   UNL     1       6.925   4.337  18.016  0.00  0.00    +0.000 OA
ATOM     15  N   UNL     1       5.516   4.166  16.210  0.00  0.00    +0.000 N 
ATOM     16  H   UNL     1       4.542   4.174  15.922  0.00  0.00    +0.000 HD
BRANCH  15  17
ATOM     17  C   UNL     1       6.464   3.646  15.241  0.00  0.00    +0.000 C 
BRANCH  17  18
ATOM     18  C   UNL     1       6.546   4.531  13.990  0.00  0.00    +0.000 C 
ATOM     19  C   UNL     1       6.715   3.770  12.682  0.00  0.00    +0.000 C 
ATOM     20  C   UNL     1       7.379   4.800  11.803  0.00  0.00    +0.000 C 
ATOM     21  C   UNL     1       8.282   5.525  12.778  0.00  0.00    +0.000 C 
ATOM     22  O   UNL     1       7.679   5.424  14.077  0.00  0.00    +0.000 OA
ENDBRANCH  17  18
ENDBRANCH  15  17
ENDBRANCH   2  13
BRANCH   1  23
ATOM     23  N   UNL     1       4.597   7.216  17.533  0.00  0.00    +0.000 N 
ATOM     24  H   UNL     1       5.097   7.913  18.099  0.00  0.00    +0.000 HD
ATOM     25  H   UNL     1       3.898   7.644  16.933  0.00  0.00    +0.000 HD
ENDBRANCH   1  23
TORSDOF 5
ENDMDL
MODEL 8
REMARK VINA RESULT:      -6.4      4.722      7.023
REMARK  Name = 
REMARK  5 active torsions:
REMARK  status: ('A' for Active; 'I' for Inactive)
REMARK    1  A    between atoms: N_1  and  C_2
REMARK    2  A    between atoms: C_3  and  C_4
REMARK    3  A    between atoms: N_6  and  C_7
REMARK    4  A    between atoms: C_7  and  C_8
REMARK    5  A    between atoms: N_16  and  C_17
REMARK                            x       y       z     vdW  Elec       q    Type
REMARK                         _______ _______ _______ _____ _____    ______ ____
ROOT
ATOM      1  C   UNL     1       1.675   8.832  18.878  0.00  0.00    +0.000 A 
ATOM      2  C   UNL     1       1.959   7.697  19.559  0.00  0.00    +0.000 A 
ATOM      3  S   UNL     1       1.470   7.744  21.214  0.00  0.00    +0.000 S 
ATOM      4  C   UNL     1       0.695   9.309  20.980  0.00  0.00    +0.000 A 
ATOM      5  S   UNL     1      -0.313   9.894  22.184  0.00  0.00    +0.000 S 
ATOM      6  N   UNL     1       1.002   9.789  19.679  0.00  0.00    +0.000 N 
ENDROOT
BRANCH   6   7
ATOM      7  C   UNL     1       0.542  11.079  19.215  0.00  0.00    +0.000 A 
ATOM      8  C   UNL     1       1.361  12.216  19.330  0.00  0.00    +0.000 A 
ATOM      9  C   UNL     1       0.902  13.492  18.988  0.00  0.00    +0.000 A 
ATOM     10  C   UNL     1      -0.373  13.653  18.465  0.00  0.00    +0.000 A 
ATOM     11  C   UNL     1      -1.180  12.535  18.273  0.00  0.00    +0.000 A 
ATOM     12  C   UNL     1      -0.728  11.261  18.650  0.00  0.00    +0.000 A 
ENDBRANCH   6   7
BRANCH   2  13
ATOM     13  C   UNL     1       2.626   6.468  19.026  0.00  0.00    +0.000 C 
ATOM     14  O   UNL     1       2.206   5.883  18.034  0.00  0.00    +0.000 OA
ATOM     15  N   UNL     1       3.721   6.063  19.752  0.00  0.00    +0.000 N 
ATOM     16  H   UNL     1       4.066   6.676  20.484  0.00  0.00    +0.000 HD
BRANCH  15  17
ATOM     17  C   UNL     1       4.561   4.925  19.424  0.00  0.00    +0.000 C 
BRANCH  17  18
ATOM     18  C   UNL     1       5.949   5.361  18.936  0.00  0.00    +0.000 C 
ATOM     19  C   UNL     1       5.937   6.301  17.738  0.00  0.00    +0.000 C 
ATOM     20  C   UNL     1       7.289   6.044  17.123  0.00  0.00    +0.000 C 
ATOM     21  C   UNL     1       7.475   4.560  17.355  0.00  0.00    +0.000 C 
ATOM     22  O   UNL     1       6.725   4.213  18.529  0.00  0.00    +0.000 OA
ENDBRANCH  17  18
ENDBRANCH  15  17
ENDBRANCH   2  13
BRANCH   1  23
ATOM     23  N   UNL     1       2.032   9.038  17.556  0.00  0.00    +0.000 N 
ATOM     24  H   UNL     1       2.965   9.457  17.458  0.00  0.00    +0.000 HD
ATOM     25  H   UNL     1       1.328   9.549  17.034  0.00  0.00    +0.000 HD
ENDBRANCH   1  23
TORSDOF 5
ENDMDL
MODEL 9
REMARK VINA RESULT:      -6.4      4.831      7.189
REMARK  Name = 
REMARK  5 active torsions:
REMARK  status: ('A' for Active; 'I' for Inactive)
REMARK    1  A    between atoms: N_1  and  C_2
REMARK    2  A    between atoms: C_3  and  C_4
REMARK    3  A    between atoms: N_6  and  C_7
REMARK    4  A    between atoms: C_7  and  C_8
REMARK    5  A    between atoms: N_16  and  C_17
REMARK                            x       y       z     vdW  Elec       q    Type
REMARK                         _______ _______ _______ _____ _____    ______ ____
ROOT
ATOM      1  C   UNL     1       1.646   9.013  18.979  0.00  0.00    +0.000 A 
ATOM      2  C   UNL     1       1.913   7.840  19.600  0.00  0.00    +0.000 A 
ATOM      3  S   UNL     1       1.412   7.803  21.251  0.00  0.00    +0.000 S 
ATOM      4  C   UNL     1       0.655   9.387  21.097  0.00  0.00    +0.000 A 
ATOM      5  S   UNL     1      -0.357   9.916  22.322  0.00  0.00    +0.000 S 
ATOM      6  N   UNL     1       0.976   9.932  19.826  0.00  0.00    +0.000 N 
ENDROOT
BRANCH   6   7
ATOM      7  C   UNL     1       0.534  11.250  19.429  0.00  0.00    +0.000 A 
ATOM      8  C   UNL     1      -0.679  11.421  18.739  0.00  0.00    +0.000 A 
ATOM      9  C   UNL     1      -1.078  12.670  18.250  0.00  0.00    +0.000 A 
ATOM     10  C   UNL     1      -0.298  13.791  18.493  0.00  0.00    +0.000 A 
ATOM     11  C   UNL     1       0.872  13.663  19.236  0.00  0.00    +0.000 A 
ATOM     12  C   UNL     1       1.286  12.403  19.694  0.00  0.00    +0.000 A 
ENDBRANCH   6   7
BRANCH   2  13
ATOM     13  C   UNL     1       2.571   6.634  19.006  0.00  0.00    +0.000 C 
ATOM     14  O   UNL     1       2.177   6.130  17.961  0.00  0.00    +0.000 OA
ATOM     15  N   UNL     1       3.628   6.151  19.742  0.00  0.00    +0.000 N 
ATOM     16  H   UNL     1       3.958   6.702  20.528  0.00  0.00    +0.000 HD
BRANCH  15  17
ATOM     17  C   UNL     1       4.453   5.017  19.366  0.00  0.00    +0.000 C 
BRANCH  17  18
ATOM     18  C   UNL     1       5.853   5.455  18.913  0.00  0.00    +0.000 C 
ATOM     19  C   UNL     1       5.878   6.293  17.642  0.00  0.00    +0.000 C 
ATOM     20  C   UNL     1       7.267   6.028  17.118  0.00  0.00    +0.000 C 
ATOM     21  C   UNL     1       7.480   4.575  17.482  0.00  0.00    +0.000 C 
ATOM     22  O   UNL     1       6.680   4.302  18.642  0.00  0.00    +0.000 OA
ENDBRANCH  17  18
ENDBRANCH  15  17
ENDBRANCH   2  13
BRANCH   1  23
ATOM     23  N   UNL     1       2.016   9.285  17.673  0.00  0.00    +0.000 N 
ATOM     24  H   UNL     1       1.551  10.118  17.294  0.00  0.00    +0.000 HD
ATOM     25  H   UNL     1       1.917   8.481  17.061  0.00  0.00    +0.000 HD
ENDBRANCH   1  23
TORSDOF 5
ENDMDL
