MODEL 1
REMARK VINA RESULT:      -6.4      0.000      0.000
REMARK  Name = 
REMARK  1 active torsions:
REMARK  status: ('A' for Active; 'I' for Inactive)
REMARK    1  A    between atoms: C_5  and  N_6
REMARK                            x       y       z     vdW  Elec       q    Type
REMARK                         _______ _______ _______ _____ _____    ______ ____
ROOT
ATOM      1  N   UNL     1       2.131   7.119  19.347  0.00  0.00    +0.000 N 
ATOM      2  C   UNL     1       2.718   7.936  18.267  0.00  0.00    +0.000 C 
ATOM      3  C   UNL     1       1.769   9.098  17.895  0.00  0.00    +0.000 C 
ATOM      4  N   UNL     1       1.381   9.843  19.091  0.00  0.00    +0.000 N 
ATOM      5  C   UNL     1       1.549  11.195  19.174  0.00  0.00    +0.000 A 
ATOM      6  N   UNL     1       2.076  11.849  18.124  0.00  0.00    +0.000 NA
ATOM      7  C   UNL     1       2.236  13.180  18.225  0.00  0.00    +0.000 A 
ATOM      8  C   UNL     1       1.896  13.900  19.338  0.00  0.00    +0.000 A 
ATOM      9  C   UNL     1       1.371  13.160  20.365  0.00  0.00    +0.000 A 
ATOM     10  N   UNL     1       1.193  11.827  20.305  0.00  0.00    +0.000 NA
ATOM     11  C   UNL     1       0.816   9.063  20.192  0.00  0.00    +0.000 C 
ATOM     12  C   UNL     1       1.749   7.885  20.552  0.00  0.00    +0.000 C 
ENDROOT
BRANCH   1  17
ATOM     13  N   UNL     1       1.668   1.606  18.846  0.00  0.00    +0.000 N 
ATOM     14  C   UNL     1       1.737   2.988  18.992  0.00  0.00    +0.000 A 
ATOM     15  C   UNL     1       1.465   3.581  20.212  0.00  0.00    +0.000 A 
ATOM     16  C   UNL     1       1.583   4.968  20.330  0.00  0.00    +0.000 A 
ATOM     17  C   UNL     1       1.982   5.755  19.247  0.00  0.00    +0.000 A 
ATOM     18  C   UNL     1       2.230   5.036  18.074  0.00  0.00    +0.000 A 
ATOM     19  N   UNL     1       2.119   3.690  17.919  0.00  0.00    +0.000 NA
ATOM     20  H   UNL     1       0.775   1.241  19.155  0.00  0.00    +0.000 HD
ATOM     21  H   UNL     1       1.845   1.408  17.864  0.00  0.00    +0.000 HD
ENDBRANCH   1  17
TORSDOF 1
ENDMDL
MODEL 2
REMARK VINA RESULT:      -6.4      0.626      1.096
REMARK  Name = 
REMARK  1 active torsions:
REMARK  status: ('A' for Active; 'I' for Inactive)
REMARK    1  A    between atoms: C_5  and  N_6
REMARK                            x       y       z     vdW  Elec       q    Type
REMARK                         _______ _______ _______ _____ _____    ______ ____
ROOT
ATOM      1  N   UNL     1       2.172   7.138  19.286  0.00  0.00    +0.000 N 
ATOM      2  C   UNL     1       2.694   8.017  18.220  0.00  0.00    +0.000 C 
ATOM      3  C   UNL     1       1.692   9.157  17.924  0.00  0.00    +0.000 C 
ATOM      4  N   UNL     1       1.318   9.840  19.160  0.00  0.00    +0.000 N 
ATOM      5  C   UNL     1       1.440  11.194  19.292  0.00  0.00    +0.000 A 
ATOM      6  N   UNL     1       1.908  11.906  18.253  0.00  0.00    +0.000 NA
ATOM      7  C   UNL     1       2.024  13.237  18.401  0.00  0.00    +0.000 A 
ATOM      8  C   UNL     1       1.695  13.901  19.552  0.00  0.00    +0.000 A 
ATOM      9  C   UNL     1       1.231  13.103  20.564  0.00  0.00    +0.000 A 
ATOM     10  N   UNL     1       1.099  11.768  20.458  0.00  0.00    +0.000 NA
ATOM     11  C   UNL     1       0.818   8.998  20.248  0.00  0.00    +0.000 C 
ATOM     12  C   UNL     1       1.803   7.843  20.531  0.00  0.00    +0.000 C 
ENDROOT
BRANCH   1  17
ATOM     13  N   UNL     1       1.629   1.631  18.800  0.00  0.00    +0.000 N 
ATOM     14  C   UNL     1       1.809   3.007  18.894  0.00  0.00    +0.000 A 
ATOM     15  C   UNL     1       2.043   3.766  17.762  0.00  0.00    +0.000 A 
ATOM     16  C   UNL     1       2.178   5.151  17.892  0.00  0.00    +0.000 A 
ATOM     17  C   UNL     1       2.069   5.774  19.137  0.00  0.00    +0.000 A 
ATOM     18  C   UNL     1       1.828   4.899  20.199  0.00  0.00    +0.000 A 
ATOM     19  N   UNL     1       1.698   3.548  20.113  0.00  0.00    +0.000 NA
ATOM     20  H   UNL     1       2.392   1.187  18.304  0.00  0.00    +0.000 HD
ATOM     21  H   UNL     1       1.535   1.284  19.751  0.00  0.00    +0.000 HD
ENDBRANCH   1  17
TORSDOF 1
ENDMDL
MODEL 3
REMARK VINA RESULT:      -6.3      2.883      3.989
REMARK  Name = 
REMARK  1 active torsions:
REMARK  status: ('A' for Active; 'I' for Inactive)
REMARK    1  A    between atoms: C_5  and  N_6
REMARK                            x       y       z     vdW  Elec       q    Type
REMARK                         _______ _______ _______ _____ _____    ______ ____
ROOT
ATOM      1  N   UNL     1       3.907   6.731  17.901  0.00  0.00    +0.000 N 
ATOM      2  C   UNL     1       3.475   8.109  17.596  0.00  0.00    +0.000 C 
ATOM      3  C   UNL     1       1.999   8.313  18.009  0.00  0.00    +0.000 C 
ATOM      4  N   UNL     1       1.794   7.893  19.393  0.00  0.00    +0.000 N 
ATOM      5  C   UNL     1       1.231   8.728  20.316  0.00  0.00    +0.000 A 
ATOM      6  N   UNL     1       0.853   9.959  19.930  0.00  0.00    +0.000 NA
ATOM      7  C   UNL     1       0.302  10.768  20.852  0.00  0.00    +0.000 A 
ATOM      8  C   UNL     1       0.113  10.407  22.158  0.00  0.00    +0.000 A 
ATOM      9  C   UNL     1       0.530   9.140  22.471  0.00  0.00    +0.000 A 
ATOM     10  N   UNL     1       1.084   8.298  21.580  0.00  0.00    +0.000 NA
ATOM     11  C   UNL     1       2.232   6.540  19.739  0.00  0.00    +0.000 C 
ATOM     12  C   UNL     1       3.699   6.323  19.306  0.00  0.00    +0.000 C 
ENDROOT
BRANCH   1  17
ATOM     13  N   UNL     1       6.370   3.519  14.095  0.00  0.00    +0.000 N 
ATOM     14  C   UNL     1       5.709   4.297  15.041  0.00  0.00    +0.000 A 
ATOM     15  C   UNL     1       5.007   3.704  16.074  0.00  0.00    +0.000 A 
ATOM     16  C   UNL     1       4.391   4.518  17.028  0.00  0.00    +0.000 A 
ATOM     17  C   UNL     1       4.484   5.910  16.959  0.00  0.00    +0.000 A 
ATOM     18  C   UNL     1       5.223   6.384  15.872  0.00  0.00    +0.000 A 
ATOM     19  N   UNL     1       5.830   5.625  14.921  0.00  0.00    +0.000 NA
ATOM     20  H   UNL     1       5.751   2.838  13.673  0.00  0.00    +0.000 HD
ATOM     21  H   UNL     1       6.758   4.163  13.409  0.00  0.00    +0.000 HD
ENDBRANCH   1  17
TORSDOF 1
ENDMDL
MODEL 4
REMARK VINA RESULT:      -6.1      2.671      6.829
REMARK  Name = 
REMARK  1 active torsions:
REMARK  status: ('A' for Active; 'I' for Inactive)
REMARK    1  A    between atoms: C_5  and  N_6
REMARK                            x       y       z     vdW  Elec       q    Type
REMARK                         _______ _______ _______ _____ _____    ______ ____
ROOT
ATOM      1  N   UNL     1       1.994   7.732  19.193  0.00  0.00    +0.000 N 
ATOM      2  C   UNL     1       2.372   8.155  17.830  0.00  0.00    +0.000 C 
ATOM      3  C   UNL     1       3.866   7.856  17.569  0.00  0.00    +0.000 C 
ATOM      4  N   UNL     1       4.171   6.464  17.891  0.00  0.00    +0.000 N 
ATOM      5  C   UNL     1       4.773   5.638  16.985  0.00  0.00    +0.000 A 
ATOM      6  N   UNL     1       5.094   6.129  15.775  0.00  0.00    +0.000 NA
ATOM      7  C   UNL     1       5.683   5.301  14.894  0.00  0.00    +0.000 A 
ATOM      8  C   UNL     1       5.967   3.989  15.164  0.00  0.00    +0.000 A 
ATOM      9  C   UNL     1       5.603   3.566  16.415  0.00  0.00    +0.000 A 
ATOM     10  N   UNL     1       5.013   4.361  17.326  0.00  0.00    +0.000 NA
ATOM     11  C   UNL     1       3.791   6.002  19.226  0.00  0.00    +0.000 C 
ATOM     12  C   UNL     1       2.304   6.321  19.502  0.00  0.00    +0.000 C 
ENDROOT
BRANCH   1  17
ATOM     13  N   UNL     1      -0.615  11.176  22.686  0.00  0.00    +0.000 N 
ATOM     14  C   UNL     1       0.079  10.313  21.844  0.00  0.00    +0.000 A 
ATOM     15  C   UNL     1       0.637   9.146  22.335  0.00  0.00    +0.000 A 
ATOM     16  C   UNL     1       1.292   8.285  21.451  0.00  0.00    +0.000 A 
ATOM     17  C   UNL     1       1.378   8.578  20.088  0.00  0.00    +0.000 A 
ATOM     18  C   UNL     1       0.772   9.781  19.718  0.00  0.00    +0.000 A 
ATOM     19  N   UNL     1       0.134  10.648  20.549  0.00  0.00    +0.000 NA
ATOM     20  H   UNL     1      -0.061  11.434  23.494  0.00  0.00    +0.000 HD
ATOM     21  H   UNL     1      -0.876  11.983  22.125  0.00  0.00    +0.000 HD
ENDBRANCH   1  17
TORSDOF 1
ENDMDL
MODEL 5
REMARK VINA RESULT:      -6.1      2.834      4.089
REMARK  Name = 
REMARK  1 active torsions:
REMARK  status: ('A' for Active; 'I' for Inactive)
REMARK    1  A    between atoms: C_5  and  N_6
REMARK                            x       y       z     vdW  Elec       q    Type
REMARK                         _______ _______ _______ _____ _____    ______ ____
ROOT
ATOM      1  N   UNL     1       3.987   6.671  17.906  0.00  0.00    +0.000 N 
ATOM      2  C   UNL     1       3.567   8.054  17.604  0.00  0.00    +0.000 C 
ATOM      3  C   UNL     1       2.084   8.262  17.987  0.00  0.00    +0.000 C 
ATOM      4  N   UNL     1       1.847   7.830  19.363  0.00  0.00    +0.000 N 
ATOM      5  C   UNL     1       1.268   8.660  20.280  0.00  0.00    +0.000 A 
ATOM      6  N   UNL     1       0.904   9.896  19.897  0.00  0.00    +0.000 NA
ATOM      7  C   UNL     1       0.338  10.700  20.814  0.00  0.00    +0.000 A 
ATOM      8  C   UNL     1       0.118  10.327  22.113  0.00  0.00    +0.000 A 
ATOM      9  C   UNL     1       0.522   9.056  22.424  0.00  0.00    +0.000 A 
ATOM     10  N   UNL     1       1.092   8.219  21.537  0.00  0.00    +0.000 NA
ATOM     11  C   UNL     1       2.272   6.473  19.705  0.00  0.00    +0.000 C 
ATOM     12  C   UNL     1       3.747   6.252  19.302  0.00  0.00    +0.000 C 
ENDROOT
BRANCH   1  17
ATOM     13  N   UNL     1       6.257   3.265  14.150  0.00  0.00    +0.000 N 
ATOM     14  C   UNL     1       5.731   4.147  15.089  0.00  0.00    +0.000 A 
ATOM     15  C   UNL     1       5.723   5.509  14.849  0.00  0.00    +0.000 A 
ATOM     16  C   UNL     1       5.150   6.359  15.798  0.00  0.00    +0.000 A 
ATOM     17  C   UNL     1       4.580   5.856  16.969  0.00  0.00    +0.000 A 
ATOM     18  C   UNL     1       4.649   4.465  17.091  0.00  0.00    +0.000 A 
ATOM     19  N   UNL     1       5.204   3.607  16.194  0.00  0.00    +0.000 NA
ATOM     20  H   UNL     1       7.200   3.520  13.885  0.00  0.00    +0.000 HD
ATOM     21  H   UNL     1       6.212   2.337  14.564  0.00  0.00    +0.000 HD
ENDBRANCH   1  17
TORSDOF 1
ENDMDL
MODEL 6
REMARK VINA RESULT:      -6.0      2.005      2.723
REMARK  Name = 
REMARK  1 active torsions:
REMARK  status: ('A' for Active; 'I' for Inactive)
REMARK    1  A    between atoms: C_5  and  N_6
REMARK                            x       y       z     vdW  Elec       q    Type
REMARK                         _______ _______ _______ _____ _____    ______ ____
ROOT
ATOM      1  N   UNL     1       2.098   5.949  19.638  0.00  0.00    +0.000 N 
ATOM      2  C   UNL     1       1.257   6.455  20.741  0.00  0.00    +0.000 C 
ATOM      3  C   UNL     1       1.593   7.934  21.038  0.00  0.00    +0.000 C 
ATOM      4  N   UNL     1       1.543   8.725  19.811  0.00  0.00    +0.000 N 
ATOM      5  C   UNL     1       0.776   9.852  19.719  0.00  0.00    +0.000 A 
ATOM      6  N   UNL     1       0.062  10.238  20.790  0.00  0.00    +0.000 NA
ATOM      7  C   UNL     1      -0.689  11.348  20.681  0.00  0.00    +0.000 A 
ATOM      8  C   UNL     1      -0.766  12.099  19.539  0.00  0.00    +0.000 A 
ATOM      9  C   UNL     1      -0.013  11.636  18.493  0.00  0.00    +0.000 A 
ATOM     10  N   UNL     1       0.753  10.531  18.560  0.00  0.00    +0.000 NA
ATOM     11  C   UNL     1       2.346   8.241  18.688  0.00  0.00    +0.000 C 
ATOM     12  C   UNL     1       2.032   6.756  18.402  0.00  0.00    +0.000 C 
ENDROOT
BRANCH   1  17
ATOM     13  N   UNL     1       5.286   1.424  20.112  0.00  0.00    +0.000 N 
ATOM     14  C   UNL     1       4.450   2.528  19.974  0.00  0.00    +0.000 A 
ATOM     15  C   UNL     1       3.165   2.507  20.487  0.00  0.00    +0.000 A 
ATOM     16  C   UNL     1       2.369   3.648  20.364  0.00  0.00    +0.000 A 
ATOM     17  C   UNL     1       2.853   4.804  19.747  0.00  0.00    +0.000 A 
ATOM     18  C   UNL     1       4.165   4.699  19.276  0.00  0.00    +0.000 A 
ATOM     19  N   UNL     1       4.967   3.604  19.370  0.00  0.00    +0.000 NA
ATOM     20  H   UNL     1       4.848   0.579  19.768  0.00  0.00    +0.000 HD
ATOM     21  H   UNL     1       6.144   1.644  19.612  0.00  0.00    +0.000 HD
ENDBRANCH   1  17
TORSDOF 1
ENDMDL
MODEL 7
REMARK VINA RESULT:      -5.9      2.848      6.879
REMARK  Name = 
REMARK  1 active torsions:
REMARK  status: ('A' for Active; 'I' for Inactive)
REMARK    1  A    between atoms: C_5  and  N_6
REMARK                            x       y       z     vdW  Elec       q    Type
REMARK                         _______ _______ _______ _____ _____    ______ ____
ROOT
ATOM      1  N   UNL     1       2.060   7.644  18.978  0.00  0.00    +0.000 N 
ATOM      2  C   UNL     1       2.491   8.119  17.649  0.00  0.00    +0.000 C 
ATOM      3  C   UNL     1       3.993   7.824  17.434  0.00  0.00    +0.000 C 
ATOM      4  N   UNL     1       4.282   6.419  17.711  0.00  0.00    +0.000 N 
ATOM      5  C   UNL     1       4.915   5.627  16.795  0.00  0.00    +0.000 A 
ATOM      6  N   UNL     1       5.284   6.164  15.620  0.00  0.00    +0.000 NA
ATOM      7  C   UNL     1       5.905   5.370  14.730  0.00  0.00    +0.000 A 
ATOM      8  C   UNL     1       6.173   4.047  14.957  0.00  0.00    +0.000 A 
ATOM      9  C   UNL     1       5.760   3.575  16.175  0.00  0.00    +0.000 A 
ATOM     10  N   UNL     1       5.137   4.336  17.094  0.00  0.00    +0.000 NA
ATOM     11  C   UNL     1       3.848   5.905  19.010  0.00  0.00    +0.000 C 
ATOM     12  C   UNL     1       2.353   6.219  19.241  0.00  0.00    +0.000 C 
ENDROOT
BRANCH   1  17
ATOM     13  N   UNL     1      -0.431  10.889  22.737  0.00  0.00    +0.000 N 
ATOM     14  C   UNL     1       0.150  10.079  21.767  0.00  0.00    +0.000 A 
ATOM     15  C   UNL     1       0.162  10.468  20.440  0.00  0.00    +0.000 A 
ATOM     16  C   UNL     1       0.790   9.646  19.500  0.00  0.00    +0.000 A 
ATOM     17  C   UNL     1       1.412   8.455  19.882  0.00  0.00    +0.000 A 
ATOM     18  C   UNL     1       1.334   8.178  21.249  0.00  0.00    +0.000 A 
ATOM     19  N   UNL     1       0.726   8.948  22.191  0.00  0.00    +0.000 NA
ATOM     20  H   UNL     1      -1.383  11.135  22.497  0.00  0.00    +0.000 HD
ATOM     21  H   UNL     1      -0.375  10.377  23.615  0.00  0.00    +0.000 HD
ENDBRANCH   1  17
TORSDOF 1
ENDMDL
MODEL 8
REMARK VINA RESULT:      -5.9      1.340      7.552
REMARK  Name = 
REMARK  1 active torsions:
REMARK  status: ('A' for Active; 'I' for Inactive)
REMARK    1  A    between atoms: C_5  and  N_6
REMARK                            x       y       z     vdW  Elec       q    Type
REMARK                         _______ _______ _______ _____ _____    ______ ____
ROOT
ATOM      1  N   UNL     1       1.225   9.933  18.939  0.00  0.00    +0.000 N 
ATOM      2  C   UNL     1       1.611   9.041  17.827  0.00  0.00    +0.000 C 
ATOM      3  C   UNL     1       2.641   7.994  18.309  0.00  0.00    +0.000 C 
ATOM      4  N   UNL     1       2.153   7.313  19.507  0.00  0.00    +0.000 N 
ATOM      5  C   UNL     1       2.080   5.951  19.572  0.00  0.00    +0.000 A 
ATOM      6  N   UNL     1       2.475   5.230  18.509  0.00  0.00    +0.000 NA
ATOM      7  C   UNL     1       2.393   3.890  18.589  0.00  0.00    +0.000 A 
ATOM      8  C   UNL     1       1.926   3.226  19.692  0.00  0.00    +0.000 A 
ATOM      9  C   UNL     1       1.539   4.034  20.729  0.00  0.00    +0.000 A 
ATOM     10  N   UNL     1       1.605   5.377  20.690  0.00  0.00    +0.000 NA
ATOM     11  C   UNL     1       1.739   8.165  20.622  0.00  0.00    +0.000 C 
ATOM     12  C   UNL     1       0.728   9.229  20.140  0.00  0.00    +0.000 C 
ENDROOT
BRANCH   1  17
ATOM     13  N   UNL     1       1.456  15.480  18.734  0.00  0.00    +0.000 N 
ATOM     14  C   UNL     1       1.404  14.089  18.734  0.00  0.00    +0.000 A 
ATOM     15  C   UNL     1       2.398  13.348  18.120  0.00  0.00    +0.000 A 
ATOM     16  C   UNL     1       2.333  11.953  18.176  0.00  0.00    +0.000 A 
ATOM     17  C   UNL     1       1.295  11.304  18.848  0.00  0.00    +0.000 A 
ATOM     18  C   UNL     1       0.359  12.164  19.428  0.00  0.00    +0.000 A 
ATOM     19  N   UNL     1       0.384  13.523  19.389  0.00  0.00    +0.000 NA
ATOM     20  H   UNL     1       1.559  15.849  17.797  0.00  0.00    +0.000 HD
ATOM     21  H   UNL     1       0.602  15.802  19.182  0.00  0.00    +0.000 HD
ENDBRANCH   1  17
TORSDOF 1
ENDMDL
MODEL 9
REMARK VINA RESULT:      -5.8      2.369      3.339
REMARK  Name = 
REMARK  1 active torsions:
REMARK  status: ('A' for Active; 'I' for Inactive)
REMARK    1  A    between atoms: C_5  and  N_6
REMARK                            x       y       z     vdW  Elec       q    Type
REMARK                         _______ _______ _______ _____ _____    ______ ____
ROOT
ATOM      1  N   UNL     1       2.234   7.665  18.859  0.00  0.00    +0.000 N 
ATOM      2  C   UNL     1       1.513   7.770  20.143  0.00  0.00    +0.000 C 
ATOM      3  C   UNL     1       1.498   9.236  20.633  0.00  0.00    +0.000 C 
ATOM      4  N   UNL     1       1.012  10.122  19.577  0.00  0.00    +0.000 N 
ATOM      5  C   UNL     1      -0.027  10.982  19.790  0.00  0.00    +0.000 A 
ATOM      6  N   UNL     1      -0.603  11.014  21.004  0.00  0.00    +0.000 NA
ATOM      7  C   UNL     1      -1.626  11.865  21.196  0.00  0.00    +0.000 A 
ATOM      8  C   UNL     1      -2.111  12.694  20.221  0.00  0.00    +0.000 A 
ATOM      9  C   UNL     1      -1.474  12.597  19.012  0.00  0.00    +0.000 A 
ATOM     10  N   UNL     1      -0.447  11.760  18.778  0.00  0.00    +0.000 NA
ATOM     11  C   UNL     1       1.687  10.029  18.282  0.00  0.00    +0.000 C 
ATOM     12  C   UNL     1       1.727   8.562  17.799  0.00  0.00    +0.000 C 
ENDROOT
BRANCH   1  17
ATOM     13  N   UNL     1       6.320   3.974  18.119  0.00  0.00    +0.000 N 
ATOM     14  C   UNL     1       5.331   4.937  18.296  0.00  0.00    +0.000 A 
ATOM     15  C   UNL     1       5.138   5.930  17.353  0.00  0.00    +0.000 A 
ATOM     16  C   UNL     1       4.109   6.855  17.546  0.00  0.00    +0.000 A 
ATOM     17  C   UNL     1       3.271   6.782  18.661  0.00  0.00    +0.000 A 
ATOM     18  C   UNL     1       3.566   5.732  19.535  0.00  0.00    +0.000 A 
ATOM     19  N   UNL     1       4.563   4.819  19.386  0.00  0.00    +0.000 NA
ATOM     20  H   UNL     1       7.225   4.396  17.950  0.00  0.00    +0.000 HD
ATOM     21  H   UNL     1       6.316   3.395  18.955  0.00  0.00    +0.000 HD
ENDBRANCH   1  17
TORSDOF 1
ENDMDL
