MODEL 1
REMARK VINA RESULT:      -7.9      0.000      0.000
REMARK  Name = 
REMARK  9 active torsions:
REMARK  status: ('A' for Active; 'I' for Inactive)
REMARK    1  A    between atoms: C_1  and  C_2
REMARK    2  A    between atoms: C_2  and  C_3
REMARK    3  A    between atoms: C_8  and  C_9
REMARK    4  A    between atoms: C_11  and  S_12
REMARK    5  A    between atoms: S_12  and  C_13
REMARK    6  A    between atoms: C_17  and  S_18
REMARK    7  A    between atoms: S_18  and  C_21
REMARK    8  A    between atoms: C_24  and  C_25
REMARK    9  A    between atoms: C_25  and  N_26
REMARK                            x       y       z     vdW  Elec       q    Type
REMARK                         _______ _______ _______ _____ _____    ______ ____
ROOT
ATOM      1  C   UNL     1       4.239   5.531  17.625  0.00  0.00    +0.000 A 
ATOM      2  C   UNL     1       3.908   4.557  18.579  0.00  0.00    +0.000 A 
ATOM      3  C   UNL     1       2.909   4.770  19.524  0.00  0.00    +0.000 A 
ATOM      4  C   UNL     1       2.234   5.993  19.578  0.00  0.00    +0.000 A 
ATOM      5  C   UNL     1       2.576   6.997  18.667  0.00  0.00    +0.000 A 
ATOM      6  C   UNL     1       3.562   6.766  17.703  0.00  0.00    +0.000 A 
ENDROOT
BRANCH   1  12
ATOM      7  C   UNL     1       6.617   5.805  16.568  0.00  0.00    +0.000 A 
ATOM      8  C   UNL     1       7.464   5.514  15.475  0.00  0.00    +0.000 A 
ATOM      9  C   UNL     1       7.037   4.727  14.414  0.00  0.00    +0.000 A 
ATOM     10  C   UNL     1       5.752   4.222  14.404  0.00  0.00    +0.000 A 
ATOM     11  C   UNL     1       4.875   4.496  15.444  0.00  0.00    +0.000 A 
ATOM     12  C   UNL     1       5.268   5.286  16.551  0.00  0.00    +0.000 A 
BRANCH   7  14
ATOM     13  C   UNL     1       7.730   5.849  18.918  0.00  0.00    +0.000 C 
ATOM     14  C   UNL     1       7.190   6.632  17.721  0.00  0.00    +0.000 C 
ENDBRANCH   7  14
ENDBRANCH   1  12
BRANCH   3  15
ATOM     15  S   UNL     1       2.470   3.382  20.548  0.00  0.00    +0.000 S 
ATOM     16  C   UNL     1       1.006   2.448  20.026  0.00  0.00    +0.000 C 
ATOM     17  O   UNL     1       3.674   2.432  20.636  0.00  0.00    +0.000 OA
ATOM     18  O   UNL     1       2.332   3.817  22.015  0.00  0.00    +0.000 OA
ENDBRANCH   3  15
BRANCH   5  19
ATOM     19  S   UNL     1       1.797   8.605  18.688  0.00  0.00    +0.000 S 
ATOM     20  O   UNL     1       2.821   9.639  18.195  0.00  0.00    +0.000 OA
ATOM     21  O   UNL     1       0.738   8.716  17.580  0.00  0.00    +0.000 OA
BRANCH  19  22
ATOM     22  C   UNL     1       1.125   9.175  20.237  0.00  0.00    +0.000 A 
ATOM     23  C   UNL     1       1.322   8.564  21.465  0.00  0.00    +0.000 A 
ATOM     24  C   UNL     1       0.583   9.161  22.491  0.00  0.00    +0.000 A 
ATOM     25  C   UNL     1      -0.190  10.232  22.053  0.00  0.00    +0.000 A 
ATOM     26  S   UNL     1       0.043  10.450  20.400  0.00  0.00    +0.000 S 
BRANCH  25  27
ATOM     27  C   UNL     1      -1.109  11.048  22.902  0.00  0.00    +0.000 C 
BRANCH  27  28
ATOM     28  N   UNL     1      -0.660  12.438  22.927  0.00  0.00    +0.000 NA
ATOM     29  H   UNL     1      -0.706  12.796  23.908  0.00  0.00    +0.000 HD
ATOM     30  H   UNL     1      -1.318  13.007  22.347  0.00  0.00    +0.000 HD
ENDBRANCH  27  28
ENDBRANCH  25  27
ENDBRANCH  19  22
ENDBRANCH   5  19
TORSDOF 7
ENDMDL
MODEL 2
REMARK VINA RESULT:      -7.8      0.834      1.014
REMARK  Name = 
REMARK  9 active torsions:
REMARK  status: ('A' for Active; 'I' for Inactive)
REMARK    1  A    between atoms: C_1  and  C_2
REMARK    2  A    between atoms: C_2  and  C_3
REMARK    3  A    between atoms: C_8  and  C_9
REMARK    4  A    between atoms: C_11  and  S_12
REMARK    5  A    between atoms: S_12  and  C_13
REMARK    6  A    between atoms: C_17  and  S_18
REMARK    7  A    between atoms: S_18  and  C_21
REMARK    8  A    between atoms: C_24  and  C_25
REMARK    9  A    between atoms: C_25  and  N_26
REMARK                            x       y       z     vdW  Elec       q    Type
REMARK                         _______ _______ _______ _____ _____    ______ ____
ROOT
ATOM      1  C   UNL     1       4.106   5.482  17.432  0.00  0.00    +0.000 A 
ATOM      2  C   UNL     1       3.634   4.454  18.262  0.00  0.00    +0.000 A 
ATOM      3  C   UNL     1       2.572   4.652  19.138  0.00  0.00    +0.000 A 
ATOM      4  C   UNL     1       1.972   5.909  19.251  0.00  0.00    +0.000 A 
ATOM      5  C   UNL     1       2.452   6.963  18.468  0.00  0.00    +0.000 A 
ATOM      6  C   UNL     1       3.502   6.749  17.569  0.00  0.00    +0.000 A 
ENDROOT
BRANCH   1  12
ATOM      7  C   UNL     1       6.551   5.782  16.548  0.00  0.00    +0.000 A 
ATOM      8  C   UNL     1       7.471   5.515  15.510  0.00  0.00    +0.000 A 
ATOM      9  C   UNL     1       7.121   4.750  14.406  0.00  0.00    +0.000 A 
ATOM     10  C   UNL     1       5.842   4.243  14.296  0.00  0.00    +0.000 A 
ATOM     11  C   UNL     1       4.894   4.494  15.279  0.00  0.00    +0.000 A 
ATOM     12  C   UNL     1       5.207   5.261  16.427  0.00  0.00    +0.000 A 
BRANCH   7  14
ATOM     13  C   UNL     1       7.723   5.791  18.869  0.00  0.00    +0.000 C 
ATOM     14  C   UNL     1       7.041   6.585  17.755  0.00  0.00    +0.000 C 
ENDBRANCH   7  14
ENDBRANCH   1  12
BRANCH   3  15
ATOM     15  S   UNL     1       1.961   3.213  19.991  0.00  0.00    +0.000 S 
ATOM     16  C   UNL     1       2.147   3.227  21.794  0.00  0.00    +0.000 C 
ATOM     17  O   UNL     1       0.479   3.019  19.635  0.00  0.00    +0.000 OA
ATOM     18  O   UNL     1       2.575   1.935  19.399  0.00  0.00    +0.000 OA
ENDBRANCH   3  15
BRANCH   5  19
ATOM     19  S   UNL     1       1.775   8.613  18.575  0.00  0.00    +0.000 S 
ATOM     20  O   UNL     1       2.862   9.606  18.136  0.00  0.00    +0.000 OA
ATOM     21  O   UNL     1       0.726   8.847  17.476  0.00  0.00    +0.000 OA
BRANCH  19  22
ATOM     22  C   UNL     1       1.136   9.140  20.153  0.00  0.00    +0.000 A 
ATOM     23  C   UNL     1       1.445   8.560  21.372  0.00  0.00    +0.000 A 
ATOM     24  C   UNL     1       0.712   9.105  22.432  0.00  0.00    +0.000 A 
ATOM     25  C   UNL     1      -0.169  10.103  22.027  0.00  0.00    +0.000 A 
ATOM     26  S   UNL     1      -0.038  10.323  20.363  0.00  0.00    +0.000 S 
BRANCH  25  27
ATOM     27  C   UNL     1      -1.108  10.850  22.917  0.00  0.00    +0.000 C 
BRANCH  27  28
ATOM     28  N   UNL     1      -0.676  12.239  23.043  0.00  0.00    +0.000 NA
ATOM     29  H   UNL     1       0.015  12.453  22.287  0.00  0.00    +0.000 HD
ATOM     30  H   UNL     1      -0.189  12.351  23.962  0.00  0.00    +0.000 HD
ENDBRANCH  27  28
ENDBRANCH  25  27
ENDBRANCH  19  22
ENDBRANCH   5  19
TORSDOF 7
ENDMDL
MODEL 3
REMARK VINA RESULT:      -7.6      4.000      7.686
REMARK  Name = 
REMARK  9 active torsions:
REMARK  status: ('A' for Active; 'I' for Inactive)
REMARK    1  A    between atoms: C_1  and  C_2
REMARK    2  A    between atoms: C_2  and  C_3
REMARK    3  A    between atoms: C_8  and  C_9
REMARK    4  A    between atoms: C_11  and  S_12
REMARK    5  A    between atoms: S_12  and  C_13
REMARK    6  A    between atoms: C_17  and  S_18
REMARK    7  A    between atoms: S_18  and  C_21
REMARK    8  A    between atoms: C_24  and  C_25
REMARK    9  A    between atoms: C_25  and  N_26
REMARK                            x       y       z     vdW  Elec       q    Type
REMARK                         _______ _______ _______ _____ _____    ______ ____
ROOT
ATOM      1  C   UNL     1       2.854   6.727  18.730  0.00  0.00    +0.000 A 
ATOM      2  C   UNL     1       2.209   5.566  19.180  0.00  0.00    +0.000 A 
ATOM      3  C   UNL     1       2.849   4.330  19.184  0.00  0.00    +0.000 A 
ATOM      4  C   UNL     1       4.150   4.205  18.689  0.00  0.00    +0.000 A 
ATOM      5  C   UNL     1       4.799   5.339  18.193  0.00  0.00    +0.000 A 
ATOM      6  C   UNL     1       4.159   6.583  18.217  0.00  0.00    +0.000 A 
ENDROOT
BRANCH   1  12
ATOM      7  C   UNL     1       1.395   8.565  19.890  0.00  0.00    +0.000 A 
ATOM      8  C   UNL     1       0.821   9.852  19.791  0.00  0.00    +0.000 A 
ATOM      9  C   UNL     1       1.035  10.661  18.683  0.00  0.00    +0.000 A 
ATOM     10  C   UNL     1       1.811  10.206  17.637  0.00  0.00    +0.000 A 
ATOM     11  C   UNL     1       2.381   8.941  17.676  0.00  0.00    +0.000 A 
ATOM     12  C   UNL     1       2.198   8.084  18.788  0.00  0.00    +0.000 A 
BRANCH   7  14
ATOM     13  C   UNL     1      -0.031   8.206  22.034  0.00  0.00    +0.000 C 
ATOM     14  C   UNL     1       1.153   7.767  21.172  0.00  0.00    +0.000 C 
ENDBRANCH   7  14
ENDBRANCH   1  12
BRANCH   3  15
ATOM     15  S   UNL     1       1.977   2.982  19.954  0.00  0.00    +0.000 S 
ATOM     16  C   UNL     1       2.446   2.615  21.666  0.00  0.00    +0.000 C 
ATOM     17  O   UNL     1       0.469   3.268  19.890  0.00  0.00    +0.000 OA
ATOM     18  O   UNL     1       2.073   1.715  19.089  0.00  0.00    +0.000 OA
ENDBRANCH   3  15
BRANCH   5  19
ATOM     19  S   UNL     1       6.446   5.267  17.502  0.00  0.00    +0.000 S 
ATOM     20  O   UNL     1       7.096   6.649  17.669  0.00  0.00    +0.000 OA
ATOM     21  O   UNL     1       7.373   4.416  18.385  0.00  0.00    +0.000 OA
BRANCH  19  22
ATOM     22  C   UNL     1       6.603   4.775  15.797  0.00  0.00    +0.000 A 
ATOM     23  C   UNL     1       7.444   5.370  14.870  0.00  0.00    +0.000 A 
ATOM     24  C   UNL     1       7.277   4.854  13.580  0.00  0.00    +0.000 A 
ATOM     25  C   UNL     1       6.302   3.864  13.511  0.00  0.00    +0.000 A 
ATOM     26  S   UNL     1       5.649   3.616  15.043  0.00  0.00    +0.000 S 
BRANCH  25  27
ATOM     27  C   UNL     1       5.874   3.148  12.272  0.00  0.00    +0.000 C 
BRANCH  27  28
ATOM     28  N   UNL     1       4.499   3.509  11.938  0.00  0.00    +0.000 NA
ATOM     29  H   UNL     1       4.343   4.517  12.171  0.00  0.00    +0.000 HD
ATOM     30  H   UNL     1       3.855   2.940  12.534  0.00  0.00    +0.000 HD
ENDBRANCH  27  28
ENDBRANCH  25  27
ENDBRANCH  19  22
ENDBRANCH   5  19
TORSDOF 7
ENDMDL
MODEL 4
REMARK VINA RESULT:      -7.5      2.647      4.851
REMARK  Name = 
REMARK  9 active torsions:
REMARK  status: ('A' for Active; 'I' for Inactive)
REMARK    1  A    between atoms: C_1  and  C_2
REMARK    2  A    between atoms: C_2  and  C_3
REMARK    3  A    between atoms: C_8  and  C_9
REMARK    4  A    between atoms: C_11  and  S_12
REMARK    5  A    between atoms: S_12  and  C_13
REMARK    6  A    between atoms: C_17  and  S_18
REMARK    7  A    between atoms: S_18  and  C_21
REMARK    8  A    between atoms: C_24  and  C_25
REMARK    9  A    between atoms: C_25  and  N_26
REMARK                            x       y       z     vdW  Elec       q    Type
REMARK                         _______ _______ _______ _____ _____    ______ ____
ROOT
ATOM      1  C   UNL     1       2.781   5.591  19.045  0.00  0.00    +0.000 A 
ATOM      2  C   UNL     1       3.929   5.514  18.243  0.00  0.00    +0.000 A 
ATOM      3  C   UNL     1       4.384   6.608  17.513  0.00  0.00    +0.000 A 
ATOM      4  C   UNL     1       3.672   7.811  17.522  0.00  0.00    +0.000 A 
ATOM      5  C   UNL     1       2.500   7.900  18.278  0.00  0.00    +0.000 A 
ATOM      6  C   UNL     1       2.064   6.805  19.031  0.00  0.00    +0.000 A 
ENDROOT
BRANCH   1  12
ATOM      7  C   UNL     1       1.726   3.220  19.387  0.00  0.00    +0.000 A 
ATOM      8  C   UNL     1       1.314   2.234  20.311  0.00  0.00    +0.000 A 
ATOM      9  C   UNL     1       1.491   2.399  21.678  0.00  0.00    +0.000 A 
ATOM     10  C   UNL     1       2.066   3.555  22.164  0.00  0.00    +0.000 A 
ATOM     11  C   UNL     1       2.469   4.563  21.299  0.00  0.00    +0.000 A 
ATOM     12  C   UNL     1       2.317   4.437  19.897  0.00  0.00    +0.000 A 
BRANCH   7  14
ATOM     13  C   UNL     1       2.703   2.215  17.197  0.00  0.00    +0.000 C 
ATOM     14  C   UNL     1       1.545   2.928  17.896  0.00  0.00    +0.000 C 
ENDBRANCH   7  14
ENDBRANCH   1  12
BRANCH   3  15
ATOM     15  S   UNL     1       5.952   6.422  16.690  0.00  0.00    +0.000 S 
ATOM     16  C   UNL     1       6.875   4.913  17.084  0.00  0.00    +0.000 C 
ATOM     17  O   UNL     1       5.725   6.497  15.172  0.00  0.00    +0.000 OA
ATOM     18  O   UNL     1       6.830   7.662  16.917  0.00  0.00    +0.000 OA
ENDBRANCH   3  15
BRANCH   5  19
ATOM     19  S   UNL     1       1.504   9.383  18.317  0.00  0.00    +0.000 S 
ATOM     20  O   UNL     1       2.309  10.518  17.664  0.00  0.00    +0.000 OA
ATOM     21  O   UNL     1       0.327   9.279  17.334  0.00  0.00    +0.000 OA
BRANCH  19  22
ATOM     22  C   UNL     1       0.927   9.947  19.906  0.00  0.00    +0.000 A 
ATOM     23  C   UNL     1       0.892   9.180  21.059  0.00  0.00    +0.000 A 
ATOM     24  C   UNL     1       0.284   9.843  22.131  0.00  0.00    +0.000 A 
ATOM     25  C   UNL     1      -0.155  11.121  21.802  0.00  0.00    +0.000 A 
ATOM     26  S   UNL     1       0.212  11.441  20.190  0.00  0.00    +0.000 S 
BRANCH  25  27
ATOM     27  C   UNL     1      -0.868  12.060  22.719  0.00  0.00    +0.000 C 
BRANCH  27  28
ATOM     28  N   UNL     1      -2.089  11.435  23.220  0.00  0.00    +0.000 NA
ATOM     29  H   UNL     1      -1.939  11.138  24.211  0.00  0.00    +0.000 HD
ATOM     30  H   UNL     1      -2.276  10.577  22.653  0.00  0.00    +0.000 HD
ENDBRANCH  27  28
ENDBRANCH  25  27
ENDBRANCH  19  22
ENDBRANCH   5  19
TORSDOF 7
ENDMDL
MODEL 5
REMARK VINA RESULT:      -7.4      4.104      7.786
REMARK  Name = 
REMARK  9 active torsions:
REMARK  status: ('A' for Active; 'I' for Inactive)
REMARK    1  A    between atoms: C_1  and  C_2
REMARK    2  A    between atoms: C_2  and  C_3
REMARK    3  A    between atoms: C_8  and  C_9
REMARK    4  A    between atoms: C_11  and  S_12
REMARK    5  A    between atoms: S_12  and  C_13
REMARK    6  A    between atoms: C_17  and  S_18
REMARK    7  A    between atoms: S_18  and  C_21
REMARK    8  A    between atoms: C_24  and  C_25
REMARK    9  A    between atoms: C_25  and  N_26
REMARK                            x       y       z     vdW  Elec       q    Type
REMARK                         _______ _______ _______ _____ _____    ______ ____
ROOT
ATOM      1  C   UNL     1       3.055   6.736  18.331  0.00  0.00    +0.000 A 
ATOM      2  C   UNL     1       2.526   5.514  18.773  0.00  0.00    +0.000 A 
ATOM      3  C   UNL     1       3.227   4.321  18.629  0.00  0.00    +0.000 A 
ATOM      4  C   UNL     1       4.469   4.301  17.989  0.00  0.00    +0.000 A 
ATOM      5  C   UNL     1       4.999   5.499  17.499  0.00  0.00    +0.000 A 
ATOM      6  C   UNL     1       4.301   6.699  17.672  0.00  0.00    +0.000 A 
ENDROOT
BRANCH   1  12
ATOM      7  C   UNL     1       1.553   8.373  19.714  0.00  0.00    +0.000 A 
ATOM      8  C   UNL     1       0.916   9.634  19.763  0.00  0.00    +0.000 A 
ATOM      9  C   UNL     1       1.055  10.559  18.738  0.00  0.00    +0.000 A 
ATOM     10  C   UNL     1       1.816  10.251  17.629  0.00  0.00    +0.000 A 
ATOM     11  C   UNL     1       2.445   9.018  17.523  0.00  0.00    +0.000 A 
ATOM     12  C   UNL     1       2.340   8.045  18.546  0.00  0.00    +0.000 A 
BRANCH   7  14
ATOM     13  C   UNL     1       0.285   7.794  21.909  0.00  0.00    +0.000 C 
ATOM     14  C   UNL     1       1.392   7.439  20.914  0.00  0.00    +0.000 C 
ENDBRANCH   7  14
ENDBRANCH   1  12
BRANCH   3  15
ATOM     15  S   UNL     1       2.519   2.881  19.400  0.00  0.00    +0.000 S 
ATOM     16  C   UNL     1       0.782   2.547  19.003  0.00  0.00    +0.000 C 
ATOM     17  O   UNL     1       3.368   1.655  19.032  0.00  0.00    +0.000 OA
ATOM     18  O   UNL     1       2.720   2.931  20.923  0.00  0.00    +0.000 OA
ENDBRANCH   3  15
BRANCH   5  19
ATOM     19  S   UNL     1       6.559   5.564  16.631  0.00  0.00    +0.000 S 
ATOM     20  O   UNL     1       6.988   7.036  16.526  0.00  0.00    +0.000 OA
ATOM     21  O   UNL     1       7.695   5.008  17.504  0.00  0.00    +0.000 OA
BRANCH  19  22
ATOM     22  C   UNL     1       6.628   4.842  15.004  0.00  0.00    +0.000 A 
ATOM     23  C   UNL     1       7.470   5.255  13.983  0.00  0.00    +0.000 A 
ATOM     24  C   UNL     1       7.229   4.585  12.779  0.00  0.00    +0.000 A 
ATOM     25  C   UNL     1       6.195   3.658  12.870  0.00  0.00    +0.000 A 
ATOM     26  S   UNL     1       5.582   3.656  14.438  0.00  0.00    +0.000 S 
BRANCH  25  27
ATOM     27  C   UNL     1       5.683   2.812  11.750  0.00  0.00    +0.000 C 
BRANCH  27  28
ATOM     28  N   UNL     1       4.299   3.169  11.450  0.00  0.00    +0.000 NA
ATOM     29  H   UNL     1       3.849   3.552  12.313  0.00  0.00    +0.000 HD
ATOM     30  H   UNL     1       3.786   2.298  11.182  0.00  0.00    +0.000 HD
ENDBRANCH  27  28
ENDBRANCH  25  27
ENDBRANCH  19  22
ENDBRANCH   5  19
TORSDOF 7
ENDMDL
MODEL 6
REMARK VINA RESULT:      -7.3      2.799      4.918
REMARK  Name = 
REMARK  9 active torsions:
REMARK  status: ('A' for Active; 'I' for Inactive)
REMARK    1  A    between atoms: C_1  and  C_2
REMARK    2  A    between atoms: C_2  and  C_3
REMARK    3  A    between atoms: C_8  and  C_9
REMARK    4  A    between atoms: C_11  and  S_12
REMARK    5  A    between atoms: S_12  and  C_13
REMARK    6  A    between atoms: C_17  and  S_18
REMARK    7  A    between atoms: S_18  and  C_21
REMARK    8  A    between atoms: C_24  and  C_25
REMARK    9  A    between atoms: C_25  and  N_26
REMARK                            x       y       z     vdW  Elec       q    Type
REMARK                         _______ _______ _______ _____ _____    ______ ____
ROOT
ATOM      1  C   UNL     1       2.893   5.583  19.065  0.00  0.00    +0.000 A 
ATOM      2  C   UNL     1       4.117   5.536  18.382  0.00  0.00    +0.000 A 
ATOM      3  C   UNL     1       4.592   6.626  17.660  0.00  0.00    +0.000 A 
ATOM      4  C   UNL     1       3.830   7.793  17.554  0.00  0.00    +0.000 A 
ATOM      5  C   UNL     1       2.585   7.850  18.188  0.00  0.00    +0.000 A 
ATOM      6  C   UNL     1       2.127   6.760  18.936  0.00  0.00    +0.000 A 
ENDROOT
BRANCH   1  12
ATOM      7  C   UNL     1       1.833   3.212  19.390  0.00  0.00    +0.000 A 
ATOM      8  C   UNL     1       1.389   2.234  20.307  0.00  0.00    +0.000 A 
ATOM      9  C   UNL     1       1.510   2.414  21.678  0.00  0.00    +0.000 A 
ATOM     10  C   UNL     1       2.062   3.577  22.174  0.00  0.00    +0.000 A 
ATOM     11  C   UNL     1       2.496   4.578  21.315  0.00  0.00    +0.000 A 
ATOM     12  C   UNL     1       2.400   4.436  19.910  0.00  0.00    +0.000 A 
BRANCH   7  14
ATOM     13  C   UNL     1       2.875   2.137  17.263  0.00  0.00    +0.000 C 
ATOM     14  C   UNL     1       1.713   2.904  17.896  0.00  0.00    +0.000 C 
ENDBRANCH   7  14
ENDBRANCH   1  12
BRANCH   3  15
ATOM     15  S   UNL     1       6.241   6.490  17.001  0.00  0.00    +0.000 S 
ATOM     16  C   UNL     1       7.254   5.150  17.682  0.00  0.00    +0.000 C 
ATOM     17  O   UNL     1       6.152   6.335  15.475  0.00  0.00    +0.000 OA
ATOM     18  O   UNL     1       6.980   7.833  17.117  0.00  0.00    +0.000 OA
ENDBRANCH   3  15
BRANCH   5  19
ATOM     19  S   UNL     1       1.524   9.283  18.075  0.00  0.00    +0.000 S 
ATOM     20  O   UNL     1       2.295  10.392  17.342  0.00  0.00    +0.000 OA
ATOM     21  O   UNL     1       0.379   9.039  17.080  0.00  0.00    +0.000 OA
BRANCH  19  22
ATOM     22  C   UNL     1       0.882   9.956  19.595  0.00  0.00    +0.000 A 
ATOM     23  C   UNL     1       1.083  11.252  20.040  0.00  0.00    +0.000 A 
ATOM     24  C   UNL     1       0.560  11.471  21.319  0.00  0.00    +0.000 A 
ATOM     25  C   UNL     1      -0.039  10.340  21.863  0.00  0.00    +0.000 A 
ATOM     26  S   UNL     1       0.066   9.068  20.765  0.00  0.00    +0.000 S 
BRANCH  25  27
ATOM     27  C   UNL     1      -0.656  10.249  23.221  0.00  0.00    +0.000 C 
BRANCH  27  28
ATOM     28  N   UNL     1       0.208   9.476  24.109  0.00  0.00    +0.000 NA
ATOM     29  H   UNL     1       0.352  10.011  24.996  0.00  0.00    +0.000 HD
ATOM     30  H   UNL     1       1.139   9.365  23.647  0.00  0.00    +0.000 HD
ENDBRANCH  27  28
ENDBRANCH  25  27
ENDBRANCH  19  22
ENDBRANCH   5  19
TORSDOF 7
ENDMDL
MODEL 7
REMARK VINA RESULT:      -7.3      4.145      7.845
REMARK  Name = 
REMARK  9 active torsions:
REMARK  status: ('A' for Active; 'I' for Inactive)
REMARK    1  A    between atoms: C_1  and  C_2
REMARK    2  A    between atoms: C_2  and  C_3
REMARK    3  A    between atoms: C_8  and  C_9
REMARK    4  A    between atoms: C_11  and  S_12
REMARK    5  A    between atoms: S_12  and  C_13
REMARK    6  A    between atoms: C_17  and  S_18
REMARK    7  A    between atoms: S_18  and  C_21
REMARK    8  A    between atoms: C_24  and  C_25
REMARK    9  A    between atoms: C_25  and  N_26
REMARK                            x       y       z     vdW  Elec       q    Type
REMARK                         _______ _______ _______ _____ _____    ______ ____
ROOT
ATOM      1  C   UNL     1       2.829   7.072  18.749  0.00  0.00    +0.000 A 
ATOM      2  C   UNL     1       2.384   5.918  19.409  0.00  0.00    +0.000 A 
ATOM      3  C   UNL     1       3.109   4.731  19.373  0.00  0.00    +0.000 A 
ATOM      4  C   UNL     1       4.289   4.644  18.628  0.00  0.00    +0.000 A 
ATOM      5  C   UNL     1       4.731   5.767  17.924  0.00  0.00    +0.000 A 
ATOM      6  C   UNL     1       4.012   6.965  17.988  0.00  0.00    +0.000 A 
ENDROOT
BRANCH   1  12
ATOM      7  C   UNL     1       1.260   8.788  19.951  0.00  0.00    +0.000 A 
ATOM      8  C   UNL     1       0.608  10.040  19.883  0.00  0.00    +0.000 A 
ATOM      9  C   UNL     1       0.774  10.888  18.797  0.00  0.00    +0.000 A 
ATOM     10  C   UNL     1       1.578  10.508  17.741  0.00  0.00    +0.000 A 
ATOM     11  C   UNL     1       2.223   9.279  17.750  0.00  0.00    +0.000 A 
ATOM     12  C   UNL     1       2.092   8.384  18.839  0.00  0.00    +0.000 A 
BRANCH   7  14
ATOM     13  C   UNL     1      -0.193   8.225  22.032  0.00  0.00    +0.000 C 
ATOM     14  C   UNL     1       1.067   7.944  21.212  0.00  0.00    +0.000 C 
ENDBRANCH   7  14
ENDBRANCH   1  12
BRANCH   3  15
ATOM     15  S   UNL     1       2.522   3.405  20.406  0.00  0.00    +0.000 S 
ATOM     16  C   UNL     1       1.088   2.491  19.777  0.00  0.00    +0.000 C 
ATOM     17  O   UNL     1       3.678   2.424  20.656  0.00  0.00    +0.000 OA
ATOM     18  O   UNL     1       2.252   3.911  21.831  0.00  0.00    +0.000 OA
ENDBRANCH   3  15
BRANCH   5  19
ATOM     19  S   UNL     1       6.205   5.737  16.914  0.00  0.00    +0.000 S 
ATOM     20  O   UNL     1       6.688   7.184  16.729  0.00  0.00    +0.000 OA
ATOM     21  O   UNL     1       7.391   5.148  17.693  0.00  0.00    +0.000 OA
BRANCH  19  22
ATOM     22  C   UNL     1       6.087   4.974  15.308  0.00  0.00    +0.000 A 
ATOM     23  C   UNL     1       4.985   4.282  14.833  0.00  0.00    +0.000 A 
ATOM     24  C   UNL     1       5.214   3.692  13.585  0.00  0.00    +0.000 A 
ATOM     25  C   UNL     1       6.496   3.926  13.100  0.00  0.00    +0.000 A 
ATOM     26  S   UNL     1       7.349   4.868  14.204  0.00  0.00    +0.000 S 
BRANCH  25  27
ATOM     27  C   UNL     1       7.050   3.404  11.814  0.00  0.00    +0.000 C 
BRANCH  27  28
ATOM     28  N   UNL     1       6.568   2.045  11.580  0.00  0.00    +0.000 NA
ATOM     29  H   UNL     1       5.933   2.044  10.750  0.00  0.00    +0.000 HD
ATOM     30  H   UNL     1       6.007   1.747  12.412  0.00  0.00    +0.000 HD
ENDBRANCH  27  28
ENDBRANCH  25  27
ENDBRANCH  19  22
ENDBRANCH   5  19
TORSDOF 7
ENDMDL
MODEL 8
REMARK VINA RESULT:      -7.3      4.526      7.978
REMARK  Name = 
REMARK  9 active torsions:
REMARK  status: ('A' for Active; 'I' for Inactive)
REMARK    1  A    between atoms: C_1  and  C_2
REMARK    2  A    between atoms: C_2  and  C_3
REMARK    3  A    between atoms: C_8  and  C_9
REMARK    4  A    between atoms: C_11  and  S_12
REMARK    5  A    between atoms: S_12  and  C_13
REMARK    6  A    between atoms: C_17  and  S_18
REMARK    7  A    between atoms: S_18  and  C_21
REMARK    8  A    between atoms: C_24  and  C_25
REMARK    9  A    between atoms: C_25  and  N_26
REMARK                            x       y       z     vdW  Elec       q    Type
REMARK                         _______ _______ _______ _____ _____    ______ ____
ROOT
ATOM      1  C   UNL     1       3.136   6.421  18.302  0.00  0.00    +0.000 A 
ATOM      2  C   UNL     1       2.629   5.175  18.699  0.00  0.00    +0.000 A 
ATOM      3  C   UNL     1       3.336   3.996  18.482  0.00  0.00    +0.000 A 
ATOM      4  C   UNL     1       4.562   4.019  17.811  0.00  0.00    +0.000 A 
ATOM      5  C   UNL     1       5.068   5.242  17.365  0.00  0.00    +0.000 A 
ATOM      6  C   UNL     1       4.366   6.426  17.611  0.00  0.00    +0.000 A 
ENDROOT
BRANCH   1  12
ATOM      7  C   UNL     1       1.763   8.027  19.847  0.00  0.00    +0.000 A 
ATOM      8  C   UNL     1       1.103   9.270  19.967  0.00  0.00    +0.000 A 
ATOM      9  C   UNL     1       1.095  10.192  18.929  0.00  0.00    +0.000 A 
ATOM     10  C   UNL     1       1.728   9.897  17.739  0.00  0.00    +0.000 A 
ATOM     11  C   UNL     1       2.373   8.681  17.563  0.00  0.00    +0.000 A 
ATOM     12  C   UNL     1       2.416   7.712  18.595  0.00  0.00    +0.000 A 
BRANCH   7  14
ATOM     13  C   UNL     1       1.000   5.783  20.916  0.00  0.00    +0.000 C 
ATOM     14  C   UNL     1       1.770   7.096  21.061  0.00  0.00    +0.000 C 
ENDBRANCH   7  14
ENDBRANCH   1  12
BRANCH   3  15
ATOM     15  S   UNL     1       2.659   2.515  19.203  0.00  0.00    +0.000 S 
ATOM     16  C   UNL     1       2.609   2.472  21.015  0.00  0.00    +0.000 C 
ATOM     17  O   UNL     1       1.242   2.300  18.650  0.00  0.00    +0.000 OA
ATOM     18  O   UNL     1       3.380   1.273  18.657  0.00  0.00    +0.000 OA
ENDBRANCH   3  15
BRANCH   5  19
ATOM     19  S   UNL     1       6.606   5.363  16.462  0.00  0.00    +0.000 S 
ATOM     20  O   UNL     1       6.996   6.846  16.377  0.00  0.00    +0.000 OA
ATOM     21  O   UNL     1       7.776   4.818  17.297  0.00  0.00    +0.000 OA
BRANCH  19  22
ATOM     22  C   UNL     1       6.653   4.674  14.819  0.00  0.00    +0.000 A 
ATOM     23  C   UNL     1       7.513   5.077  13.810  0.00  0.00    +0.000 A 
ATOM     24  C   UNL     1       7.252   4.443  12.591  0.00  0.00    +0.000 A 
ATOM     25  C   UNL     1       6.184   3.553  12.659  0.00  0.00    +0.000 A 
ATOM     26  S   UNL     1       5.566   3.540  14.225  0.00  0.00    +0.000 S 
BRANCH  25  27
ATOM     27  C   UNL     1       5.644   2.751  11.520  0.00  0.00    +0.000 C 
BRANCH  27  28
ATOM     28  N   UNL     1       6.346   1.474  11.434  0.00  0.00    +0.000 NA
ATOM     29  H   UNL     1       7.364   1.652  11.273  0.00  0.00    +0.000 HD
ATOM     30  H   UNL     1       5.978   0.951  10.607  0.00  0.00    +0.000 HD
ENDBRANCH  27  28
ENDBRANCH  25  27
ENDBRANCH  19  22
ENDBRANCH   5  19
TORSDOF 7
ENDMDL
MODEL 9
REMARK VINA RESULT:      -7.3      1.032      1.225
REMARK  Name = 
REMARK  9 active torsions:
REMARK  status: ('A' for Active; 'I' for Inactive)
REMARK    1  A    between atoms: C_1  and  C_2
REMARK    2  A    between atoms: C_2  and  C_3
REMARK    3  A    between atoms: C_8  and  C_9
REMARK    4  A    between atoms: C_11  and  S_12
REMARK    5  A    between atoms: S_12  and  C_13
REMARK    6  A    between atoms: C_17  and  S_18
REMARK    7  A    between atoms: S_18  and  C_21
REMARK    8  A    between atoms: C_24  and  C_25
REMARK    9  A    between atoms: C_25  and  N_26
REMARK                            x       y       z     vdW  Elec       q    Type
REMARK                         _______ _______ _______ _____ _____    ______ ____
ROOT
ATOM      1  C   UNL     1       4.285   5.529  17.373  0.00  0.00    +0.000 A 
ATOM      2  C   UNL     1       3.913   4.602  18.357  0.00  0.00    +0.000 A 
ATOM      3  C   UNL     1       2.905   4.877  19.275  0.00  0.00    +0.000 A 
ATOM      4  C   UNL     1       2.262   6.118  19.271  0.00  0.00    +0.000 A 
ATOM      5  C   UNL     1       2.645   7.077  18.329  0.00  0.00    +0.000 A 
ATOM      6  C   UNL     1       3.640   6.783  17.391  0.00  0.00    +0.000 A 
ENDROOT
BRANCH   1  12
ATOM      7  C   UNL     1       6.733   5.525  16.446  0.00  0.00    +0.000 A 
ATOM      8  C   UNL     1       7.586   5.196  15.368  0.00  0.00    +0.000 A 
ATOM      9  C   UNL     1       7.108   4.567  14.227  0.00  0.00    +0.000 A 
ATOM     10  C   UNL     1       5.766   4.263  14.119  0.00  0.00    +0.000 A 
ATOM     11  C   UNL     1       4.882   4.584  15.140  0.00  0.00    +0.000 A 
ATOM     12  C   UNL     1       5.325   5.218  16.326  0.00  0.00    +0.000 A 
BRANCH   7  14
ATOM     13  C   UNL     1       7.584   7.676  17.633  0.00  0.00    +0.000 C 
ATOM     14  C   UNL     1       7.356   6.165  17.688  0.00  0.00    +0.000 C 
ENDBRANCH   7  14
ENDBRANCH   1  12
BRANCH   3  15
ATOM     15  S   UNL     1       2.413   3.540  20.345  0.00  0.00    +0.000 S 
ATOM     16  C   UNL     1       0.988   2.568  19.787  0.00  0.00    +0.000 C 
ATOM     17  O   UNL     1       3.615   2.606  20.553  0.00  0.00    +0.000 OA
ATOM     18  O   UNL     1       2.186   4.051  21.776  0.00  0.00    +0.000 OA
ENDBRANCH   3  15
BRANCH   5  19
ATOM     19  S   UNL     1       1.908   8.704  18.276  0.00  0.00    +0.000 S 
ATOM     20  O   UNL     1       3.030   9.731  18.059  0.00  0.00    +0.000 OA
ATOM     21  O   UNL     1       1.102   8.898  16.981  0.00  0.00    +0.000 OA
BRANCH  19  22
ATOM     22  C   UNL     1       0.941   9.217  19.681  0.00  0.00    +0.000 A 
ATOM     23  C   UNL     1       0.081  10.303  19.704  0.00  0.00    +0.000 A 
ATOM     24  C   UNL     1      -0.459  10.540  20.972  0.00  0.00    +0.000 A 
ATOM     25  C   UNL     1      -0.010   9.638  21.931  0.00  0.00    +0.000 A 
ATOM     26  S   UNL     1       1.048   8.540  21.215  0.00  0.00    +0.000 S 
BRANCH  25  27
ATOM     27  C   UNL     1      -0.379   9.649  23.379  0.00  0.00    +0.000 C 
BRANCH  27  28
ATOM     28  N   UNL     1       0.811   9.433  24.198  0.00  0.00    +0.000 NA
ATOM     29  H   UNL     1       0.529   9.373  25.203  0.00  0.00    +0.000 HD
ATOM     30  H   UNL     1       1.439  10.263  24.091  0.00  0.00    +0.000 HD
ENDBRANCH  27  28
ENDBRANCH  25  27
ENDBRANCH  19  22
ENDBRANCH   5  19
TORSDOF 7
ENDMDL
