MODEL 1
REMARK VINA RESULT:      -7.1      0.000      0.000
REMARK  Name = 
REMARK  6 active torsions:
REMARK  status: ('A' for Active; 'I' for Inactive)
REMARK    1  A    between atoms: C_2  and  C_5
REMARK    2  A    between atoms: C_7  and  N_8
REMARK    3  A    between atoms: N_8  and  C_9
REMARK    4  A    between atoms: C_9  and  C_10
REMARK    5  A    between atoms: C_10  and  C_11
REMARK    6  A    between atoms: C_11  and  C_12
REMARK                            x       y       z     vdW  Elec       q    Type
REMARK                         _______ _______ _______ _____ _____    ______ ____
ROOT
ATOM      1  N   UNL     1       5.314   3.634  19.088  0.00  0.00    +0.000 N 
ATOM      2  H   UNL     1       5.501   3.999  20.019  0.00  0.00    +0.000 HD
ENDROOT
BRANCH   1   5
ATOM      3  C   UNL     1       6.491   4.863  15.772  0.00  0.00    +0.000 A 
ATOM      4  C   UNL     1       5.819   4.084  16.719  0.00  0.00    +0.000 A 
ATOM      5  C   UNL     1       5.888   4.404  18.075  0.00  0.00    +0.000 A 
ATOM      6  C   UNL     1       6.689   5.488  18.436  0.00  0.00    +0.000 A 
ATOM      7  C   UNL     1       7.341   6.211  17.450  0.00  0.00    +0.000 A 
ATOM      8  N   UNL     1       7.254   5.933  16.134  0.00  0.00    +0.000 NA
BRANCH   3  10
ATOM      9  F   UNL     1       5.150   4.809  13.762  0.00  0.00    +0.000 F 
ATOM     10  C   UNL     1       6.376   4.509  14.295  0.00  0.00    +0.000 C 
ATOM     11  F   UNL     1       6.559   3.180  14.045  0.00  0.00    +0.000 F 
ATOM     12  F   UNL     1       7.276   5.170  13.512  0.00  0.00    +0.000 F 
ENDBRANCH   3  10
ENDBRANCH   1   5
BRANCH   1  13
ATOM     13  C   UNL     1       3.996   3.037  18.915  0.00  0.00    +0.000 C 
BRANCH  13  14
ATOM     14  C   UNL     1       2.945   4.131  18.730  0.00  0.00    +0.000 C 
BRANCH  14  15
ATOM     15  C   UNL     1       2.968   5.101  19.914  0.00  0.00    +0.000 C 
BRANCH  15  16
ATOM     16  C   UNL     1       2.500   6.476  19.530  0.00  0.00    +0.000 A 
ATOM     17  C   UNL     1       2.656   6.959  18.228  0.00  0.00    +0.000 A 
ATOM     18  C   UNL     1       2.203   8.236  17.907  0.00  0.00    +0.000 A 
ATOM     19  C   UNL     1       1.600   8.979  18.908  0.00  0.00    +0.000 A 
ATOM     20 CL   UNL     1       1.013  10.558  18.595  0.00  0.00    +0.000 Cl
ATOM     21  N   UNL     1       1.423   8.551  20.174  0.00  0.00    +0.000 NA
ATOM     22  C   UNL     1       1.877   7.310  20.456  0.00  0.00    +0.000 A 
ENDBRANCH  15  16
ENDBRANCH  14  15
ENDBRANCH  13  14
ENDBRANCH   1  13
TORSDOF 6
ENDMDL
MODEL 2
REMARK VINA RESULT:      -7.1      1.634      2.083
REMARK  Name = 
REMARK  6 active torsions:
REMARK  status: ('A' for Active; 'I' for Inactive)
REMARK    1  A    between atoms: C_2  and  C_5
REMARK    2  A    between atoms: C_7  and  N_8
REMARK    3  A    between atoms: N_8  and  C_9
REMARK    4  A    between atoms: C_9  and  C_10
REMARK    5  A    between atoms: C_10  and  C_11
REMARK    6  A    between atoms: C_11  and  C_12
REMARK                            x       y       z     vdW  Elec       q    Type
REMARK                         _______ _______ _______ _____ _____    ______ ____
ROOT
ATOM      1  N   UNL     1       4.106   2.136  18.634  0.00  0.00    +0.000 N 
ATOM      2  H   UNL     1       4.702   1.335  18.439  0.00  0.00    +0.000 HD
ENDROOT
BRANCH   1   5
ATOM      3  C   UNL     1       5.493   4.902  16.558  0.00  0.00    +0.000 A 
ATOM      4  C   UNL     1       4.847   3.706  16.888  0.00  0.00    +0.000 A 
ATOM      5  C   UNL     1       4.666   3.346  18.223  0.00  0.00    +0.000 A 
ATOM      6  C   UNL     1       5.199   4.196  19.192  0.00  0.00    +0.000 A 
ATOM      7  C   UNL     1       5.841   5.360  18.799  0.00  0.00    +0.000 A 
ATOM      8  N   UNL     1       5.991   5.736  17.514  0.00  0.00    +0.000 NA
BRANCH   3  10
ATOM      9  F   UNL     1       5.062   4.398  14.234  0.00  0.00    +0.000 F 
ATOM     10  C   UNL     1       5.652   5.287  15.093  0.00  0.00    +0.000 C 
ATOM     11  F   UNL     1       6.955   5.357  14.694  0.00  0.00    +0.000 F 
ATOM     12  F   UNL     1       5.098   6.495  14.790  0.00  0.00    +0.000 F 
ENDBRANCH   3  10
ENDBRANCH   1   5
BRANCH   1  13
ATOM     13  C   UNL     1       3.348   2.048  19.876  0.00  0.00    +0.000 C 
BRANCH  13  14
ATOM     14  C   UNL     1       1.851   1.991  19.575  0.00  0.00    +0.000 C 
BRANCH  14  15
ATOM     15  C   UNL     1       1.134   3.193  20.195  0.00  0.00    +0.000 C 
BRANCH  15  16
ATOM     16  C   UNL     1       1.574   4.493  19.581  0.00  0.00    +0.000 A 
ATOM     17  C   UNL     1       1.551   4.687  18.198  0.00  0.00    +0.000 A 
ATOM     18  C   UNL     1       1.958   5.908  17.667  0.00  0.00    +0.000 A 
ATOM     19  C   UNL     1       2.367   6.893  18.549  0.00  0.00    +0.000 A 
ATOM     20 CL   UNL     1       2.881   8.425  17.976  0.00  0.00    +0.000 Cl
ATOM     21  N   UNL     1       2.399   6.752  19.889  0.00  0.00    +0.000 NA
ATOM     22  C   UNL     1       2.002   5.556  20.374  0.00  0.00    +0.000 A 
ENDBRANCH  15  16
ENDBRANCH  14  15
ENDBRANCH  13  14
ENDBRANCH   1  13
TORSDOF 6
ENDMDL
MODEL 3
REMARK VINA RESULT:      -6.9      1.438      1.781
REMARK  Name = 
REMARK  6 active torsions:
REMARK  status: ('A' for Active; 'I' for Inactive)
REMARK    1  A    between atoms: C_2  and  C_5
REMARK    2  A    between atoms: C_7  and  N_8
REMARK    3  A    between atoms: N_8  and  C_9
REMARK    4  A    between atoms: C_9  and  C_10
REMARK    5  A    between atoms: C_10  and  C_11
REMARK    6  A    between atoms: C_11  and  C_12
REMARK                            x       y       z     vdW  Elec       q    Type
REMARK                         _______ _______ _______ _____ _____    ______ ____
ROOT
ATOM      1  N   UNL     1       5.023   2.853  19.537  0.00  0.00    +0.000 N 
ATOM      2  H   UNL     1       5.398   2.886  20.483  0.00  0.00    +0.000 HD
ENDROOT
BRANCH   1   5
ATOM      3  C   UNL     1       5.738   5.153  16.693  0.00  0.00    +0.000 A 
ATOM      4  C   UNL     1       5.306   4.017  17.385  0.00  0.00    +0.000 A 
ATOM      5  C   UNL     1       5.359   3.975  18.778  0.00  0.00    +0.000 A 
ATOM      6  C   UNL     1       5.905   5.081  19.430  0.00  0.00    +0.000 A 
ATOM      7  C   UNL     1       6.329   6.170  18.686  0.00  0.00    +0.000 A 
ATOM      8  N   UNL     1       6.251   6.236  17.343  0.00  0.00    +0.000 NA
BRANCH   3  10
ATOM      9  F   UNL     1       5.036   6.314  14.694  0.00  0.00    +0.000 F 
ATOM     10  C   UNL     1       5.643   5.184  15.174  0.00  0.00    +0.000 C 
ATOM     11  F   UNL     1       4.924   4.146  14.658  0.00  0.00    +0.000 F 
ATOM     12  F   UNL     1       6.859   5.145  14.557  0.00  0.00    +0.000 F 
ENDBRANCH   3  10
ENDBRANCH   1   5
BRANCH   1  13
ATOM     13  C   UNL     1       3.705   2.242  19.420  0.00  0.00    +0.000 C 
BRANCH  13  14
ATOM     14  C   UNL     1       2.878   2.532  20.673  0.00  0.00    +0.000 C 
BRANCH  14  15
ATOM     15  C   UNL     1       1.598   3.286  20.306  0.00  0.00    +0.000 C 
BRANCH  15  16
ATOM     16  C   UNL     1       1.887   4.601  19.637  0.00  0.00    +0.000 A 
ATOM     17  C   UNL     1       1.877   4.726  18.246  0.00  0.00    +0.000 A 
ATOM     18  C   UNL     1       2.141   5.962  17.662  0.00  0.00    +0.000 A 
ATOM     19  C   UNL     1       2.398   7.032  18.502  0.00  0.00    +0.000 A 
ATOM     20 CL   UNL     1       2.731   8.588  17.864  0.00  0.00    +0.000 Cl
ATOM     21  N   UNL     1       2.412   6.959  19.848  0.00  0.00    +0.000 NA
ATOM     22  C   UNL     1       2.156   5.746  20.384  0.00  0.00    +0.000 A 
ENDBRANCH  15  16
ENDBRANCH  14  15
ENDBRANCH  13  14
ENDBRANCH   1  13
TORSDOF 6
ENDMDL
MODEL 4
REMARK VINA RESULT:      -6.8      1.052      1.271
REMARK  Name = 
REMARK  6 active torsions:
REMARK  status: ('A' for Active; 'I' for Inactive)
REMARK    1  A    between atoms: C_2  and  C_5
REMARK    2  A    between atoms: C_7  and  N_8
REMARK    3  A    between atoms: N_8  and  C_9
REMARK    4  A    between atoms: C_9  and  C_10
REMARK    5  A    between atoms: C_10  and  C_11
REMARK    6  A    between atoms: C_11  and  C_12
REMARK                            x       y       z     vdW  Elec       q    Type
REMARK                         _______ _______ _______ _____ _____    ______ ____
ROOT
ATOM      1  N   UNL     1       5.309   3.539  19.170  0.00  0.00    +0.000 N 
ATOM      2  H   UNL     1       5.038   4.053  20.005  0.00  0.00    +0.000 HD
ENDROOT
BRANCH   1   5
ATOM      3  C   UNL     1       6.522   4.914  15.926  0.00  0.00    +0.000 A 
ATOM      4  C   UNL     1       5.828   4.103  16.829  0.00  0.00    +0.000 A 
ATOM      5  C   UNL     1       5.905   4.347  18.201  0.00  0.00    +0.000 A 
ATOM      6  C   UNL     1       6.737   5.385  18.620  0.00  0.00    +0.000 A 
ATOM      7  C   UNL     1       7.410   6.143  17.674  0.00  0.00    +0.000 A 
ATOM      8  N   UNL     1       7.316   5.940  16.346  0.00  0.00    +0.000 NA
BRANCH   3  10
ATOM      9  F   UNL     1       5.170   4.975  13.924  0.00  0.00    +0.000 F 
ATOM     10  C   UNL     1       6.399   4.645  14.432  0.00  0.00    +0.000 C 
ATOM     11  F   UNL     1       6.580   3.333  14.104  0.00  0.00    +0.000 F 
ATOM     12  F   UNL     1       7.294   5.350  13.682  0.00  0.00    +0.000 F 
ENDBRANCH   3  10
ENDBRANCH   1   5
BRANCH   1  13
ATOM     13  C   UNL     1       4.399   2.465  18.789  0.00  0.00    +0.000 C 
BRANCH  13  14
ATOM     14  C   UNL     1       2.975   2.802  19.229  0.00  0.00    +0.000 C 
BRANCH  14  15
ATOM     15  C   UNL     1       2.358   3.843  18.292  0.00  0.00    +0.000 C 
BRANCH  15  16
ATOM     16  C   UNL     1       2.174   5.174  18.967  0.00  0.00    +0.000 A 
ATOM     17  C   UNL     1       2.502   6.368  18.319  0.00  0.00    +0.000 A 
ATOM     18  C   UNL     1       2.311   7.582  18.972  0.00  0.00    +0.000 A 
ATOM     19  C   UNL     1       1.788   7.551  20.254  0.00  0.00    +0.000 A 
ATOM     20 CL   UNL     1       1.519   9.003  21.126  0.00  0.00    +0.000 Cl
ATOM     21  N   UNL     1       1.451   6.425  20.913  0.00  0.00    +0.000 NA
ATOM     22  C   UNL     1       1.652   5.263  20.255  0.00  0.00    +0.000 A 
ENDBRANCH  15  16
ENDBRANCH  14  15
ENDBRANCH  13  14
ENDBRANCH   1  13
TORSDOF 6
ENDMDL
MODEL 5
REMARK VINA RESULT:      -6.8      3.777      5.215
REMARK  Name = 
REMARK  6 active torsions:
REMARK  status: ('A' for Active; 'I' for Inactive)
REMARK    1  A    between atoms: C_2  and  C_5
REMARK    2  A    between atoms: C_7  and  N_8
REMARK    3  A    between atoms: N_8  and  C_9
REMARK    4  A    between atoms: C_9  and  C_10
REMARK    5  A    between atoms: C_10  and  C_11
REMARK    6  A    between atoms: C_11  and  C_12
REMARK                            x       y       z     vdW  Elec       q    Type
REMARK                         _______ _______ _______ _____ _____    ______ ____
ROOT
ATOM      1  N   UNL     1       5.313   3.985  17.553  0.00  0.00    +0.000 N 
ATOM      2  H   UNL     1       5.931   3.237  17.246  0.00  0.00    +0.000 HD
ENDROOT
BRANCH   1   5
ATOM      3  C   UNL     1       2.540   3.047  19.859  0.00  0.00    +0.000 A 
ATOM      4  C   UNL     1       3.737   3.615  19.408  0.00  0.00    +0.000 A 
ATOM      5  C   UNL     1       4.102   3.518  18.066  0.00  0.00    +0.000 A 
ATOM      6  C   UNL     1       3.258   2.793  17.224  0.00  0.00    +0.000 A 
ATOM      7  C   UNL     1       2.094   2.242  17.736  0.00  0.00    +0.000 A 
ATOM      8  N   UNL     1       1.713   2.360  19.023  0.00  0.00    +0.000 NA
BRANCH   3  10
ATOM      9  F   UNL     1       2.785   2.298  22.144  0.00  0.00    +0.000 F 
ATOM     10  C   UNL     1       2.149   3.193  21.324  0.00  0.00    +0.000 C 
ATOM     11  F   UNL     1       0.817   2.998  21.547  0.00  0.00    +0.000 F 
ATOM     12  F   UNL     1       2.445   4.420  21.841  0.00  0.00    +0.000 F 
ENDBRANCH   3  10
ENDBRANCH   1   5
BRANCH   1  13
ATOM     13  C   UNL     1       5.361   5.193  16.739  0.00  0.00    +0.000 C 
BRANCH  13  14
ATOM     14  C   UNL     1       5.025   6.415  17.592  0.00  0.00    +0.000 C 
BRANCH  14  15
ATOM     15  C   UNL     1       3.852   7.187  16.982  0.00  0.00    +0.000 C 
BRANCH  15  16
ATOM     16  C   UNL     1       2.928   7.737  18.032  0.00  0.00    +0.000 A 
ATOM     17  C   UNL     1       2.765   7.098  19.264  0.00  0.00    +0.000 A 
ATOM     18  C   UNL     1       1.907   7.641  20.215  0.00  0.00    +0.000 A 
ATOM     19  C   UNL     1       1.248   8.816  19.895  0.00  0.00    +0.000 A 
ATOM     20 CL   UNL     1       0.175   9.552  21.011  0.00  0.00    +0.000 Cl
ATOM     21  N   UNL     1       1.380   9.470  18.724  0.00  0.00    +0.000 NA
ATOM     22  C   UNL     1       2.216   8.916  17.820  0.00  0.00    +0.000 A 
ENDBRANCH  15  16
ENDBRANCH  14  15
ENDBRANCH  13  14
ENDBRANCH   1  13
TORSDOF 6
ENDMDL
MODEL 6
REMARK VINA RESULT:      -6.8      4.673      6.821
REMARK  Name = 
REMARK  6 active torsions:
REMARK  status: ('A' for Active; 'I' for Inactive)
REMARK    1  A    between atoms: C_2  and  C_5
REMARK    2  A    between atoms: C_7  and  N_8
REMARK    3  A    between atoms: N_8  and  C_9
REMARK    4  A    between atoms: C_9  and  C_10
REMARK    5  A    between atoms: C_10  and  C_11
REMARK    6  A    between atoms: C_11  and  C_12
REMARK                            x       y       z     vdW  Elec       q    Type
REMARK                         _______ _______ _______ _____ _____    ______ ____
ROOT
ATOM      1  N   UNL     1       3.056   5.365  19.066  0.00  0.00    +0.000 N 
ATOM      2  H   UNL     1       2.973   4.871  19.952  0.00  0.00    +0.000 HD
ENDROOT
BRANCH   1   5
ATOM      3  C   UNL     1       1.420   8.518  20.196  0.00  0.00    +0.000 A 
ATOM      4  C   UNL     1       1.949   7.223  20.244  0.00  0.00    +0.000 A 
ATOM      5  C   UNL     1       2.576   6.675  19.125  0.00  0.00    +0.000 A 
ATOM      6  C   UNL     1       2.601   7.446  17.963  0.00  0.00    +0.000 A 
ATOM      7  C   UNL     1       2.046   8.716  17.977  0.00  0.00    +0.000 A 
ATOM      8  N   UNL     1       1.469   9.270  19.061  0.00  0.00    +0.000 NA
BRANCH   3  10
ATOM      9  F   UNL     1       0.767  10.475  21.455  0.00  0.00    +0.000 F 
ATOM     10  C   UNL     1       0.766   9.105  21.439  0.00  0.00    +0.000 C 
ATOM     11  F   UNL     1       1.384   8.735  22.598  0.00  0.00    +0.000 F 
ATOM     12  F   UNL     1      -0.543   8.749  21.578  0.00  0.00    +0.000 F 
ENDBRANCH   3  10
ENDBRANCH   1   5
BRANCH   1  13
ATOM     13  C   UNL     1       2.839   4.544  17.882  0.00  0.00    +0.000 C 
BRANCH  13  14
ATOM     14  C   UNL     1       3.915   3.464  17.787  0.00  0.00    +0.000 C 
BRANCH  14  15
ATOM     15  C   UNL     1       4.920   3.806  16.684  0.00  0.00    +0.000 C 
BRANCH  15  16
ATOM     16  C   UNL     1       5.786   4.979  17.049  0.00  0.00    +0.000 A 
ATOM     17  C   UNL     1       6.716   4.899  18.088  0.00  0.00    +0.000 A 
ATOM     18  C   UNL     1       7.506   6.003  18.393  0.00  0.00    +0.000 A 
ATOM     19  C   UNL     1       7.336   7.149  17.634  0.00  0.00    +0.000 A 
ATOM     20 CL   UNL     1       8.271   8.553  17.943  0.00  0.00    +0.000 Cl
ATOM     21  N   UNL     1       6.457   7.269  16.620  0.00  0.00    +0.000 NA
ATOM     22  C   UNL     1       5.702   6.182  16.351  0.00  0.00    +0.000 A 
ENDBRANCH  15  16
ENDBRANCH  14  15
ENDBRANCH  13  14
ENDBRANCH   1  13
TORSDOF 6
ENDMDL
MODEL 7
REMARK VINA RESULT:      -6.8      3.601      5.972
REMARK  Name = 
REMARK  6 active torsions:
REMARK  status: ('A' for Active; 'I' for Inactive)
REMARK    1  A    between atoms: C_2  and  C_5
REMARK    2  A    between atoms: C_7  and  N_8
REMARK    3  A    between atoms: N_8  and  C_9
REMARK    4  A    between atoms: C_9  and  C_10
REMARK    5  A    between atoms: C_10  and  C_11
REMARK    6  A    between atoms: C_11  and  C_12
REMARK                            x       y       z     vdW  Elec       q    Type
REMARK                         _______ _______ _______ _____ _____    ______ ____
ROOT
ATOM      1  N   UNL     1       2.247   6.649  20.700  0.00  0.00    +0.000 N 
ATOM      2  H   UNL     1       3.059   6.932  21.243  0.00  0.00    +0.000 HD
ENDROOT
BRANCH   1   5
ATOM      3  C   UNL     1       3.096   3.080  20.045  0.00  0.00    +0.000 A 
ATOM      4  C   UNL     1       3.269   4.445  20.297  0.00  0.00    +0.000 A 
ATOM      5  C   UNL     1       2.165   5.267  20.522  0.00  0.00    +0.000 A 
ATOM      6  C   UNL     1       0.902   4.681  20.430  0.00  0.00    +0.000 A 
ATOM      7  C   UNL     1       0.798   3.325  20.163  0.00  0.00    +0.000 A 
ATOM      8  N   UNL     1       1.858   2.514  19.979  0.00  0.00    +0.000 NA
BRANCH   3  10
ATOM      9  F   UNL     1       4.804   1.656  20.993  0.00  0.00    +0.000 F 
ATOM     10  C   UNL     1       4.319   2.198  19.832  0.00  0.00    +0.000 C 
ATOM     11  F   UNL     1       5.375   2.866  19.282  0.00  0.00    +0.000 F 
ATOM     12  F   UNL     1       4.078   1.132  19.016  0.00  0.00    +0.000 F 
ENDBRANCH   3  10
ENDBRANCH   1   5
BRANCH   1  13
ATOM     13  C   UNL     1       1.877   7.562  19.626  0.00  0.00    +0.000 C 
BRANCH  13  14
ATOM     14  C   UNL     1       2.286   6.978  18.275  0.00  0.00    +0.000 C 
BRANCH  14  15
ATOM     15  C   UNL     1       3.731   7.357  17.943  0.00  0.00    +0.000 C 
BRANCH  15  16
ATOM     16  C   UNL     1       4.370   6.382  16.995  0.00  0.00    +0.000 A 
ATOM     17  C   UNL     1       4.166   5.005  17.121  0.00  0.00    +0.000 A 
ATOM     18  C   UNL     1       4.768   4.133  16.219  0.00  0.00    +0.000 A 
ATOM     19  C   UNL     1       5.549   4.679  15.215  0.00  0.00    +0.000 A 
ATOM     20 CL   UNL     1       6.323   3.674  14.062  0.00  0.00    +0.000 Cl
ATOM     21  N   UNL     1       5.768   5.998  15.051  0.00  0.00    +0.000 NA
ATOM     22  C   UNL     1       5.174   6.819  15.944  0.00  0.00    +0.000 A 
ENDBRANCH  15  16
ENDBRANCH  14  15
ENDBRANCH  13  14
ENDBRANCH   1  13
TORSDOF 6
ENDMDL
MODEL 8
REMARK VINA RESULT:      -6.7      4.152      5.331
REMARK  Name = 
REMARK  6 active torsions:
REMARK  status: ('A' for Active; 'I' for Inactive)
REMARK    1  A    between atoms: C_2  and  C_5
REMARK    2  A    between atoms: C_7  and  N_8
REMARK    3  A    between atoms: N_8  and  C_9
REMARK    4  A    between atoms: C_9  and  C_10
REMARK    5  A    between atoms: C_10  and  C_11
REMARK    6  A    between atoms: C_11  and  C_12
REMARK                            x       y       z     vdW  Elec       q    Type
REMARK                         _______ _______ _______ _____ _____    ______ ____
ROOT
ATOM      1  N   UNL     1       4.689   5.782  17.780  0.00  0.00    +0.000 N 
ATOM      2  H   UNL     1       5.432   5.493  17.147  0.00  0.00    +0.000 HD
ENDROOT
BRANCH   1   5
ATOM      3  C   UNL     1       2.706   3.408  19.857  0.00  0.00    +0.000 A 
ATOM      4  C   UNL     1       3.446   4.542  19.506  0.00  0.00    +0.000 A 
ATOM      5  C   UNL     1       3.881   4.723  18.193  0.00  0.00    +0.000 A 
ATOM      6  C   UNL     1       3.592   3.710  17.279  0.00  0.00    +0.000 A 
ATOM      7  C   UNL     1       2.867   2.604  17.693  0.00  0.00    +0.000 A 
ATOM      8  N   UNL     1       2.411   2.434  18.950  0.00  0.00    +0.000 NA
BRANCH   3  10
ATOM      9  F   UNL     1       0.881   2.966  21.379  0.00  0.00    +0.000 F 
ATOM     10  C   UNL     1       2.219   3.248  21.291  0.00  0.00    +0.000 C 
ATOM     11  F   UNL     1       2.397   4.369  22.049  0.00  0.00    +0.000 F 
ATOM     12  F   UNL     1       2.840   2.235  21.961  0.00  0.00    +0.000 F 
ENDBRANCH   3  10
ENDBRANCH   1   5
BRANCH   1  13
ATOM     13  C   UNL     1       4.115   7.091  17.494  0.00  0.00    +0.000 C 
BRANCH  13  14
ATOM     14  C   UNL     1       2.618   7.086  17.802  0.00  0.00    +0.000 C 
BRANCH  14  15
ATOM     15  C   UNL     1       2.084   8.518  17.881  0.00  0.00    +0.000 C 
BRANCH  15  16
ATOM     16  C   UNL     1       1.472   8.822  19.220  0.00  0.00    +0.000 A 
ATOM     17  C   UNL     1       1.699   7.999  20.326  0.00  0.00    +0.000 A 
ATOM     18  C   UNL     1       1.121   8.316  21.551  0.00  0.00    +0.000 A 
ATOM     19  C   UNL     1       0.340   9.457  21.623  0.00  0.00    +0.000 A 
ATOM     20 CL   UNL     1      -0.405   9.920  23.096  0.00  0.00    +0.000 Cl
ATOM     21  N   UNL     1       0.100  10.283  20.585  0.00  0.00    +0.000 NA
ATOM     22  C   UNL     1       0.671   9.946  19.408  0.00  0.00    +0.000 A 
ENDBRANCH  15  16
ENDBRANCH  14  15
ENDBRANCH  13  14
ENDBRANCH   1  13
TORSDOF 6
ENDMDL
MODEL 9
REMARK VINA RESULT:      -6.7      4.241      6.117
REMARK  Name = 
REMARK  6 active torsions:
REMARK  status: ('A' for Active; 'I' for Inactive)
REMARK    1  A    between atoms: C_2  and  C_5
REMARK    2  A    between atoms: C_7  and  N_8
REMARK    3  A    between atoms: N_8  and  C_9
REMARK    4  A    between atoms: C_9  and  C_10
REMARK    5  A    between atoms: C_10  and  C_11
REMARK    6  A    between atoms: C_11  and  C_12
REMARK                            x       y       z     vdW  Elec       q    Type
REMARK                         _______ _______ _______ _____ _____    ______ ____
ROOT
ATOM      1  N   UNL     1       1.907   7.621  21.078  0.00  0.00    +0.000 N 
ATOM      2  H   UNL     1       2.744   8.198  21.115  0.00  0.00    +0.000 HD
ENDROOT
BRANCH   1   5
ATOM      3  C   UNL     1       1.787   4.208  19.586  0.00  0.00    +0.000 A 
ATOM      4  C   UNL     1       1.554   5.258  20.480  0.00  0.00    +0.000 A 
ATOM      5  C   UNL     1       2.027   6.540  20.203  0.00  0.00    +0.000 A 
ATOM      6  C   UNL     1       2.778   6.707  19.039  0.00  0.00    +0.000 A 
ATOM      7  C   UNL     1       2.986   5.623  18.201  0.00  0.00    +0.000 A 
ATOM      8  N   UNL     1       2.504   4.388  18.440  0.00  0.00    +0.000 NA
BRANCH   3  10
ATOM      9  F   UNL     1       2.129   1.816  19.648  0.00  0.00    +0.000 F 
ATOM     10  C   UNL     1       1.235   2.824  19.897  0.00  0.00    +0.000 C 
ATOM     11  F   UNL     1       0.129   2.508  19.163  0.00  0.00    +0.000 F 
ATOM     12  F   UNL     1       0.879   2.668  21.204  0.00  0.00    +0.000 F 
ENDBRANCH   3  10
ENDBRANCH   1   5
BRANCH   1  13
ATOM     13  C   UNL     1       0.651   8.352  21.191  0.00  0.00    +0.000 C 
BRANCH  13  14
ATOM     14  C   UNL     1       0.855   9.812  20.788  0.00  0.00    +0.000 C 
BRANCH  14  15
ATOM     15  C   UNL     1       0.792   9.961  19.267  0.00  0.00    +0.000 C 
BRANCH  15  16
ATOM     16  C   UNL     1      -0.570  10.388  18.795  0.00  0.00    +0.000 A 
ATOM     17  C   UNL     1      -1.140   9.852  17.638  0.00  0.00    +0.000 A 
ATOM     18  C   UNL     1      -2.407  10.265  17.237  0.00  0.00    +0.000 A 
ATOM     19  C   UNL     1      -3.060  11.201  18.021  0.00  0.00    +0.000 A 
ATOM     20 CL   UNL     1      -4.624  11.762  17.598  0.00  0.00    +0.000 Cl
ATOM     21  N   UNL     1      -2.552  11.740  19.147  0.00  0.00    +0.000 NA
ATOM     22  C   UNL     1      -1.320  11.322  19.508  0.00  0.00    +0.000 A 
ENDBRANCH  15  16
ENDBRANCH  14  15
ENDBRANCH  13  14
ENDBRANCH   1  13
TORSDOF 6
ENDMDL
