MODEL 1
REMARK VINA RESULT:      -8.1      0.000      0.000
REMARK  Name = 
REMARK  8 active torsions:
REMARK  status: ('A' for Active; 'I' for Inactive)
REMARK    1  A    between atoms: C_1  and  C_2
REMARK    2  A    between atoms: C_5  and  C_6
REMARK    3  A    between atoms: C_7  and  C_8
REMARK    4  A    between atoms: N_10  and  C_11
REMARK    5  A    between atoms: N_10  and  C_12
REMARK    6  A    between atoms: C_12  and  C_13
REMARK    7  A    between atoms: N_20  and  C_21
REMARK    8  A    between atoms: C_21  and  C_22
REMARK                            x       y       z     vdW  Elec       q    Type
REMARK                         _______ _______ _______ _____ _____    ______ ____
ROOT
ATOM      1  C   UNL     1       3.118   5.400  18.845  0.00  0.00    +0.000 A 
ATOM      2  C   UNL     1       3.234   4.301  19.678  0.00  0.00    +0.000 A 
ATOM      3  S   UNL     1       2.279   4.531  21.099  0.00  0.00    +0.000 S 
ATOM      4  C   UNL     1       1.883   6.088  20.552  0.00  0.00    +0.000 A 
ATOM      5  N   UNL     1       1.077   6.841  21.359  0.00  0.00    +0.000 N 
ATOM      6  C   UNL     1       0.754   8.154  21.127  0.00  0.00    +0.000 C 
ATOM      7  O   UNL     1      -0.003   8.743  21.899  0.00  0.00    +0.000 OA
ATOM      8  N   UNL     1       1.325   8.740  20.048  0.00  0.00    +0.000 N 
ATOM      9  N   UNL     1       2.404   6.450  19.406  0.00  0.00    +0.000 NA
ATOM     10  H   UNL     1       0.684   6.421  22.188  0.00  0.00    +0.000 HD
ATOM     11  H   UNL     1       2.061   8.213  19.584  0.00  0.00    +0.000 HD
ENDROOT
BRANCH   1  12
ATOM     12  C   UNL     1       3.733   5.613  17.484  0.00  0.00    +0.000 C 
BRANCH  12  15
ATOM     13  C   UNL     1       5.872   6.968  17.137  0.00  0.00    +0.000 C 
ATOM     14  O   UNL     1       6.380   8.088  17.041  0.00  0.00    +0.000 OA
ATOM     15  N   UNL     1       4.476   6.865  17.303  0.00  0.00    +0.000 N 
ATOM     16  C   UNL     1       3.723   8.121  17.277  0.00  0.00    +0.000 C 
BRANCH  13  23
ATOM     17  C   UNL     1       7.644   5.757  19.497  0.00  0.00    +0.000 C 
ATOM     18  C   UNL     1       7.541   5.277  18.092  0.00  0.00    +0.000 A 
ATOM     19  N   UNL     1       8.238   4.197  17.735  0.00  0.00    +0.000 NA
ATOM     20  O   UNL     1       7.922   3.972  16.427  0.00  0.00    +0.000 OA
ATOM     21  C   UNL     1       7.034   4.906  15.981  0.00  0.00    +0.000 A 
ATOM     22  C   UNL     1       6.594   4.621  14.601  0.00  0.00    +0.000 C 
ATOM     23  C   UNL     1       6.768   5.814  16.993  0.00  0.00    +0.000 A 
ENDBRANCH  13  23
ENDBRANCH  12  15
ENDBRANCH   1  12
BRANCH   8  24
ATOM     24  C   UNL     1       1.194  10.134  19.718  0.00  0.00    +0.000 C 
BRANCH  24  25
ATOM     25  C   UNL     1      -0.148  10.448  19.097  0.00  0.00    +0.000 A 
ATOM     26  C   UNL     1      -0.992  11.442  19.625  0.00  0.00    +0.000 A 
ATOM     27  C   UNL     1      -2.219  11.744  19.029  0.00  0.00    +0.000 A 
ATOM     28  C   UNL     1      -2.603  11.080  17.868  0.00  0.00    +0.000 A 
ATOM     29  C   UNL     1      -1.763  10.116  17.325  0.00  0.00    +0.000 A 
ATOM     30  F   UNL     1      -2.124   9.487  16.198  0.00  0.00    +0.000 F 
ATOM     31  C   UNL     1      -0.549   9.794  17.925  0.00  0.00    +0.000 A 
ENDBRANCH  24  25
ENDBRANCH   8  24
TORSDOF 5
ENDMDL
MODEL 2
REMARK VINA RESULT:      -8.1      0.849      1.232
REMARK  Name = 
REMARK  8 active torsions:
REMARK  status: ('A' for Active; 'I' for Inactive)
REMARK    1  A    between atoms: C_1  and  C_2
REMARK    2  A    between atoms: C_5  and  C_6
REMARK    3  A    between atoms: C_7  and  C_8
REMARK    4  A    between atoms: N_10  and  C_11
REMARK    5  A    between atoms: N_10  and  C_12
REMARK    6  A    between atoms: C_12  and  C_13
REMARK    7  A    between atoms: N_20  and  C_21
REMARK    8  A    between atoms: C_21  and  C_22
REMARK                            x       y       z     vdW  Elec       q    Type
REMARK                         _______ _______ _______ _____ _____    ______ ____
ROOT
ATOM      1  C   UNL     1       3.119   5.403  18.860  0.00  0.00    +0.000 A 
ATOM      2  C   UNL     1       3.239   4.311  19.700  0.00  0.00    +0.000 A 
ATOM      3  S   UNL     1       2.287   4.548  21.122  0.00  0.00    +0.000 S 
ATOM      4  C   UNL     1       1.886   6.101  20.565  0.00  0.00    +0.000 A 
ATOM      5  N   UNL     1       1.080   6.857  21.368  0.00  0.00    +0.000 N 
ATOM      6  C   UNL     1       0.754   8.168  21.128  0.00  0.00    +0.000 C 
ATOM      7  O   UNL     1      -0.002   8.761  21.898  0.00  0.00    +0.000 OA
ATOM      8  N   UNL     1       1.321   8.748  20.043  0.00  0.00    +0.000 N 
ATOM      9  N   UNL     1       2.404   6.455  19.415  0.00  0.00    +0.000 NA
ATOM     10  H   UNL     1       0.690   6.443  22.201  0.00  0.00    +0.000 HD
ATOM     11  H   UNL     1       2.057   8.219  19.581  0.00  0.00    +0.000 HD
ENDROOT
BRANCH   1  12
ATOM     12  C   UNL     1       3.729   5.608  17.496  0.00  0.00    +0.000 C 
BRANCH  12  15
ATOM     13  C   UNL     1       5.863   6.965  17.128  0.00  0.00    +0.000 C 
ATOM     14  O   UNL     1       6.368   8.085  17.023  0.00  0.00    +0.000 OA
ATOM     15  N   UNL     1       4.469   6.860  17.303  0.00  0.00    +0.000 N 
ATOM     16  C   UNL     1       3.712   8.115  17.276  0.00  0.00    +0.000 C 
BRANCH  13  23
ATOM     17  C   UNL     1       7.638   5.758  19.487  0.00  0.00    +0.000 C 
ATOM     18  C   UNL     1       7.535   5.278  18.082  0.00  0.00    +0.000 A 
ATOM     19  N   UNL     1       8.234   4.199  17.726  0.00  0.00    +0.000 NA
ATOM     20  O   UNL     1       7.917   3.972  16.418  0.00  0.00    +0.000 OA
ATOM     21  C   UNL     1       7.027   4.904  15.972  0.00  0.00    +0.000 A 
ATOM     22  C   UNL     1       6.587   4.618  14.593  0.00  0.00    +0.000 C 
ATOM     23  C   UNL     1       6.761   5.813  16.984  0.00  0.00    +0.000 A 
ENDBRANCH  13  23
ENDBRANCH  12  15
ENDBRANCH   1  12
BRANCH   8  24
ATOM     24  C   UNL     1       1.186  10.139  19.703  0.00  0.00    +0.000 C 
BRANCH  24  25
ATOM     25  C   UNL     1      -0.125  10.432  19.011  0.00  0.00    +0.000 A 
ATOM     26  C   UNL     1      -0.506   9.759  17.836  0.00  0.00    +0.000 A 
ATOM     27  C   UNL     1      -1.731  10.017  17.216  0.00  0.00    +0.000 A 
ATOM     28  C   UNL     1      -2.614  10.928  17.788  0.00  0.00    +0.000 A 
ATOM     29  C   UNL     1      -2.256  11.578  18.963  0.00  0.00    +0.000 A 
ATOM     30  F   UNL     1      -3.111  12.444  19.524  0.00  0.00    +0.000 F 
ATOM     31  C   UNL     1      -1.028  11.342  19.574  0.00  0.00    +0.000 A 
ENDBRANCH  24  25
ENDBRANCH   8  24
TORSDOF 5
ENDMDL
MODEL 3
REMARK VINA RESULT:      -7.9      3.217      8.492
REMARK  Name = 
REMARK  8 active torsions:
REMARK  status: ('A' for Active; 'I' for Inactive)
REMARK    1  A    between atoms: C_1  and  C_2
REMARK    2  A    between atoms: C_5  and  C_6
REMARK    3  A    between atoms: C_7  and  C_8
REMARK    4  A    between atoms: N_10  and  C_11
REMARK    5  A    between atoms: N_10  and  C_12
REMARK    6  A    between atoms: C_12  and  C_13
REMARK    7  A    between atoms: N_20  and  C_21
REMARK    8  A    between atoms: C_21  and  C_22
REMARK                            x       y       z     vdW  Elec       q    Type
REMARK                         _______ _______ _______ _____ _____    ______ ____
ROOT
ATOM      1  C   UNL     1       0.998   9.799  19.613  0.00  0.00    +0.000 A 
ATOM      2  C   UNL     1       0.546  10.178  20.864  0.00  0.00    +0.000 A 
ATOM      3  S   UNL     1       0.876   8.933  22.016  0.00  0.00    +0.000 S 
ATOM      4  C   UNL     1       1.482   7.965  20.760  0.00  0.00    +0.000 A 
ATOM      5  N   UNL     1       1.924   6.717  21.099  0.00  0.00    +0.000 N 
ATOM      6  C   UNL     1       2.335   5.768  20.198  0.00  0.00    +0.000 C 
ATOM      7  O   UNL     1       2.742   4.678  20.602  0.00  0.00    +0.000 OA
ATOM      8  N   UNL     1       2.242   6.091  18.887  0.00  0.00    +0.000 N 
ATOM      9  N   UNL     1       1.456   8.489  19.560  0.00  0.00    +0.000 NA
ATOM     10  H   UNL     1       1.955   6.456  22.073  0.00  0.00    +0.000 HD
ATOM     11  H   UNL     1       1.735   6.945  18.667  0.00  0.00    +0.000 HD
ENDROOT
BRANCH   1  12
ATOM     12  C   UNL     1       0.967  10.586  18.327  0.00  0.00    +0.000 C 
BRANCH  12  15
ATOM     13  C   UNL     1      -0.208  12.846  18.547  0.00  0.00    +0.000 C 
ATOM     14  O   UNL     1      -0.083  14.071  18.615  0.00  0.00    +0.000 OA
ATOM     15  N   UNL     1       0.951  12.046  18.467  0.00  0.00    +0.000 N 
ATOM     16  C   UNL     1       2.234  12.750  18.543  0.00  0.00    +0.000 C 
BRANCH  13  23
ATOM     17  C   UNL     1      -2.178  13.310  21.011  0.00  0.00    +0.000 C 
ATOM     18  C   UNL     1      -2.445  12.557  19.755  0.00  0.00    +0.000 A 
ATOM     19  N   UNL     1      -3.651  12.012  19.585  0.00  0.00    +0.000 NA
ATOM     20  O   UNL     1      -3.620  11.432  18.350  0.00  0.00    +0.000 OA
ATOM     21  C   UNL     1      -2.403  11.619  17.763  0.00  0.00    +0.000 A 
ATOM     22  C   UNL     1      -2.379  11.093  16.385  0.00  0.00    +0.000 C 
ATOM     23  C   UNL     1      -1.570  12.308  18.632  0.00  0.00    +0.000 A 
ENDBRANCH  13  23
ENDBRANCH  12  15
ENDBRANCH   1  12
BRANCH   8  24
ATOM     24  C   UNL     1       2.516   5.183  17.806  0.00  0.00    +0.000 C 
BRANCH  24  25
ATOM     25  C   UNL     1       3.952   5.270  17.340  0.00  0.00    +0.000 A 
ATOM     26  C   UNL     1       4.579   4.200  16.676  0.00  0.00    +0.000 A 
ATOM     27  C   UNL     1       5.898   4.298  16.226  0.00  0.00    +0.000 A 
ATOM     28  C   UNL     1       6.598   5.487  16.401  0.00  0.00    +0.000 A 
ATOM     29  C   UNL     1       5.978   6.557  17.033  0.00  0.00    +0.000 A 
ATOM     30  F   UNL     1       6.646   7.708  17.188  0.00  0.00    +0.000 F 
ATOM     31  C   UNL     1       4.672   6.460  17.503  0.00  0.00    +0.000 A 
ENDBRANCH  24  25
ENDBRANCH   8  24
TORSDOF 5
ENDMDL
MODEL 4
REMARK VINA RESULT:      -7.9      3.390      8.458
REMARK  Name = 
REMARK  8 active torsions:
REMARK  status: ('A' for Active; 'I' for Inactive)
REMARK    1  A    between atoms: C_1  and  C_2
REMARK    2  A    between atoms: C_5  and  C_6
REMARK    3  A    between atoms: C_7  and  C_8
REMARK    4  A    between atoms: N_10  and  C_11
REMARK    5  A    between atoms: N_10  and  C_12
REMARK    6  A    between atoms: C_12  and  C_13
REMARK    7  A    between atoms: N_20  and  C_21
REMARK    8  A    between atoms: C_21  and  C_22
REMARK                            x       y       z     vdW  Elec       q    Type
REMARK                         _______ _______ _______ _____ _____    ______ ____
ROOT
ATOM      1  C   UNL     1       1.009   9.788  19.637  0.00  0.00    +0.000 A 
ATOM      2  C   UNL     1       0.569  10.203  20.881  0.00  0.00    +0.000 A 
ATOM      3  S   UNL     1       0.885   8.980  22.060  0.00  0.00    +0.000 S 
ATOM      4  C   UNL     1       1.470   7.974  20.824  0.00  0.00    +0.000 A 
ATOM      5  N   UNL     1       1.894   6.728  21.190  0.00  0.00    +0.000 N 
ATOM      6  C   UNL     1       2.287   5.752  20.309  0.00  0.00    +0.000 C 
ATOM      7  O   UNL     1       2.679   4.665  20.736  0.00  0.00    +0.000 OA
ATOM      8  N   UNL     1       2.192   6.047  18.991  0.00  0.00    +0.000 N 
ATOM      9  N   UNL     1       1.446   8.471  19.613  0.00  0.00    +0.000 NA
ATOM     10  H   UNL     1       1.926   6.489  22.169  0.00  0.00    +0.000 HD
ATOM     11  H   UNL     1       1.698   6.903  18.754  0.00  0.00    +0.000 HD
ENDROOT
BRANCH   1  12
ATOM     12  C   UNL     1       0.984  10.547  18.333  0.00  0.00    +0.000 C 
BRANCH  12  15
ATOM     13  C   UNL     1      -0.155  12.828  18.511  0.00  0.00    +0.000 C 
ATOM     14  O   UNL     1      -0.012  14.052  18.551  0.00  0.00    +0.000 OA
ATOM     15  N   UNL     1       0.991  12.010  18.440  0.00  0.00    +0.000 N 
ATOM     16  C   UNL     1       2.285  12.696  18.489  0.00  0.00    +0.000 C 
BRANCH  13  23
ATOM     17  C   UNL     1      -2.078  13.334  21.004  0.00  0.00    +0.000 C 
ATOM     18  C   UNL     1      -2.378  12.580  19.756  0.00  0.00    +0.000 A 
ATOM     19  N   UNL     1      -3.595  12.054  19.607  0.00  0.00    +0.000 NA
ATOM     20  O   UNL     1      -3.592  11.469  18.374  0.00  0.00    +0.000 OA
ATOM     21  C   UNL     1      -2.382  11.634  17.767  0.00  0.00    +0.000 A 
ATOM     22  C   UNL     1      -2.388  11.103  16.391  0.00  0.00    +0.000 C 
ATOM     23  C   UNL     1      -1.525  12.312  18.619  0.00  0.00    +0.000 A 
ENDBRANCH  13  23
ENDBRANCH  12  15
ENDBRANCH   1  12
BRANCH   8  24
ATOM     24  C   UNL     1       2.448   5.110  17.930  0.00  0.00    +0.000 C 
BRANCH  24  25
ATOM     25  C   UNL     1       3.822   5.294  17.326  0.00  0.00    +0.000 A 
ATOM     26  C   UNL     1       4.562   6.474  17.522  0.00  0.00    +0.000 A 
ATOM     27  C   UNL     1       5.842   6.626  16.982  0.00  0.00    +0.000 A 
ATOM     28  C   UNL     1       6.416   5.579  16.268  0.00  0.00    +0.000 A 
ATOM     29  C   UNL     1       5.702   4.400  16.093  0.00  0.00    +0.000 A 
ATOM     30  F   UNL     1       6.260   3.385  15.420  0.00  0.00    +0.000 F 
ATOM     31  C   UNL     1       4.419   4.250  16.609  0.00  0.00    +0.000 A 
ENDBRANCH  24  25
ENDBRANCH   8  24
TORSDOF 5
ENDMDL
MODEL 5
REMARK VINA RESULT:      -7.8      0.392      1.511
REMARK  Name = 
REMARK  8 active torsions:
REMARK  status: ('A' for Active; 'I' for Inactive)
REMARK    1  A    between atoms: C_1  and  C_2
REMARK    2  A    between atoms: C_5  and  C_6
REMARK    3  A    between atoms: C_7  and  C_8
REMARK    4  A    between atoms: N_10  and  C_11
REMARK    5  A    between atoms: N_10  and  C_12
REMARK    6  A    between atoms: C_12  and  C_13
REMARK    7  A    between atoms: N_20  and  C_21
REMARK    8  A    between atoms: C_21  and  C_22
REMARK                            x       y       z     vdW  Elec       q    Type
REMARK                         _______ _______ _______ _____ _____    ______ ____
ROOT
ATOM      1  C   UNL     1       3.038   5.361  18.877  0.00  0.00    +0.000 A 
ATOM      2  C   UNL     1       3.159   4.280  19.731  0.00  0.00    +0.000 A 
ATOM      3  S   UNL     1       2.239   4.553  21.168  0.00  0.00    +0.000 S 
ATOM      4  C   UNL     1       1.851   6.104  20.595  0.00  0.00    +0.000 A 
ATOM      5  N   UNL     1       1.073   6.884  21.403  0.00  0.00    +0.000 N 
ATOM      6  C   UNL     1       0.761   8.196  21.149  0.00  0.00    +0.000 C 
ATOM      7  O   UNL     1       0.029   8.811  21.925  0.00  0.00    +0.000 OA
ATOM      8  N   UNL     1       1.315   8.750  20.044  0.00  0.00    +0.000 N 
ATOM      9  N   UNL     1       2.350   6.433  19.430  0.00  0.00    +0.000 NA
ATOM     10  H   UNL     1       0.693   6.488  22.249  0.00  0.00    +0.000 HD
ATOM     11  H   UNL     1       2.033   8.204  19.576  0.00  0.00    +0.000 HD
ENDROOT
BRANCH   1  12
ATOM     12  C   UNL     1       3.625   5.537  17.498  0.00  0.00    +0.000 C 
BRANCH  12  15
ATOM     13  C   UNL     1       5.759   6.912  17.212  0.00  0.00    +0.000 C 
ATOM     14  O   UNL     1       6.252   8.032  17.055  0.00  0.00    +0.000 OA
ATOM     15  N   UNL     1       4.356   6.786  17.264  0.00  0.00    +0.000 N 
ATOM     16  C   UNL     1       3.584   8.013  17.053  0.00  0.00    +0.000 C 
BRANCH  13  23
ATOM     17  C   UNL     1       6.402   5.010  14.734  0.00  0.00    +0.000 C 
ATOM     18  C   UNL     1       6.972   4.947  16.108  0.00  0.00    +0.000 A 
ATOM     19  N   UNL     1       7.884   4.011  16.375  0.00  0.00    +0.000 NA
ATOM     20  O   UNL     1       8.250   4.217  17.674  0.00  0.00    +0.000 OA
ATOM     21  C   UNL     1       7.568   5.272  18.203  0.00  0.00    +0.000 A 
ATOM     22  C   UNL     1       8.022   5.582  19.572  0.00  0.00    +0.000 C 
ATOM     23  C   UNL     1       6.687   5.775  17.258  0.00  0.00    +0.000 A 
ENDBRANCH  13  23
ENDBRANCH  12  15
ENDBRANCH   1  12
BRANCH   8  24
ATOM     24  C   UNL     1       1.195  10.138  19.686  0.00  0.00    +0.000 C 
BRANCH  24  25
ATOM     25  C   UNL     1      -0.153  10.455  19.079  0.00  0.00    +0.000 A 
ATOM     26  C   UNL     1      -1.004  11.428  19.633  0.00  0.00    +0.000 A 
ATOM     27  C   UNL     1      -2.236  11.732  19.051  0.00  0.00    +0.000 A 
ATOM     28  C   UNL     1      -2.620  11.092  17.877  0.00  0.00    +0.000 A 
ATOM     29  C   UNL     1      -1.774  10.148  17.308  0.00  0.00    +0.000 A 
ATOM     30  F   UNL     1      -2.135   9.541  16.169  0.00  0.00    +0.000 F 
ATOM     31  C   UNL     1      -0.554   9.824  17.894  0.00  0.00    +0.000 A 
ENDBRANCH  24  25
ENDBRANCH   8  24
TORSDOF 5
ENDMDL
MODEL 6
REMARK VINA RESULT:      -7.6      4.675      7.671
REMARK  Name = 
REMARK  8 active torsions:
REMARK  status: ('A' for Active; 'I' for Inactive)
REMARK    1  A    between atoms: C_1  and  C_2
REMARK    2  A    between atoms: C_5  and  C_6
REMARK    3  A    between atoms: C_7  and  C_8
REMARK    4  A    between atoms: N_10  and  C_11
REMARK    5  A    between atoms: N_10  and  C_12
REMARK    6  A    between atoms: C_12  and  C_13
REMARK    7  A    between atoms: N_20  and  C_21
REMARK    8  A    between atoms: C_21  and  C_22
REMARK                            x       y       z     vdW  Elec       q    Type
REMARK                         _______ _______ _______ _____ _____    ______ ____
ROOT
ATOM      1  C   UNL     1      -2.587  10.493  17.457  0.00  0.00    +0.000 A 
ATOM      2  C   UNL     1      -2.515  10.072  16.141  0.00  0.00    +0.000 A 
ATOM      3  S   UNL     1      -3.838  10.720  15.238  0.00  0.00    +0.000 S 
ATOM      4  C   UNL     1      -4.447  11.404  16.668  0.00  0.00    +0.000 A 
ATOM      5  N   UNL     1      -5.618  12.100  16.570  0.00  0.00    +0.000 N 
ATOM      6  C   UNL     1      -6.306  12.617  17.639  0.00  0.00    +0.000 C 
ATOM      7  O   UNL     1      -7.343  13.254  17.449  0.00  0.00    +0.000 OA
ATOM      8  N   UNL     1      -5.799  12.365  18.869  0.00  0.00    +0.000 N 
ATOM      9  N   UNL     1      -3.751  11.187  17.756  0.00  0.00    +0.000 NA
ATOM     10  H   UNL     1      -6.023  12.254  15.659  0.00  0.00    +0.000 HD
ATOM     11  H   UNL     1      -5.040  11.689  18.915  0.00  0.00    +0.000 HD
ENDROOT
BRANCH   1  12
ATOM     12  C   UNL     1      -1.622  10.215  18.583  0.00  0.00    +0.000 C 
BRANCH  12  15
ATOM     13  C   UNL     1       0.650  11.009  19.442  0.00  0.00    +0.000 C 
ATOM     14  O   UNL     1       1.409  11.964  19.618  0.00  0.00    +0.000 OA
ATOM     15  N   UNL     1      -0.593  11.233  18.815  0.00  0.00    +0.000 N 
ATOM     16  C   UNL     1      -0.852  12.599  18.354  0.00  0.00    +0.000 C 
BRANCH  13  23
ATOM     17  C   UNL     1       0.130   9.672  22.291  0.00  0.00    +0.000 C 
ATOM     18  C   UNL     1       0.867   9.098  21.132  0.00  0.00    +0.000 A 
ATOM     19  N   UNL     1       1.369   7.867  21.243  0.00  0.00    +0.000 NA
ATOM     20  O   UNL     1       1.944   7.595  20.036  0.00  0.00    +0.000 OA
ATOM     21  C   UNL     1       1.796   8.651  19.185  0.00  0.00    +0.000 A 
ATOM     22  C   UNL     1       2.315   8.341  17.840  0.00  0.00    +0.000 C 
ATOM     23  C   UNL     1       1.141   9.684  19.838  0.00  0.00    +0.000 A 
ENDBRANCH  13  23
ENDBRANCH  12  15
ENDBRANCH   1  12
BRANCH   8  24
ATOM     24  C   UNL     1      -6.445  12.725  20.102  0.00  0.00    +0.000 C 
BRANCH  24  25
ATOM     25  C   UNL     1      -5.472  12.785  21.258  0.00  0.00    +0.000 A 
ATOM     26  C   UNL     1      -5.910  12.948  22.585  0.00  0.00    +0.000 A 
ATOM     27  C   UNL     1      -5.006  12.977  23.649  0.00  0.00    +0.000 A 
ATOM     28  C   UNL     1      -3.647  12.803  23.404  0.00  0.00    +0.000 A 
ATOM     29  C   UNL     1      -3.209  12.615  22.099  0.00  0.00    +0.000 A 
ATOM     30  F   UNL     1      -1.903  12.432  21.863  0.00  0.00    +0.000 F 
ATOM     31  C   UNL     1      -4.101  12.607  21.031  0.00  0.00    +0.000 A 
ENDBRANCH  24  25
ENDBRANCH   8  24
TORSDOF 5
ENDMDL
MODEL 7
REMARK VINA RESULT:      -7.5      6.694     11.070
REMARK  Name = 
REMARK  8 active torsions:
REMARK  status: ('A' for Active; 'I' for Inactive)
REMARK    1  A    between atoms: C_1  and  C_2
REMARK    2  A    between atoms: C_5  and  C_6
REMARK    3  A    between atoms: C_7  and  C_8
REMARK    4  A    between atoms: N_10  and  C_11
REMARK    5  A    between atoms: N_10  and  C_12
REMARK    6  A    between atoms: C_12  and  C_13
REMARK    7  A    between atoms: N_20  and  C_21
REMARK    8  A    between atoms: C_21  and  C_22
REMARK                            x       y       z     vdW  Elec       q    Type
REMARK                         _______ _______ _______ _____ _____    ______ ____
ROOT
ATOM      1  C   UNL     1      -2.415  13.772  22.422  0.00  0.00    +0.000 A 
ATOM      2  C   UNL     1      -1.700  14.664  23.202  0.00  0.00    +0.000 A 
ATOM      3  S   UNL     1      -0.077  14.789  22.623  0.00  0.00    +0.000 S 
ATOM      4  C   UNL     1      -0.420  13.589  21.472  0.00  0.00    +0.000 A 
ATOM      5  N   UNL     1       0.601  13.214  20.646  0.00  0.00    +0.000 N 
ATOM      6  C   UNL     1       0.531  12.184  19.742  0.00  0.00    +0.000 C 
ATOM      7  O   UNL     1       1.497  11.937  19.020  0.00  0.00    +0.000 OA
ATOM      8  N   UNL     1      -0.621  11.472  19.719  0.00  0.00    +0.000 N 
ATOM      9  N   UNL     1      -1.637  13.104  21.487  0.00  0.00    +0.000 NA
ATOM     10  H   UNL     1       1.476  13.714  20.690  0.00  0.00    +0.000 HD
ATOM     11  H   UNL     1      -1.280  11.654  20.471  0.00  0.00    +0.000 HD
ENDROOT
BRANCH   1  12
ATOM     12  C   UNL     1      -3.871  13.392  22.529  0.00  0.00    +0.000 C 
BRANCH  12  15
ATOM     13  C   UNL     1      -6.116  13.842  21.394  0.00  0.00    +0.000 C 
ATOM     14  O   UNL     1      -6.789  14.617  20.709  0.00  0.00    +0.000 OA
ATOM     15  N   UNL     1      -4.810  14.221  21.765  0.00  0.00    +0.000 N 
ATOM     16  C   UNL     1      -4.378  15.560  21.355  0.00  0.00    +0.000 C 
BRANCH  13  23
ATOM     17  C   UNL     1      -7.322  13.383  24.310  0.00  0.00    +0.000 C 
ATOM     18  C   UNL     1      -7.324  12.438  23.160  0.00  0.00    +0.000 A 
ATOM     19  N   UNL     1      -7.912  11.250  23.313  0.00  0.00    +0.000 NA
ATOM     20  O   UNL     1      -7.796  10.625  22.106  0.00  0.00    +0.000 OA
ATOM     21  C   UNL     1      -7.143  11.423  21.213  0.00  0.00    +0.000 A 
ATOM     22  C   UNL     1      -7.099  10.814  19.870  0.00  0.00    +0.000 C 
ATOM     23  C   UNL     1      -6.767  12.604  21.836  0.00  0.00    +0.000 A 
ENDBRANCH  13  23
ENDBRANCH  12  15
ENDBRANCH   1  12
BRANCH   8  24
ATOM     24  C   UNL     1      -0.829  10.292  18.922  0.00  0.00    +0.000 C 
BRANCH  24  25
ATOM     25  C   UNL     1      -1.949  10.470  17.923  0.00  0.00    +0.000 A 
ATOM     26  C   UNL     1      -3.083  11.250  18.216  0.00  0.00    +0.000 A 
ATOM     27  C   UNL     1      -4.102  11.430  17.277  0.00  0.00    +0.000 A 
ATOM     28  C   UNL     1      -3.982  10.862  16.013  0.00  0.00    +0.000 A 
ATOM     29  C   UNL     1      -2.853  10.112  15.707  0.00  0.00    +0.000 A 
ATOM     30  F   UNL     1      -2.729   9.577  14.485  0.00  0.00    +0.000 F 
ATOM     31  C   UNL     1      -1.844   9.910  16.644  0.00  0.00    +0.000 A 
ENDBRANCH  24  25
ENDBRANCH   8  24
TORSDOF 5
ENDMDL
MODEL 8
REMARK VINA RESULT:      -7.5      3.437      8.580
REMARK  Name = 
REMARK  8 active torsions:
REMARK  status: ('A' for Active; 'I' for Inactive)
REMARK    1  A    between atoms: C_1  and  C_2
REMARK    2  A    between atoms: C_5  and  C_6
REMARK    3  A    between atoms: C_7  and  C_8
REMARK    4  A    between atoms: N_10  and  C_11
REMARK    5  A    between atoms: N_10  and  C_12
REMARK    6  A    between atoms: C_12  and  C_13
REMARK    7  A    between atoms: N_20  and  C_21
REMARK    8  A    between atoms: C_21  and  C_22
REMARK                            x       y       z     vdW  Elec       q    Type
REMARK                         _______ _______ _______ _____ _____    ______ ____
ROOT
ATOM      1  C   UNL     1       0.753   9.809  19.669  0.00  0.00    +0.000 A 
ATOM      2  C   UNL     1       0.057  10.140  20.817  0.00  0.00    +0.000 A 
ATOM      3  S   UNL     1       0.260   8.906  22.010  0.00  0.00    +0.000 S 
ATOM      4  C   UNL     1       1.150   7.998  20.884  0.00  0.00    +0.000 A 
ATOM      5  N   UNL     1       1.609   6.780  21.298  0.00  0.00    +0.000 N 
ATOM      6  C   UNL     1       2.243   5.873  20.486  0.00  0.00    +0.000 C 
ATOM      7  O   UNL     1       2.645   4.809  20.957  0.00  0.00    +0.000 OA
ATOM      8  N   UNL     1       2.365   6.206  19.180  0.00  0.00    +0.000 N 
ATOM      9  N   UNL     1       1.303   8.535  19.700  0.00  0.00    +0.000 NA
ATOM     10  H   UNL     1       1.482   6.509  22.261  0.00  0.00    +0.000 HD
ATOM     11  H   UNL     1       1.848   7.026  18.872  0.00  0.00    +0.000 HD
ENDROOT
BRANCH   1  12
ATOM     12  C   UNL     1       0.899  10.609  18.398  0.00  0.00    +0.000 C 
BRANCH  12  15
ATOM     13  C   UNL     1      -0.323  12.847  18.574  0.00  0.00    +0.000 C 
ATOM     14  O   UNL     1      -0.223  14.073  18.657  0.00  0.00    +0.000 OA
ATOM     15  N   UNL     1       0.851  12.068  18.547  0.00  0.00    +0.000 N 
ATOM     16  C   UNL     1       2.117  12.792  18.694  0.00  0.00    +0.000 C 
BRANCH  13  23
ATOM     17  C   UNL     1      -2.427  13.267  20.933  0.00  0.00    +0.000 C 
ATOM     18  C   UNL     1      -2.616  12.515  19.662  0.00  0.00    +0.000 A 
ATOM     19  N   UNL     1      -3.802  11.951  19.427  0.00  0.00    +0.000 NA
ATOM     20  O   UNL     1      -3.696  11.377  18.193  0.00  0.00    +0.000 OA
ATOM     21  C   UNL     1      -2.454  11.587  17.672  0.00  0.00    +0.000 A 
ATOM     22  C   UNL     1      -2.348  11.068  16.294  0.00  0.00    +0.000 C 
ATOM     23  C   UNL     1      -1.679  12.286  18.585  0.00  0.00    +0.000 A 
ENDBRANCH  13  23
ENDBRANCH  12  15
ENDBRANCH   1  12
BRANCH   8  24
ATOM     24  C   UNL     1       2.893   5.333  18.166  0.00  0.00    +0.000 C 
BRANCH  24  25
ATOM     25  C   UNL     1       4.354   5.604  17.886  0.00  0.00    +0.000 A 
ATOM     26  C   UNL     1       4.785   6.136  16.658  0.00  0.00    +0.000 A 
ATOM     27  C   UNL     1       6.134   6.407  16.417  0.00  0.00    +0.000 A 
ATOM     28  C   UNL     1       7.071   6.186  17.422  0.00  0.00    +0.000 A 
ATOM     29  C   UNL     1       6.650   5.686  18.648  0.00  0.00    +0.000 A 
ATOM     30  F   UNL     1       7.549   5.487  19.621  0.00  0.00    +0.000 F 
ATOM     31  C   UNL     1       5.311   5.392  18.887  0.00  0.00    +0.000 A 
ENDBRANCH  24  25
ENDBRANCH   8  24
TORSDOF 5
ENDMDL
MODEL 9
REMARK VINA RESULT:      -7.4      3.416      8.601
REMARK  Name = 
REMARK  8 active torsions:
REMARK  status: ('A' for Active; 'I' for Inactive)
REMARK    1  A    between atoms: C_1  and  C_2
REMARK    2  A    between atoms: C_5  and  C_6
REMARK    3  A    between atoms: C_7  and  C_8
REMARK    4  A    between atoms: N_10  and  C_11
REMARK    5  A    between atoms: N_10  and  C_12
REMARK    6  A    between atoms: C_12  and  C_13
REMARK    7  A    between atoms: N_20  and  C_21
REMARK    8  A    between atoms: C_21  and  C_22
REMARK                            x       y       z     vdW  Elec       q    Type
REMARK                         _______ _______ _______ _____ _____    ______ ____
ROOT
ATOM      1  C   UNL     1       0.743   9.718  19.739  0.00  0.00    +0.000 A 
ATOM      2  C   UNL     1       0.387  10.150  21.003  0.00  0.00    +0.000 A 
ATOM      3  S   UNL     1       0.850   8.976  22.183  0.00  0.00    +0.000 S 
ATOM      4  C   UNL     1       1.378   7.959  20.930  0.00  0.00    +0.000 A 
ATOM      5  N   UNL     1       1.883   6.743  21.291  0.00  0.00    +0.000 N 
ATOM      6  C   UNL     1       2.246   5.759  20.407  0.00  0.00    +0.000 C 
ATOM      7  O   UNL     1       2.718   4.702  20.828  0.00  0.00    +0.000 OA
ATOM      8  N   UNL     1       2.033   6.011  19.094  0.00  0.00    +0.000 N 
ATOM      9  N   UNL     1       1.235   8.420  19.712  0.00  0.00    +0.000 NA
ATOM     10  H   UNL     1       2.004   6.534  22.271  0.00  0.00    +0.000 HD
ATOM     11  H   UNL     1       1.485   6.839  18.876  0.00  0.00    +0.000 HD
ENDROOT
BRANCH   1  12
ATOM     12  C   UNL     1       0.581  10.437  18.422  0.00  0.00    +0.000 C 
BRANCH  12  15
ATOM     13  C   UNL     1      -0.336  12.814  18.613  0.00  0.00    +0.000 C 
ATOM     14  O   UNL     1      -0.086  14.022  18.585  0.00  0.00    +0.000 OA
ATOM     15  N   UNL     1       0.723  11.896  18.464  0.00  0.00    +0.000 N 
ATOM     16  C   UNL     1       2.068  12.466  18.356  0.00  0.00    +0.000 C 
BRANCH  13  23
ATOM     17  C   UNL     1      -2.229  11.343  16.509  0.00  0.00    +0.000 C 
ATOM     18  C   UNL     1      -2.550  11.740  17.907  0.00  0.00    +0.000 A 
ATOM     19  N   UNL     1      -3.757  11.443  18.391  0.00  0.00    +0.000 NA
ATOM     20  O   UNL     1      -3.752  11.883  19.684  0.00  0.00    +0.000 OA
ATOM     21  C   UNL     1      -2.549  12.445  19.994  0.00  0.00    +0.000 A 
ATOM     22  C   UNL     1      -2.481  12.832  21.416  0.00  0.00    +0.000 C 
ATOM     23  C   UNL     1      -1.727  12.427  18.878  0.00  0.00    +0.000 A 
ENDBRANCH  13  23
ENDBRANCH  12  15
ENDBRANCH   1  12
BRANCH   8  24
ATOM     24  C   UNL     1       2.243   5.056  18.040  0.00  0.00    +0.000 C 
BRANCH  24  25
ATOM     25  C   UNL     1       3.581   5.242  17.361  0.00  0.00    +0.000 A 
ATOM     26  C   UNL     1       4.247   6.481  17.368  0.00  0.00    +0.000 A 
ATOM     27  C   UNL     1       5.495   6.638  16.760  0.00  0.00    +0.000 A 
ATOM     28  C   UNL     1       6.115   5.542  16.167  0.00  0.00    +0.000 A 
ATOM     29  C   UNL     1       5.475   4.309  16.178  0.00  0.00    +0.000 A 
ATOM     30  F   UNL     1       6.078   3.250  15.621  0.00  0.00    +0.000 F 
ATOM     31  C   UNL     1       4.223   4.150  16.763  0.00  0.00    +0.000 A 
ENDBRANCH  24  25
ENDBRANCH   8  24
TORSDOF 5
ENDMDL
