MODEL 1
REMARK VINA RESULT:     -10.5      0.000      0.000
REMARK  Name = 
REMARK  4 active torsions:
REMARK  status: ('A' for Active; 'I' for Inactive)
REMARK    1  A    between atoms: C_2  and  C_3
REMARK    2  A    between atoms: C_2  and  C_9
REMARK    3  A    between atoms: C_18  and  C_19
REMARK    4  A    between atoms: C_20  and  O_21
REMARK                            x       y       z     vdW  Elec       q    Type
REMARK                         _______ _______ _______ _____ _____    ______ ____
ROOT
ATOM      1  C   UNL     1       6.335   4.387  15.747  0.00  0.00    +0.000 A 
ATOM      2  C   UNL     1       7.134   4.502  16.882  0.00  0.00    +0.000 A 
ATOM      3  C   UNL     1       6.508   4.770  18.108  0.00  0.00    +0.000 A 
ATOM      4  C   UNL     1       5.108   4.917  18.153  0.00  0.00    +0.000 A 
ATOM      5  C   UNL     1       4.370   4.264  17.147  0.00  0.00    +0.000 A 
ATOM      6  C   UNL     1       4.981   4.113  15.915  0.00  0.00    +0.000 A 
ATOM      7  N   UNL     1       3.013   3.901  17.190  0.00  0.00    +0.000 NA
ATOM      8  C   UNL     1       2.255   4.136  18.205  0.00  0.00    +0.000 C 
ATOM      9  C   UNL     1       2.642   4.889  19.428  0.00  0.00    +0.000 C 
ATOM     10  C   UNL     1       3.316   6.198  19.064  0.00  0.00    +0.000 C 
ATOM     11  N   UNL     1       4.561   6.166  18.635  0.00  0.00    +0.000 NA
ENDROOT
BRANCH  10  12
ATOM     12  C   UNL     1       2.471   7.466  19.045  0.00  0.00    +0.000 A 
ATOM     13  C   UNL     1       1.797   7.928  20.123  0.00  0.00    +0.000 A 
ATOM     14  C   UNL     1       1.082   9.179  20.045  0.00  0.00    +0.000 A 
ATOM     15  C   UNL     1      -0.199   9.511  20.734  0.00  0.00    +0.000 A 
ATOM     16  O   UNL     1      -0.450   9.327  21.913  0.00  0.00    +0.000 OA
ATOM     17  O   UNL     1      -1.132   9.997  19.814  0.00  0.00    +0.000 OA
ATOM     18  C   UNL     1      -0.654  11.241  19.375  0.00  0.00    +0.000 A 
ATOM     19  C   UNL     1      -1.538  12.325  19.418  0.00  0.00    +0.000 A 
ATOM     20  C   UNL     1      -1.011  13.600  19.415  0.00  0.00    +0.000 A 
ATOM     21  C   UNL     1       0.378  13.771  19.385  0.00  0.00    +0.000 A 
ATOM     22  C   UNL     1       1.246  12.671  19.199  0.00  0.00    +0.000 A 
ATOM     23  C   UNL     1       0.721  11.377  19.144  0.00  0.00    +0.000 A 
ATOM     24  C   UNL     1       1.458  10.101  19.150  0.00  0.00    +0.000 A 
ATOM     25  O   UNL     1       2.311   9.751  18.084  0.00  0.00    +0.000 OA
ATOM     26  C   UNL     1       2.489   8.394  17.856  0.00  0.00    +0.000 A 
ATOM     27  O   UNL     1       2.748   7.964  16.736  0.00  0.00    +0.000 OA
BRANCH  13  28
ATOM     28  O   UNL     1       1.833   7.380  21.383  0.00  0.00    +0.000 OA
ATOM     29  H   UNL     1       2.662   6.878  21.507  0.00  0.00    +0.000 HD
ENDBRANCH  13  28
ENDBRANCH  10  12
BRANCH   1  31
ATOM     30  O   UNL     1       7.648   5.447  14.134  0.00  0.00    +0.000 OA
ATOM     31  C   UNL     1       6.775   4.605  14.349  0.00  0.00    +0.000 C 
BRANCH  31  32
ATOM     32  C   UNL     1       6.302   3.799  13.200  0.00  0.00    +0.000 A 
ATOM     33  C   UNL     1       7.133   2.986  12.418  0.00  0.00    +0.000 A 
ATOM     34  C   UNL     1       6.591   2.267  11.349  0.00  0.00    +0.000 A 
ATOM     35  C   UNL     1       5.235   2.383  11.043  0.00  0.00    +0.000 A 
ATOM     36  C   UNL     1       4.418   3.231  11.787  0.00  0.00    +0.000 A 
ATOM     37  C   UNL     1       4.952   3.942  12.856  0.00  0.00    +0.000 A 
ENDBRANCH  31  32
ENDBRANCH   1  31
TORSDOF 4
ENDMDL
MODEL 2
REMARK VINA RESULT:      -9.2      1.135      2.412
REMARK  Name = 
REMARK  4 active torsions:
REMARK  status: ('A' for Active; 'I' for Inactive)
REMARK    1  A    between atoms: C_2  and  C_3
REMARK    2  A    between atoms: C_2  and  C_9
REMARK    3  A    between atoms: C_18  and  C_19
REMARK    4  A    between atoms: C_20  and  O_21
REMARK                            x       y       z     vdW  Elec       q    Type
REMARK                         _______ _______ _______ _____ _____    ______ ____
ROOT
ATOM      1  C   UNL     1       6.051   4.734  16.650  0.00  0.00    +0.000 A 
ATOM      2  C   UNL     1       6.579   4.464  17.910  0.00  0.00    +0.000 A 
ATOM      3  C   UNL     1       5.732   4.582  19.022  0.00  0.00    +0.000 A 
ATOM      4  C   UNL     1       4.391   4.968  18.833  0.00  0.00    +0.000 A 
ATOM      5  C   UNL     1       3.821   4.683  17.578  0.00  0.00    +0.000 A 
ATOM      6  C   UNL     1       4.670   4.681  16.486  0.00  0.00    +0.000 A 
ATOM      7  N   UNL     1       2.453   4.572  17.272  0.00  0.00    +0.000 NA
ATOM      8  C   UNL     1       1.522   4.726  18.150  0.00  0.00    +0.000 C 
ATOM      9  C   UNL     1       1.719   5.127  19.569  0.00  0.00    +0.000 C 
ATOM     10  C   UNL     1       2.626   6.337  19.666  0.00  0.00    +0.000 C 
ATOM     11  N   UNL     1       3.920   6.170  19.488  0.00  0.00    +0.000 NA
ENDROOT
BRANCH  10  12
ATOM     12  C   UNL     1       1.985   7.714  19.792  0.00  0.00    +0.000 A 
ATOM     13  C   UNL     1       2.051   8.657  18.824  0.00  0.00    +0.000 A 
ATOM     14  C   UNL     1       1.350   9.908  18.987  0.00  0.00    +0.000 A 
ATOM     15  C   UNL     1       1.801  11.245  18.502  0.00  0.00    +0.000 A 
ATOM     16  O   UNL     1       2.208  11.504  17.382  0.00  0.00    +0.000 OA
ATOM     17  O   UNL     1       1.777  12.172  19.547  0.00  0.00    +0.000 OA
ATOM     18  C   UNL     1       0.429  12.372  19.877  0.00  0.00    +0.000 A 
ATOM     19  C   UNL     1      -0.031  13.692  19.951  0.00  0.00    +0.000 A 
ATOM     20  C   UNL     1      -1.387  13.920  19.841  0.00  0.00    +0.000 A 
ATOM     21  C   UNL     1      -2.254  12.839  19.647  0.00  0.00    +0.000 A 
ATOM     22  C   UNL     1      -1.788  11.507  19.718  0.00  0.00    +0.000 A 
ATOM     23  C   UNL     1      -0.422  11.259  19.884  0.00  0.00    +0.000 A 
ATOM     24  C   UNL     1       0.281   9.968  19.790  0.00  0.00    +0.000 A 
ATOM     25  O   UNL     1       0.028   8.935  20.715  0.00  0.00    +0.000 OA
ATOM     26  C   UNL     1       1.065   8.042  20.942  0.00  0.00    +0.000 A 
ATOM     27  O   UNL     1       1.182   7.460  22.016  0.00  0.00    +0.000 OA
BRANCH  13  28
ATOM     28  O   UNL     1       2.626   8.493  17.586  0.00  0.00    +0.000 OA
ATOM     29  H   UNL     1       2.522   7.568  17.288  0.00  0.00    +0.000 HD
ENDBRANCH  13  28
ENDBRANCH  10  12
BRANCH   1  31
ATOM     30  O   UNL     1       7.721   5.981  15.600  0.00  0.00    +0.000 OA
ATOM     31  C   UNL     1       6.822   5.152  15.456  0.00  0.00    +0.000 C 
BRANCH  31  32
ATOM     32  C   UNL     1       6.647   4.557  14.111  0.00  0.00    +0.000 A 
ATOM     33  C   UNL     1       5.679   3.593  13.800  0.00  0.00    +0.000 A 
ATOM     34  C   UNL     1       5.598   3.088  12.499  0.00  0.00    +0.000 A 
ATOM     35  C   UNL     1       6.497   3.518  11.524  0.00  0.00    +0.000 A 
ATOM     36  C   UNL     1       7.494   4.437  11.845  0.00  0.00    +0.000 A 
ATOM     37  C   UNL     1       7.572   4.948  13.135  0.00  0.00    +0.000 A 
ENDBRANCH  31  32
ENDBRANCH   1  31
TORSDOF 4
ENDMDL
MODEL 3
REMARK VINA RESULT:      -9.2      4.390      6.810
REMARK  Name = 
REMARK  4 active torsions:
REMARK  status: ('A' for Active; 'I' for Inactive)
REMARK    1  A    between atoms: C_2  and  C_3
REMARK    2  A    between atoms: C_2  and  C_9
REMARK    3  A    between atoms: C_18  and  C_19
REMARK    4  A    between atoms: C_20  and  O_21
REMARK                            x       y       z     vdW  Elec       q    Type
REMARK                         _______ _______ _______ _____ _____    ______ ____
ROOT
ATOM      1  C   UNL     1       2.268   6.433  18.711  0.00  0.00    +0.000 A 
ATOM      2  C   UNL     1       3.012   7.153  17.778  0.00  0.00    +0.000 A 
ATOM      3  C   UNL     1       2.886   8.549  17.767  0.00  0.00    +0.000 A 
ATOM      4  C   UNL     1       2.020   9.174  18.685  0.00  0.00    +0.000 A 
ATOM      5  C   UNL     1       1.764   8.484  19.885  0.00  0.00    +0.000 A 
ATOM      6  C   UNL     1       1.791   7.101  19.835  0.00  0.00    +0.000 A 
ATOM      7  N   UNL     1       1.309   9.028  21.099  0.00  0.00    +0.000 NA
ATOM      8  C   UNL     1       1.062  10.284  21.256  0.00  0.00    +0.000 C 
ATOM      9  C   UNL     1       1.123  11.325  20.195  0.00  0.00    +0.000 C 
ATOM     10  C   UNL     1       0.373  10.877  18.956  0.00  0.00    +0.000 C 
ATOM     11  N   UNL     1       0.933   9.980  18.171  0.00  0.00    +0.000 NA
ENDROOT
BRANCH  10  12
ATOM     12  C   UNL     1      -1.064  11.351  18.770  0.00  0.00    +0.000 A 
ATOM     13  C   UNL     1      -1.977  10.683  18.028  0.00  0.00    +0.000 A 
ATOM     14  C   UNL     1      -3.339  11.156  17.965  0.00  0.00    +0.000 A 
ATOM     15  C   UNL     1      -4.249  11.077  16.786  0.00  0.00    +0.000 A 
ATOM     16  O   UNL     1      -4.456  10.090  16.101  0.00  0.00    +0.000 OA
ATOM     17  O   UNL     1      -4.789  12.336  16.505  0.00  0.00    +0.000 OA
ATOM     18  C   UNL     1      -5.645  12.654  17.570  0.00  0.00    +0.000 A 
ATOM     19  C   UNL     1      -6.943  13.069  17.254  0.00  0.00    +0.000 A 
ATOM     20  C   UNL     1      -7.916  12.973  18.227  0.00  0.00    +0.000 A 
ATOM     21  C   UNL     1      -7.585  12.454  19.484  0.00  0.00    +0.000 A 
ATOM     22  C   UNL     1      -6.243  12.173  19.828  0.00  0.00    +0.000 A 
ATOM     23  C   UNL     1      -5.237  12.319  18.868  0.00  0.00    +0.000 A 
ATOM     24  C   UNL     1      -3.828  11.901  18.964  0.00  0.00    +0.000 A 
ATOM     25  O   UNL     1      -2.957  12.495  19.899  0.00  0.00    +0.000 OA
ATOM     26  C   UNL     1      -1.610  12.508  19.567  0.00  0.00    +0.000 A 
ATOM     27  O   UNL     1      -0.859  13.384  19.986  0.00  0.00    +0.000 OA
BRANCH  13  28
ATOM     28  O   UNL     1      -1.774   9.473  17.409  0.00  0.00    +0.000 OA
ATOM     29  H   UNL     1      -2.625   9.111  17.092  0.00  0.00    +0.000 HD
ENDBRANCH  13  28
ENDBRANCH  10  12
BRANCH   1  31
ATOM     30  O   UNL     1       1.395   4.627  17.519  0.00  0.00    +0.000 OA
ATOM     31  C   UNL     1       1.863   5.014  18.591  0.00  0.00    +0.000 C 
BRANCH  31  32
ATOM     32  C   UNL     1       2.082   4.001  19.649  0.00  0.00    +0.000 A 
ATOM     33  C   UNL     1       1.113   3.628  20.590  0.00  0.00    +0.000 A 
ATOM     34  C   UNL     1       1.420   2.664  21.554  0.00  0.00    +0.000 A 
ATOM     35  C   UNL     1       2.695   2.099  21.600  0.00  0.00    +0.000 A 
ATOM     36  C   UNL     1       3.676   2.508  20.699  0.00  0.00    +0.000 A 
ATOM     37  C   UNL     1       3.372   3.460  19.732  0.00  0.00    +0.000 A 
ENDBRANCH  31  32
ENDBRANCH   1  31
TORSDOF 4
ENDMDL
MODEL 4
REMARK VINA RESULT:      -9.2      2.658      9.539
REMARK  Name = 
REMARK  4 active torsions:
REMARK  status: ('A' for Active; 'I' for Inactive)
REMARK    1  A    between atoms: C_2  and  C_3
REMARK    2  A    between atoms: C_2  and  C_9
REMARK    3  A    between atoms: C_18  and  C_19
REMARK    4  A    between atoms: C_20  and  O_21
REMARK                            x       y       z     vdW  Elec       q    Type
REMARK                         _______ _______ _______ _____ _____    ______ ____
ROOT
ATOM      1  C   UNL     1      -0.270  13.324  19.977  0.00  0.00    +0.000 A 
ATOM      2  C   UNL     1      -1.388  12.736  19.390  0.00  0.00    +0.000 A 
ATOM      3  C   UNL     1      -1.483  11.337  19.401  0.00  0.00    +0.000 A 
ATOM      4  C   UNL     1      -0.456  10.579  19.995  0.00  0.00    +0.000 A 
ATOM      5  C   UNL     1       0.299  11.211  21.000  0.00  0.00    +0.000 A 
ATOM      6  C   UNL     1       0.462  12.581  20.898  0.00  0.00    +0.000 A 
ATOM      7  N   UNL     1       1.059  10.592  22.008  0.00  0.00    +0.000 NA
ATOM      8  C   UNL     1       1.155   9.313  22.129  0.00  0.00    +0.000 C 
ATOM      9  C   UNL     1       0.576   8.303  21.204  0.00  0.00    +0.000 C 
ATOM     10  C   UNL     1       0.910   8.638  19.763  0.00  0.00    +0.000 C 
ATOM     11  N   UNL     1       0.252   9.617  19.177  0.00  0.00    +0.000 NA
ENDROOT
BRANCH  10  12
ATOM     12  C   UNL     1       2.105   7.948  19.117  0.00  0.00    +0.000 A 
ATOM     13  C   UNL     1       2.518   6.704  19.454  0.00  0.00    +0.000 A 
ATOM     14  C   UNL     1       3.611   6.090  18.741  0.00  0.00    +0.000 A 
ATOM     15  C   UNL     1       4.638   5.171  19.315  0.00  0.00    +0.000 A 
ATOM     16  O   UNL     1       4.420   4.200  20.019  0.00  0.00    +0.000 OA
ATOM     17  O   UNL     1       5.922   5.625  19.004  0.00  0.00    +0.000 OA
ATOM     18  C   UNL     1       6.077   5.478  17.617  0.00  0.00    +0.000 A 
ATOM     19  C   UNL     1       7.222   4.816  17.161  0.00  0.00    +0.000 A 
ATOM     20  C   UNL     1       7.205   4.279  15.890  0.00  0.00    +0.000 A 
ATOM     21  C   UNL     1       6.051   4.399  15.107  0.00  0.00    +0.000 A 
ATOM     22  C   UNL     1       4.960   5.191  15.530  0.00  0.00    +0.000 A 
ATOM     23  C   UNL     1       4.986   5.787  16.794  0.00  0.00    +0.000 A 
ATOM     24  C   UNL     1       3.888   6.479  17.491  0.00  0.00    +0.000 A 
ATOM     25  O   UNL     1       3.352   7.681  16.986  0.00  0.00    +0.000 OA
ATOM     26  C   UNL     1       2.792   8.546  17.915  0.00  0.00    +0.000 A 
ATOM     27  O   UNL     1       2.769   9.758  17.725  0.00  0.00    +0.000 OA
BRANCH  13  28
ATOM     28  O   UNL     1       1.894   5.871  20.352  0.00  0.00    +0.000 OA
ATOM     29  H   UNL     1       1.950   4.945  20.044  0.00  0.00    +0.000 HD
ENDBRANCH  13  28
ENDBRANCH  10  12
BRANCH   1  31
ATOM     30  O   UNL     1      -0.310  15.655  20.099  0.00  0.00    +0.000 OA
ATOM     31  C   UNL     1       0.275  14.664  19.659  0.00  0.00    +0.000 C 
BRANCH  31  32
ATOM     32  C   UNL     1       1.543  14.887  18.927  0.00  0.00    +0.000 A 
ATOM     33  C   UNL     1       2.514  13.897  18.721  0.00  0.00    +0.000 A 
ATOM     34  C   UNL     1       3.683  14.209  18.022  0.00  0.00    +0.000 A 
ATOM     35  C   UNL     1       3.897  15.507  17.559  0.00  0.00    +0.000 A 
ATOM     36  C   UNL     1       2.958  16.505  17.809  0.00  0.00    +0.000 A 
ATOM     37  C   UNL     1       1.789  16.197  18.497  0.00  0.00    +0.000 A 
ENDBRANCH  31  32
ENDBRANCH   1  31
TORSDOF 4
ENDMDL
MODEL 5
REMARK VINA RESULT:      -9.0      2.676     10.309
REMARK  Name = 
REMARK  4 active torsions:
REMARK  status: ('A' for Active; 'I' for Inactive)
REMARK    1  A    between atoms: C_2  and  C_3
REMARK    2  A    between atoms: C_2  and  C_9
REMARK    3  A    between atoms: C_18  and  C_19
REMARK    4  A    between atoms: C_20  and  O_21
REMARK                            x       y       z     vdW  Elec       q    Type
REMARK                         _______ _______ _______ _____ _____    ______ ____
ROOT
ATOM      1  C   UNL     1      -0.190  13.403  19.975  0.00  0.00    +0.000 A 
ATOM      2  C   UNL     1      -1.313  12.842  19.371  0.00  0.00    +0.000 A 
ATOM      3  C   UNL     1      -1.428  11.444  19.358  0.00  0.00    +0.000 A 
ATOM      4  C   UNL     1      -0.416  10.661  19.946  0.00  0.00    +0.000 A 
ATOM      5  C   UNL     1       0.340  11.265  20.968  0.00  0.00    +0.000 A 
ATOM      6  C   UNL     1       0.524  12.634  20.890  0.00  0.00    +0.000 A 
ATOM      7  N   UNL     1       1.084  10.619  21.971  0.00  0.00    +0.000 NA
ATOM      8  C   UNL     1       1.161   9.336  22.071  0.00  0.00    +0.000 C 
ATOM      9  C   UNL     1       0.574   8.350  21.125  0.00  0.00    +0.000 C 
ATOM     10  C   UNL     1       0.923   8.704  19.692  0.00  0.00    +0.000 C 
ATOM     11  N   UNL     1       0.284   9.703  19.118  0.00  0.00    +0.000 NA
ENDROOT
BRANCH  10  12
ATOM     12  C   UNL     1       2.113   8.008  19.044  0.00  0.00    +0.000 A 
ATOM     13  C   UNL     1       2.521   6.762  19.380  0.00  0.00    +0.000 A 
ATOM     14  C   UNL     1       3.609   6.142  18.665  0.00  0.00    +0.000 A 
ATOM     15  C   UNL     1       4.631   5.217  19.236  0.00  0.00    +0.000 A 
ATOM     16  O   UNL     1       4.411   4.247  19.941  0.00  0.00    +0.000 OA
ATOM     17  O   UNL     1       5.918   5.665  18.922  0.00  0.00    +0.000 OA
ATOM     18  C   UNL     1       6.069   5.516  17.535  0.00  0.00    +0.000 A 
ATOM     19  C   UNL     1       7.209   4.847  17.076  0.00  0.00    +0.000 A 
ATOM     20  C   UNL     1       7.186   4.311  15.806  0.00  0.00    +0.000 A 
ATOM     21  C   UNL     1       6.031   4.436  15.026  0.00  0.00    +0.000 A 
ATOM     22  C   UNL     1       4.945   5.235  15.451  0.00  0.00    +0.000 A 
ATOM     23  C   UNL     1       4.978   5.831  16.714  0.00  0.00    +0.000 A 
ATOM     24  C   UNL     1       3.884   6.529  17.413  0.00  0.00    +0.000 A 
ATOM     25  O   UNL     1       3.354   7.734  16.910  0.00  0.00    +0.000 OA
ATOM     26  C   UNL     1       2.801   8.602  17.840  0.00  0.00    +0.000 A 
ATOM     27  O   UNL     1       2.784   9.814  17.650  0.00  0.00    +0.000 OA
BRANCH  13  28
ATOM     28  O   UNL     1       1.894   5.932  20.279  0.00  0.00    +0.000 OA
ATOM     29  H   UNL     1       2.465   5.165  20.481  0.00  0.00    +0.000 HD
ENDBRANCH  13  28
ENDBRANCH  10  12
BRANCH   1  31
ATOM     30  O   UNL     1       1.600  14.853  19.601  0.00  0.00    +0.000 OA
ATOM     31  C   UNL     1       0.376  14.740  19.684  0.00  0.00    +0.000 C 
BRANCH  31  32
ATOM     32  C   UNL     1      -0.444  15.936  19.381  0.00  0.00    +0.000 A 
ATOM     33  C   UNL     1      -1.557  16.333  20.133  0.00  0.00    +0.000 A 
ATOM     34  C   UNL     1      -2.271  17.476  19.761  0.00  0.00    +0.000 A 
ATOM     35  C   UNL     1      -1.896  18.199  18.629  0.00  0.00    +0.000 A 
ATOM     36  C   UNL     1      -0.822  17.775  17.850  0.00  0.00    +0.000 A 
ATOM     37  C   UNL     1      -0.104  16.644  18.221  0.00  0.00    +0.000 A 
ENDBRANCH  31  32
ENDBRANCH   1  31
TORSDOF 4
ENDMDL
MODEL 6
REMARK VINA RESULT:      -9.0      6.117     10.495
REMARK  Name = 
REMARK  4 active torsions:
REMARK  status: ('A' for Active; 'I' for Inactive)
REMARK    1  A    between atoms: C_2  and  C_3
REMARK    2  A    between atoms: C_2  and  C_9
REMARK    3  A    between atoms: C_18  and  C_19
REMARK    4  A    between atoms: C_20  and  O_21
REMARK                            x       y       z     vdW  Elec       q    Type
REMARK                         _______ _______ _______ _____ _____    ______ ____
ROOT
ATOM      1  C   UNL     1       0.109  12.679  19.682  0.00  0.00    +0.000 A 
ATOM      2  C   UNL     1       0.159  12.971  21.044  0.00  0.00    +0.000 A 
ATOM      3  C   UNL     1       0.991  14.017  21.467  0.00  0.00    +0.000 A 
ATOM      4  C   UNL     1       1.746  14.729  20.515  0.00  0.00    +0.000 A 
ATOM      5  C   UNL     1       1.244  14.757  19.200  0.00  0.00    +0.000 A 
ATOM      6  C   UNL     1       0.515  13.658  18.781  0.00  0.00    +0.000 A 
ATOM      7  N   UNL     1       1.541  15.695  18.196  0.00  0.00    +0.000 NA
ATOM      8  C   UNL     1       2.348  16.684  18.376  0.00  0.00    +0.000 C 
ATOM      9  C   UNL     1       3.149  16.944  19.602  0.00  0.00    +0.000 C 
ATOM     10  C   UNL     1       3.877  15.691  20.047  0.00  0.00    +0.000 C 
ATOM     11  N   UNL     1       3.187  14.742  20.645  0.00  0.00    +0.000 NA
ENDROOT
BRANCH  10  12
ATOM     12  C   UNL     1       5.331  15.510  19.627  0.00  0.00    +0.000 A 
ATOM     13  C   UNL     1       5.717  14.712  18.605  0.00  0.00    +0.000 A 
ATOM     14  C   UNL     1       7.106  14.656  18.219  0.00  0.00    +0.000 A 
ATOM     15  C   UNL     1       7.835  13.459  17.707  0.00  0.00    +0.000 A 
ATOM     16  O   UNL     1       7.457  12.710  16.823  0.00  0.00    +0.000 OA
ATOM     17  O   UNL     1       9.002  13.250  18.447  0.00  0.00    +0.000 OA
ATOM     18  C   UNL     1       9.863  14.318  18.154  0.00  0.00    +0.000 A 
ATOM     19  C   UNL     1      11.173  14.008  17.773  0.00  0.00    +0.000 A 
ATOM     20  C   UNL     1      11.895  14.956  17.078  0.00  0.00    +0.000 A 
ATOM     21  C   UNL     1      11.298  16.183  16.765  0.00  0.00    +0.000 A 
ATOM     22  C   UNL     1      10.029  16.530  17.279  0.00  0.00    +0.000 A 
ATOM     23  C   UNL     1       9.308  15.599  18.032  0.00  0.00    +0.000 A 
ATOM     24  C   UNL     1       7.910  15.692  18.488  0.00  0.00    +0.000 A 
ATOM     25  O   UNL     1       7.513  16.678  19.413  0.00  0.00    +0.000 OA
ATOM     26  C   UNL     1       6.422  16.370  20.214  0.00  0.00    +0.000 A 
ATOM     27  O   UNL     1       6.296  16.856  21.333  0.00  0.00    +0.000 OA
BRANCH  13  28
ATOM     28  O   UNL     1       4.873  14.021  17.768  0.00  0.00    +0.000 OA
ATOM     29  H   UNL     1       3.945  14.162  18.037  0.00  0.00    +0.000 HD
ENDBRANCH  13  28
ENDBRANCH  10  12
BRANCH   1  31
ATOM     30  O   UNL     1      -1.333  11.306  18.465  0.00  0.00    +0.000 OA
ATOM     31  C   UNL     1      -0.271  11.378  19.086  0.00  0.00    +0.000 C 
BRANCH  31  32
ATOM     32  C   UNL     1       0.597  10.178  19.101  0.00  0.00    +0.000 A 
ATOM     33  C   UNL     1       1.320   9.720  17.991  0.00  0.00    +0.000 A 
ATOM     34  C   UNL     1       2.108   8.572  18.105  0.00  0.00    +0.000 A 
ATOM     35  C   UNL     1       2.150   7.867  19.309  0.00  0.00    +0.000 A 
ATOM     36  C   UNL     1       1.390   8.291  20.396  0.00  0.00    +0.000 A 
ATOM     37  C   UNL     1       0.611   9.438  20.290  0.00  0.00    +0.000 A 
ENDBRANCH  31  32
ENDBRANCH   1  31
TORSDOF 4
ENDMDL
MODEL 7
REMARK VINA RESULT:      -8.9      4.036      6.230
REMARK  Name = 
REMARK  4 active torsions:
REMARK  status: ('A' for Active; 'I' for Inactive)
REMARK    1  A    between atoms: C_2  and  C_3
REMARK    2  A    between atoms: C_2  and  C_9
REMARK    3  A    between atoms: C_18  and  C_19
REMARK    4  A    between atoms: C_20  and  O_21
REMARK                            x       y       z     vdW  Elec       q    Type
REMARK                         _______ _______ _______ _____ _____    ______ ____
ROOT
ATOM      1  C   UNL     1       2.422   6.289  18.392  0.00  0.00    +0.000 A 
ATOM      2  C   UNL     1       3.205   7.110  17.584  0.00  0.00    +0.000 A 
ATOM      3  C   UNL     1       3.061   8.499  17.715  0.00  0.00    +0.000 A 
ATOM      4  C   UNL     1       2.138   9.014  18.645  0.00  0.00    +0.000 A 
ATOM      5  C   UNL     1       1.826   8.197  19.749  0.00  0.00    +0.000 A 
ATOM      6  C   UNL     1       1.875   6.829  19.552  0.00  0.00    +0.000 A 
ATOM      7  N   UNL     1       1.299   8.605  20.986  0.00  0.00    +0.000 NA
ATOM      8  C   UNL     1       1.027   9.834  21.262  0.00  0.00    +0.000 C 
ATOM      9  C   UNL     1       1.132  10.984  20.324  0.00  0.00    +0.000 C 
ATOM     10  C   UNL     1       0.456  10.666  19.005  0.00  0.00    +0.000 C 
ATOM     11  N   UNL     1       1.070   9.863  18.161  0.00  0.00    +0.000 NA
ENDROOT
BRANCH  10  12
ATOM     12  C   UNL     1      -0.975  11.146  18.790  0.00  0.00    +0.000 A 
ATOM     13  C   UNL     1      -1.860  10.513  17.987  0.00  0.00    +0.000 A 
ATOM     14  C   UNL     1      -3.220  10.986  17.898  0.00  0.00    +0.000 A 
ATOM     15  C   UNL     1      -4.089  10.960  16.685  0.00  0.00    +0.000 A 
ATOM     16  O   UNL     1      -4.268  10.006  15.949  0.00  0.00    +0.000 OA
ATOM     17  O   UNL     1      -4.622  12.230  16.445  0.00  0.00    +0.000 OA
ATOM     18  C   UNL     1      -5.515  12.497  17.492  0.00  0.00    +0.000 A 
ATOM     19  C   UNL     1      -6.803  12.925  17.152  0.00  0.00    +0.000 A 
ATOM     20  C   UNL     1      -7.809  12.782  18.084  0.00  0.00    +0.000 A 
ATOM     21  C   UNL     1      -7.520  12.205  19.326  0.00  0.00    +0.000 A 
ATOM     22  C   UNL     1      -6.190  11.911  19.703  0.00  0.00    +0.000 A 
ATOM     23  C   UNL     1      -5.152  12.103  18.787  0.00  0.00    +0.000 A 
ATOM     24  C   UNL     1      -3.746  11.683  18.913  0.00  0.00    +0.000 A 
ATOM     25  O   UNL     1      -2.910  12.233  19.905  0.00  0.00    +0.000 OA
ATOM     26  C   UNL     1      -1.552  12.264  19.621  0.00  0.00    +0.000 A 
ATOM     27  O   UNL     1      -0.819  13.121  20.106  0.00  0.00    +0.000 OA
BRANCH  13  28
ATOM     28  O   UNL     1      -1.632   9.332  17.320  0.00  0.00    +0.000 OA
ATOM     29  H   UNL     1      -1.147   9.505  16.489  0.00  0.00    +0.000 HD
ENDBRANCH  13  28
ENDBRANCH  10  12
BRANCH   1  31
ATOM     30  O   UNL     1       1.078   4.683  17.361  0.00  0.00    +0.000 OA
ATOM     31  C   UNL     1       2.043   4.887  18.098  0.00  0.00    +0.000 C 
BRANCH  31  32
ATOM     32  C   UNL     1       2.818   3.710  18.555  0.00  0.00    +0.000 A 
ATOM     33  C   UNL     1       3.720   3.733  19.627  0.00  0.00    +0.000 A 
ATOM     34  C   UNL     1       4.409   2.569  19.977  0.00  0.00    +0.000 A 
ATOM     35  C   UNL     1       4.224   1.398  19.242  0.00  0.00    +0.000 A 
ATOM     36  C   UNL     1       3.368   1.387  18.142  0.00  0.00    +0.000 A 
ATOM     37  C   UNL     1       2.674   2.542  17.797  0.00  0.00    +0.000 A 
ENDBRANCH  31  32
ENDBRANCH   1  31
TORSDOF 4
ENDMDL
MODEL 8
REMARK VINA RESULT:      -8.8      7.301     11.013
REMARK  Name = 
REMARK  4 active torsions:
REMARK  status: ('A' for Active; 'I' for Inactive)
REMARK    1  A    between atoms: C_2  and  C_3
REMARK    2  A    between atoms: C_2  and  C_9
REMARK    3  A    between atoms: C_18  and  C_19
REMARK    4  A    between atoms: C_20  and  O_21
REMARK                            x       y       z     vdW  Elec       q    Type
REMARK                         _______ _______ _______ _____ _____    ______ ____
ROOT
ATOM      1  C   UNL     1       0.144  12.821  19.891  0.00  0.00    +0.000 A 
ATOM      2  C   UNL     1       0.205  13.184  21.234  0.00  0.00    +0.000 A 
ATOM      3  C   UNL     1       1.046  14.247  21.595  0.00  0.00    +0.000 A 
ATOM      4  C   UNL     1       1.796  14.904  20.602  0.00  0.00    +0.000 A 
ATOM      5  C   UNL     1       1.284  14.866  19.291  0.00  0.00    +0.000 A 
ATOM      6  C   UNL     1       0.548  13.750  18.936  0.00  0.00    +0.000 A 
ATOM      7  N   UNL     1       1.578  15.748  18.237  0.00  0.00    +0.000 NA
ATOM      8  C   UNL     1       2.391  16.741  18.359  0.00  0.00    +0.000 C 
ATOM      9  C   UNL     1       3.203  17.061  19.563  0.00  0.00    +0.000 C 
ATOM     10  C   UNL     1       3.928  15.829  20.068  0.00  0.00    +0.000 C 
ATOM     11  N   UNL     1       3.239  14.917  20.721  0.00  0.00    +0.000 NA
ENDROOT
BRANCH  10  12
ATOM     12  C   UNL     1       5.378  15.620  19.648  0.00  0.00    +0.000 A 
ATOM     13  C   UNL     1       5.748  14.810  18.630  0.00  0.00    +0.000 A 
ATOM     14  C   UNL     1       7.136  14.726  18.243  0.00  0.00    +0.000 A 
ATOM     15  C   UNL     1       7.842  13.513  17.737  0.00  0.00    +0.000 A 
ATOM     16  O   UNL     1       7.449  12.765  16.858  0.00  0.00    +0.000 OA
ATOM     17  O   UNL     1       9.006  13.286  18.478  0.00  0.00    +0.000 OA
ATOM     18  C   UNL     1       9.886  14.337  18.177  0.00  0.00    +0.000 A 
ATOM     19  C   UNL     1      11.189  14.001  17.796  0.00  0.00    +0.000 A 
ATOM     20  C   UNL     1      11.928  14.931  17.095  0.00  0.00    +0.000 A 
ATOM     21  C   UNL     1      11.353  16.167  16.776  0.00  0.00    +0.000 A 
ATOM     22  C   UNL     1      10.091  16.541  17.290  0.00  0.00    +0.000 A 
ATOM     23  C   UNL     1       9.355  15.627  18.049  0.00  0.00    +0.000 A 
ATOM     24  C   UNL     1       7.959  15.748  18.505  0.00  0.00    +0.000 A 
ATOM     25  O   UNL     1       7.581  16.747  19.425  0.00  0.00    +0.000 OA
ATOM     26  C   UNL     1       6.485  16.464  20.229  0.00  0.00    +0.000 A 
ATOM     27  O   UNL     1       6.370  16.958  21.346  0.00  0.00    +0.000 OA
BRANCH  13  28
ATOM     28  O   UNL     1       4.891  14.129  17.798  0.00  0.00    +0.000 OA
ATOM     29  H   UNL     1       5.341  13.348  17.420  0.00  0.00    +0.000 HD
ENDBRANCH  13  28
ENDBRANCH  10  12
BRANCH   1  31
ATOM     30  O   UNL     1       0.475  10.527  19.620  0.00  0.00    +0.000 OA
ATOM     31  C   UNL     1      -0.247  11.492  19.367  0.00  0.00    +0.000 C 
BRANCH  31  32
ATOM     32  C   UNL     1      -1.510  11.231  18.640  0.00  0.00    +0.000 A 
ATOM     33  C   UNL     1      -2.729  11.856  18.937  0.00  0.00    +0.000 A 
ATOM     34  C   UNL     1      -3.869  11.536  18.195  0.00  0.00    +0.000 A 
ATOM     35  C   UNL     1      -3.802  10.576  17.186  0.00  0.00    +0.000 A 
ATOM     36  C   UNL     1      -2.604   9.915  16.925  0.00  0.00    +0.000 A 
ATOM     37  C   UNL     1      -1.465  10.237  17.655  0.00  0.00    +0.000 A 
ENDBRANCH  31  32
ENDBRANCH   1  31
TORSDOF 4
ENDMDL
MODEL 9
REMARK VINA RESULT:      -8.6      7.483     10.895
REMARK  Name = 
REMARK  4 active torsions:
REMARK  status: ('A' for Active; 'I' for Inactive)
REMARK    1  A    between atoms: C_2  and  C_3
REMARK    2  A    between atoms: C_2  and  C_9
REMARK    3  A    between atoms: C_18  and  C_19
REMARK    4  A    between atoms: C_20  and  O_21
REMARK                            x       y       z     vdW  Elec       q    Type
REMARK                         _______ _______ _______ _____ _____    ______ ____
ROOT
ATOM      1  C   UNL     1      -0.305  12.545  19.407  0.00  0.00    +0.000 A 
ATOM      2  C   UNL     1      -0.126  12.465  20.787  0.00  0.00    +0.000 A 
ATOM      3  C   UNL     1       0.789  13.341  21.387  0.00  0.00    +0.000 A 
ATOM      4  C   UNL     1       1.494  14.261  20.587  0.00  0.00    +0.000 A 
ATOM      5  C   UNL     1       0.883  14.648  19.379  0.00  0.00    +0.000 A 
ATOM      6  C   UNL     1       0.070  13.717  18.758  0.00  0.00    +0.000 A 
ATOM      7  N   UNL     1       1.139  15.811  18.632  0.00  0.00    +0.000 NA
ATOM      8  C   UNL     1       2.006  16.697  18.986  0.00  0.00    +0.000 C 
ATOM      9  C   UNL     1       2.920  16.604  20.156  0.00  0.00    +0.000 C 
ATOM     10  C   UNL     1       3.621  15.261  20.187  0.00  0.00    +0.000 C 
ATOM     11  N   UNL     1       2.940  14.204  20.580  0.00  0.00    +0.000 NA
ENDROOT
BRANCH  10  12
ATOM     12  C   UNL     1       5.024  15.163  19.599  0.00  0.00    +0.000 A 
ATOM     13  C   UNL     1       6.149  15.187  20.349  0.00  0.00    +0.000 A 
ATOM     14  C   UNL     1       7.437  15.010  19.723  0.00  0.00    +0.000 A 
ATOM     15  C   UNL     1       8.716  15.664  20.130  0.00  0.00    +0.000 A 
ATOM     16  O   UNL     1       9.164  15.726  21.262  0.00  0.00    +0.000 OA
ATOM     17  O   UNL     1       9.313  16.286  19.029  0.00  0.00    +0.000 OA
ATOM     18  C   UNL     1       9.719  15.264  18.159  0.00  0.00    +0.000 A 
ATOM     19  C   UNL     1      11.040  15.292  17.700  0.00  0.00    +0.000 A 
ATOM     20  C   UNL     1      11.592  14.123  17.219  0.00  0.00    +0.000 A 
ATOM     21  C   UNL     1      10.828  12.951  17.218  0.00  0.00    +0.000 A 
ATOM     22  C   UNL     1       9.455  12.973  17.552  0.00  0.00    +0.000 A 
ATOM     23  C   UNL     1       8.868  14.164  17.989  0.00  0.00    +0.000 A 
ATOM     24  C   UNL     1       7.523  14.353  18.561  0.00  0.00    +0.000 A 
ATOM     25  O   UNL     1       6.368  14.121  17.788  0.00  0.00    +0.000 OA
ATOM     26  C   UNL     1       5.234  14.839  18.141  0.00  0.00    +0.000 A 
ATOM     27  O   UNL     1       4.378  15.126  17.310  0.00  0.00    +0.000 OA
BRANCH  13  28
ATOM     28  O   UNL     1       6.193  15.227  21.723  0.00  0.00    +0.000 OA
ATOM     29  H   UNL     1       6.942  15.782  22.018  0.00  0.00    +0.000 HD
ENDBRANCH  13  28
ENDBRANCH  10  12
BRANCH   1  31
ATOM     30  O   UNL     1      -0.059  10.494  18.321  0.00  0.00    +0.000 OA
ATOM     31  C   UNL     1      -0.797  11.457  18.531  0.00  0.00    +0.000 C 
BRANCH  31  32
ATOM     32  C   UNL     1      -2.167  11.406  17.969  0.00  0.00    +0.000 A 
ATOM     33  C   UNL     1      -2.458  11.057  16.644  0.00  0.00    +0.000 A 
ATOM     34  C   UNL     1      -3.786  11.043  16.208  0.00  0.00    +0.000 A 
ATOM     35  C   UNL     1      -4.813  11.407  17.079  0.00  0.00    +0.000 A 
ATOM     36  C   UNL     1      -4.520  11.806  18.381  0.00  0.00    +0.000 A 
ATOM     37  C   UNL     1      -3.201  11.812  18.821  0.00  0.00    +0.000 A 
ENDBRANCH  31  32
ENDBRANCH   1  31
TORSDOF 4
ENDMDL
