MODEL 1
REMARK VINA RESULT:      -7.8      0.000      0.000
REMARK  Name = 
REMARK  12 active torsions:
REMARK  status: ('A' for Active; 'I' for Inactive)
REMARK    1  A    between atoms: C_1  and  N_2
REMARK    2  A    between atoms: N_2  and  C_3
REMARK    3  A    between atoms: N_2  and  C_12
REMARK    4  A    between atoms: C_3  and  C_4
REMARK    5  A    between atoms: C_4  and  C_5
REMARK    6  A    between atoms: C_5  and  C_6
REMARK    7  A    between atoms: N_15  and  C_16
REMARK    8  A    between atoms: C_16  and  C_17
REMARK    9  A    between atoms: C_17  and  O_18
REMARK   10  A    between atoms: O_18  and  C_19
REMARK   11  A    between atoms: C_19  and  C_20
REMARK   12  A    between atoms: C_19  and  C_26
REMARK                            x       y       z     vdW  Elec       q    Type
REMARK                         _______ _______ _______ _____ _____    ______ ____
ROOT
ATOM      1  C   UNL     1       2.335   3.218  18.948  0.00  0.00    +0.000 C 
ATOM      2  C   UNL     1       1.590   4.276  18.104  0.00  0.00    +0.000 C 
ATOM      3  C   UNL     1       1.929   5.694  18.557  0.00  0.00    +0.000 C 
ATOM      4  N   UNL     1       1.546   5.932  19.961  0.00  0.00    +0.000 NA
ATOM      5  C   UNL     1       2.130   4.907  20.852  0.00  0.00    +0.000 C 
ATOM      6  C   UNL     1       1.863   3.473  20.394  0.00  0.00    +0.000 C 
ENDROOT
BRANCH   1   8
ATOM      7  C   UNL     1       4.470   2.250  19.658  0.00  0.00    +0.000 C 
ATOM      8  N   UNL     1       3.826   3.225  18.764  0.00  0.00    +0.000 NA
BRANCH   8   9
ATOM      9  C   UNL     1       4.165   2.916  17.356  0.00  0.00    +0.000 C 
BRANCH   9  10
ATOM     10  C   UNL     1       4.595   4.086  16.463  0.00  0.00    +0.000 C 
BRANCH  10  11
ATOM     11  C   UNL     1       6.116   4.014  16.259  0.00  0.00    +0.000 C 
BRANCH  11  12
ATOM     12  C   UNL     1       6.835   5.065  17.058  0.00  0.00    +0.000 A 
ATOM     13  C   UNL     1       7.425   4.739  18.287  0.00  0.00    +0.000 A 
ATOM     14  C   UNL     1       8.043   5.726  19.054  0.00  0.00    +0.000 A 
ATOM     15  C   UNL     1       8.073   7.043  18.598  0.00  0.00    +0.000 A 
ATOM     16  C   UNL     1       7.501   7.372  17.369  0.00  0.00    +0.000 A 
ATOM     17  C   UNL     1       6.879   6.388  16.605  0.00  0.00    +0.000 A 
ENDBRANCH  11  12
ENDBRANCH  10  11
ENDBRANCH   9  10
ENDBRANCH   8   9
ENDBRANCH   1   8
BRANCH   4  18
ATOM     18  C   UNL     1       2.008   7.264  20.413  0.00  0.00    +0.000 C 
BRANCH  18  19
ATOM     19  C   UNL     1       1.899   8.401  19.377  0.00  0.00    +0.000 C 
BRANCH  19  20
ATOM     20  O   UNL     1       0.789   9.281  19.603  0.00  0.00    +0.000 OA
BRANCH  20  21
ATOM     21  C   UNL     1       0.590  10.309  18.613  0.00  0.00    +0.000 C 
BRANCH  21  22
ATOM     22  C   UNL     1      -0.891  10.551  18.341  0.00  0.00    +0.000 A 
ATOM     23  C   UNL     1      -1.567   9.860  17.324  0.00  0.00    +0.000 A 
ATOM     24  C   UNL     1      -2.908  10.139  17.049  0.00  0.00    +0.000 A 
ATOM     25  C   UNL     1      -3.585  11.114  17.780  0.00  0.00    +0.000 A 
ATOM     26  C   UNL     1      -2.927  11.809  18.793  0.00  0.00    +0.000 A 
ATOM     27  C   UNL     1      -1.590  11.524  19.076  0.00  0.00    +0.000 A 
ENDBRANCH  21  22
BRANCH  21  28
ATOM     28  C   UNL     1       1.354  11.577  19.001  0.00  0.00    +0.000 A 
ATOM     29  C   UNL     1       2.048  12.348  18.055  0.00  0.00    +0.000 A 
ATOM     30  C   UNL     1       2.682  13.536  18.427  0.00  0.00    +0.000 A 
ATOM     31  C   UNL     1       2.633  13.972  19.748  0.00  0.00    +0.000 A 
ATOM     32  C   UNL     1       1.950  13.221  20.701  0.00  0.00    +0.000 A 
ATOM     33  C   UNL     1       1.312  12.035  20.331  0.00  0.00    +0.000 A 
ENDBRANCH  21  28
ENDBRANCH  20  21
ENDBRANCH  19  20
ENDBRANCH  18  19
ENDBRANCH   4  18
TORSDOF 11
ENDMDL
MODEL 2
REMARK VINA RESULT:      -7.7      2.884      4.864
REMARK  Name = 
REMARK  12 active torsions:
REMARK  status: ('A' for Active; 'I' for Inactive)
REMARK    1  A    between atoms: C_1  and  N_2
REMARK    2  A    between atoms: N_2  and  C_3
REMARK    3  A    between atoms: N_2  and  C_12
REMARK    4  A    between atoms: C_3  and  C_4
REMARK    5  A    between atoms: C_4  and  C_5
REMARK    6  A    between atoms: C_5  and  C_6
REMARK    7  A    between atoms: N_15  and  C_16
REMARK    8  A    between atoms: C_16  and  C_17
REMARK    9  A    between atoms: C_17  and  O_18
REMARK   10  A    between atoms: O_18  and  C_19
REMARK   11  A    between atoms: C_19  and  C_20
REMARK   12  A    between atoms: C_19  and  C_26
REMARK                            x       y       z     vdW  Elec       q    Type
REMARK                         _______ _______ _______ _____ _____    ______ ____
ROOT
ATOM      1  C   UNL     1       5.468   5.781  17.562  0.00  0.00    +0.000 C 
ATOM      2  C   UNL     1       4.781   6.656  16.490  0.00  0.00    +0.000 C 
ATOM      3  C   UNL     1       3.850   7.688  17.122  0.00  0.00    +0.000 C 
ATOM      4  N   UNL     1       2.770   7.054  17.901  0.00  0.00    +0.000 NA
ATOM      5  C   UNL     1       3.318   6.112  18.900  0.00  0.00    +0.000 C 
ATOM      6  C   UNL     1       4.304   5.102  18.312  0.00  0.00    +0.000 C 
ENDROOT
BRANCH   1   8
ATOM      7  C   UNL     1       7.283   5.599  19.196  0.00  0.00    +0.000 C 
ATOM      8  N   UNL     1       6.430   6.530  18.441  0.00  0.00    +0.000 NA
BRANCH   8   9
ATOM      9  C   UNL     1       7.272   7.430  17.620  0.00  0.00    +0.000 C 
BRANCH   9  10
ATOM     10  C   UNL     1       8.350   8.242  18.348  0.00  0.00    +0.000 C 
BRANCH  10  11
ATOM     11  C   UNL     1       8.311   9.686  17.827  0.00  0.00    +0.000 C 
BRANCH  11  12
ATOM     12  C   UNL     1       9.350  10.546  18.493  0.00  0.00    +0.000 A 
ATOM     13  C   UNL     1      10.381  11.122  17.738  0.00  0.00    +0.000 A 
ATOM     14  C   UNL     1      11.375  11.873  18.364  0.00  0.00    +0.000 A 
ATOM     15  C   UNL     1      11.344  12.051  19.747  0.00  0.00    +0.000 A 
ATOM     16  C   UNL     1      10.313  11.493  20.502  0.00  0.00    +0.000 A 
ATOM     17  C   UNL     1       9.322  10.739  19.878  0.00  0.00    +0.000 A 
ENDBRANCH  11  12
ENDBRANCH  10  11
ENDBRANCH   9  10
ENDBRANCH   8   9
ENDBRANCH   1   8
BRANCH   4  18
ATOM     18  C   UNL     1       1.966   8.075  18.612  0.00  0.00    +0.000 C 
BRANCH  18  19
ATOM     19  C   UNL     1       2.261   9.542  18.240  0.00  0.00    +0.000 C 
BRANCH  19  20
ATOM     20  O   UNL     1       1.154  10.426  18.463  0.00  0.00    +0.000 OA
BRANCH  20  21
ATOM     21  C   UNL     1      -0.047   9.815  18.972  0.00  0.00    +0.000 C 
BRANCH  21  22
ATOM     22  C   UNL     1      -0.212  10.058  20.469  0.00  0.00    +0.000 A 
ATOM     23  C   UNL     1      -0.292   8.990  21.375  0.00  0.00    +0.000 A 
ATOM     24  C   UNL     1      -0.504   9.230  22.735  0.00  0.00    +0.000 A 
ATOM     25  C   UNL     1      -0.647  10.536  23.203  0.00  0.00    +0.000 A 
ATOM     26  C   UNL     1      -0.571  11.606  22.314  0.00  0.00    +0.000 A 
ATOM     27  C   UNL     1      -0.349  11.369  20.957  0.00  0.00    +0.000 A 
ENDBRANCH  21  22
BRANCH  21  28
ATOM     28  C   UNL     1      -1.258  10.251  18.146  0.00  0.00    +0.000 A 
ATOM     29  C   UNL     1      -1.544   9.693  16.890  0.00  0.00    +0.000 A 
ATOM     30  C   UNL     1      -2.693  10.063  16.187  0.00  0.00    +0.000 A 
ATOM     31  C   UNL     1      -3.574  10.996  16.727  0.00  0.00    +0.000 A 
ATOM     32  C   UNL     1      -3.308  11.562  17.971  0.00  0.00    +0.000 A 
ATOM     33  C   UNL     1      -2.162  11.190  18.677  0.00  0.00    +0.000 A 
ENDBRANCH  21  28
ENDBRANCH  20  21
ENDBRANCH  19  20
ENDBRANCH  18  19
ENDBRANCH   4  18
TORSDOF 11
ENDMDL
MODEL 3
REMARK VINA RESULT:      -7.7      2.605      4.048
REMARK  Name = 
REMARK  12 active torsions:
REMARK  status: ('A' for Active; 'I' for Inactive)
REMARK    1  A    between atoms: C_1  and  N_2
REMARK    2  A    between atoms: N_2  and  C_3
REMARK    3  A    between atoms: N_2  and  C_12
REMARK    4  A    between atoms: C_3  and  C_4
REMARK    5  A    between atoms: C_4  and  C_5
REMARK    6  A    between atoms: C_5  and  C_6
REMARK    7  A    between atoms: N_15  and  C_16
REMARK    8  A    between atoms: C_16  and  C_17
REMARK    9  A    between atoms: C_17  and  O_18
REMARK   10  A    between atoms: O_18  and  C_19
REMARK   11  A    between atoms: C_19  and  C_20
REMARK   12  A    between atoms: C_19  and  C_26
REMARK                            x       y       z     vdW  Elec       q    Type
REMARK                         _______ _______ _______ _____ _____    ______ ____
ROOT
ATOM      1  C   UNL     1       5.991   5.540  17.603  0.00  0.00    +0.000 C 
ATOM      2  C   UNL     1       5.119   6.356  16.624  0.00  0.00    +0.000 C 
ATOM      3  C   UNL     1       4.053   7.162  17.362  0.00  0.00    +0.000 C 
ATOM      4  N   UNL     1       3.133   6.295  18.121  0.00  0.00    +0.000 NA
ATOM      5  C   UNL     1       3.877   5.394  19.027  0.00  0.00    +0.000 C 
ATOM      6  C   UNL     1       4.995   4.616  18.332  0.00  0.00    +0.000 C 
ENDROOT
BRANCH   1   8
ATOM      7  C   UNL     1       7.813   5.546  19.241  0.00  0.00    +0.000 C 
ATOM      8  N   UNL     1       6.848   6.381  18.508  0.00  0.00    +0.000 NA
BRANCH   8   9
ATOM      9  C   UNL     1       7.567   7.405  17.718  0.00  0.00    +0.000 C 
BRANCH   9  10
ATOM     10  C   UNL     1       8.491   8.362  18.483  0.00  0.00    +0.000 C 
BRANCH  10  11
ATOM     11  C   UNL     1       8.459   9.733  17.791  0.00  0.00    +0.000 C 
BRANCH  11  12
ATOM     12  C   UNL     1       9.333  10.733  18.496  0.00  0.00    +0.000 A 
ATOM     13  C   UNL     1      10.046  11.690  17.762  0.00  0.00    +0.000 A 
ATOM     14  C   UNL     1      10.899  12.581  18.412  0.00  0.00    +0.000 A 
ATOM     15  C   UNL     1      11.045  12.518  19.797  0.00  0.00    +0.000 A 
ATOM     16  C   UNL     1      10.327  11.578  20.535  0.00  0.00    +0.000 A 
ATOM     17  C   UNL     1       9.478  10.684  19.887  0.00  0.00    +0.000 A 
ENDBRANCH  11  12
ENDBRANCH  10  11
ENDBRANCH   9  10
ENDBRANCH   8   9
ENDBRANCH   1   8
BRANCH   4  18
ATOM     18  C   UNL     1       2.197   7.106  18.933  0.00  0.00    +0.000 C 
BRANCH  18  19
ATOM     19  C   UNL     1       2.226   8.626  18.675  0.00  0.00    +0.000 C 
BRANCH  19  20
ATOM     20  O   UNL     1       1.022   9.300  19.067  0.00  0.00    +0.000 OA
BRANCH  20  21
ATOM     21  C   UNL     1       0.680  10.473  18.303  0.00  0.00    +0.000 C 
BRANCH  21  22
ATOM     22  C   UNL     1      -0.830  10.642  18.174  0.00  0.00    +0.000 A 
ATOM     23  C   UNL     1      -1.524  11.597  18.934  0.00  0.00    +0.000 A 
ATOM     24  C   UNL     1      -2.914  11.695  18.846  0.00  0.00    +0.000 A 
ATOM     25  C   UNL     1      -3.627  10.840  18.008  0.00  0.00    +0.000 A 
ATOM     26  C   UNL     1      -2.952   9.887  17.248  0.00  0.00    +0.000 A 
ATOM     27  C   UNL     1      -1.562   9.793  17.326  0.00  0.00    +0.000 A 
ENDBRANCH  21  22
BRANCH  21  28
ATOM     28  C   UNL     1       1.386  11.705  18.874  0.00  0.00    +0.000 A 
ATOM     29  C   UNL     1       1.333  12.029  20.238  0.00  0.00    +0.000 A 
ATOM     30  C   UNL     1       2.040  13.123  20.742  0.00  0.00    +0.000 A 
ATOM     31  C   UNL     1       2.811  13.910  19.890  0.00  0.00    +0.000 A 
ATOM     32  C   UNL     1       2.876  13.605  18.534  0.00  0.00    +0.000 A 
ATOM     33  C   UNL     1       2.172  12.510  18.029  0.00  0.00    +0.000 A 
ENDBRANCH  21  28
ENDBRANCH  20  21
ENDBRANCH  19  20
ENDBRANCH  18  19
ENDBRANCH   4  18
TORSDOF 11
ENDMDL
MODEL 4
REMARK VINA RESULT:      -7.7      3.186     10.721
REMARK  Name = 
REMARK  12 active torsions:
REMARK  status: ('A' for Active; 'I' for Inactive)
REMARK    1  A    between atoms: C_1  and  N_2
REMARK    2  A    between atoms: N_2  and  C_3
REMARK    3  A    between atoms: N_2  and  C_12
REMARK    4  A    between atoms: C_3  and  C_4
REMARK    5  A    between atoms: C_4  and  C_5
REMARK    6  A    between atoms: C_5  and  C_6
REMARK    7  A    between atoms: N_15  and  C_16
REMARK    8  A    between atoms: C_16  and  C_17
REMARK    9  A    between atoms: C_17  and  O_18
REMARK   10  A    between atoms: O_18  and  C_19
REMARK   11  A    between atoms: C_19  and  C_20
REMARK   12  A    between atoms: C_19  and  C_26
REMARK                            x       y       z     vdW  Elec       q    Type
REMARK                         _______ _______ _______ _____ _____    ______ ____
ROOT
ATOM      1  C   UNL     1      -1.146  11.492  20.655  0.00  0.00    +0.000 C 
ATOM      2  C   UNL     1      -0.399  10.274  21.242  0.00  0.00    +0.000 C 
ATOM      3  C   UNL     1       0.893   9.989  20.480  0.00  0.00    +0.000 C 
ATOM      4  N   UNL     1       0.639   9.682  19.060  0.00  0.00    +0.000 NA
ATOM      5  C   UNL     1      -0.163  10.746  18.420  0.00  0.00    +0.000 C 
ATOM      6  C   UNL     1      -1.434  11.101  19.191  0.00  0.00    +0.000 C 
ENDROOT
BRANCH   1   8
ATOM      7  C   UNL     1      -1.039  13.850  20.004  0.00  0.00    +0.000 C 
ATOM      8  N   UNL     1      -0.423  12.797  20.827  0.00  0.00    +0.000 NA
BRANCH   8   9
ATOM      9  C   UNL     1      -0.436  13.200  22.252  0.00  0.00    +0.000 C 
BRANCH   9  10
ATOM     10  C   UNL     1      -1.621  12.732  23.105  0.00  0.00    +0.000 C 
BRANCH  10  11
ATOM     11  C   UNL     1      -2.503  13.947  23.429  0.00  0.00    +0.000 C 
BRANCH  11  12
ATOM     12  C   UNL     1      -3.942  13.704  23.066  0.00  0.00    +0.000 A 
ATOM     13  C   UNL     1      -4.268  12.861  21.995  0.00  0.00    +0.000 A 
ATOM     14  C   UNL     1      -5.600  12.681  21.624  0.00  0.00    +0.000 A 
ATOM     15  C   UNL     1      -6.611  13.342  22.320  0.00  0.00    +0.000 A 
ATOM     16  C   UNL     1      -6.294  14.170  23.397  0.00  0.00    +0.000 A 
ATOM     17  C   UNL     1      -4.964  14.355  23.765  0.00  0.00    +0.000 A 
ENDBRANCH  11  12
ENDBRANCH  10  11
ENDBRANCH   9  10
ENDBRANCH   8   9
ENDBRANCH   1   8
BRANCH   4  18
ATOM     18  C   UNL     1       1.913   9.545  18.316  0.00  0.00    +0.000 C 
BRANCH  18  19
ATOM     19  C   UNL     1       2.159   8.175  17.651  0.00  0.00    +0.000 C 
BRANCH  19  20
ATOM     20  O   UNL     1       2.804   7.225  18.511  0.00  0.00    +0.000 OA
BRANCH  20  21
ATOM     21  C   UNL     1       3.400   6.088  17.858  0.00  0.00    +0.000 C 
BRANCH  21  22
ATOM     22  C   UNL     1       4.912   6.052  18.054  0.00  0.00    +0.000 A 
ATOM     23  C   UNL     1       5.489   5.399  19.153  0.00  0.00    +0.000 A 
ATOM     24  C   UNL     1       6.872   5.430  19.348  0.00  0.00    +0.000 A 
ATOM     25  C   UNL     1       7.691   6.117  18.454  0.00  0.00    +0.000 A 
ATOM     26  C   UNL     1       7.132   6.770  17.358  0.00  0.00    +0.000 A 
ATOM     27  C   UNL     1       5.752   6.733  17.156  0.00  0.00    +0.000 A 
ENDBRANCH  21  22
BRANCH  21  28
ATOM     28  C   UNL     1       2.699   4.798  18.288  0.00  0.00    +0.000 A 
ATOM     29  C   UNL     1       1.848   4.749  19.403  0.00  0.00    +0.000 A 
ATOM     30  C   UNL     1       1.169   3.573  19.735  0.00  0.00    +0.000 A 
ATOM     31  C   UNL     1       1.331   2.429  18.957  0.00  0.00    +0.000 A 
ATOM     32  C   UNL     1       2.171   2.458  17.847  0.00  0.00    +0.000 A 
ATOM     33  C   UNL     1       2.847   3.633  17.513  0.00  0.00    +0.000 A 
ENDBRANCH  21  28
ENDBRANCH  20  21
ENDBRANCH  19  20
ENDBRANCH  18  19
ENDBRANCH   4  18
TORSDOF 11
ENDMDL
MODEL 5
REMARK VINA RESULT:      -7.5      0.559      1.019
REMARK  Name = 
REMARK  12 active torsions:
REMARK  status: ('A' for Active; 'I' for Inactive)
REMARK    1  A    between atoms: C_1  and  N_2
REMARK    2  A    between atoms: N_2  and  C_3
REMARK    3  A    between atoms: N_2  and  C_12
REMARK    4  A    between atoms: C_3  and  C_4
REMARK    5  A    between atoms: C_4  and  C_5
REMARK    6  A    between atoms: C_5  and  C_6
REMARK    7  A    between atoms: N_15  and  C_16
REMARK    8  A    between atoms: C_16  and  C_17
REMARK    9  A    between atoms: C_17  and  O_18
REMARK   10  A    between atoms: O_18  and  C_19
REMARK   11  A    between atoms: C_19  and  C_20
REMARK   12  A    between atoms: C_19  and  C_26
REMARK                            x       y       z     vdW  Elec       q    Type
REMARK                         _______ _______ _______ _____ _____    ______ ____
ROOT
ATOM      1  C   UNL     1       2.384   3.460  19.043  0.00  0.00    +0.000 C 
ATOM      2  C   UNL     1       1.582   4.425  18.143  0.00  0.00    +0.000 C 
ATOM      3  C   UNL     1       1.889   5.884  18.473  0.00  0.00    +0.000 C 
ATOM      4  N   UNL     1       1.539   6.220  19.866  0.00  0.00    +0.000 NA
ATOM      5  C   UNL     1       2.181   5.286  20.816  0.00  0.00    +0.000 C 
ATOM      6  C   UNL     1       1.946   3.814  20.478  0.00  0.00    +0.000 C 
ENDROOT
BRANCH   1   8
ATOM      7  C   UNL     1       4.568   2.608  19.754  0.00  0.00    +0.000 C 
ATOM      8  N   UNL     1       3.868   3.496  18.812  0.00  0.00    +0.000 NA
BRANCH   8   9
ATOM      9  C   UNL     1       4.175   3.094  17.420  0.00  0.00    +0.000 C 
BRANCH   9  10
ATOM     10  C   UNL     1       4.607   4.198  16.448  0.00  0.00    +0.000 C 
BRANCH  10  11
ATOM     11  C   UNL     1       6.129   4.116  16.257  0.00  0.00    +0.000 C 
BRANCH  11  12
ATOM     12  C   UNL     1       6.850   5.145  17.083  0.00  0.00    +0.000 A 
ATOM     13  C   UNL     1       7.388   4.801  18.330  0.00  0.00    +0.000 A 
ATOM     14  C   UNL     1       8.007   5.769  19.119  0.00  0.00    +0.000 A 
ATOM     15  C   UNL     1       8.090   7.085  18.667  0.00  0.00    +0.000 A 
ATOM     16  C   UNL     1       7.571   7.432  17.421  0.00  0.00    +0.000 A 
ATOM     17  C   UNL     1       6.947   6.467  16.633  0.00  0.00    +0.000 A 
ENDBRANCH  11  12
ENDBRANCH  10  11
ENDBRANCH   9  10
ENDBRANCH   8   9
ENDBRANCH   1   8
BRANCH   4  18
ATOM     18  C   UNL     1       1.972   7.597  20.199  0.00  0.00    +0.000 C 
BRANCH  18  19
ATOM     19  C   UNL     1       0.841   8.611  20.464  0.00  0.00    +0.000 C 
BRANCH  19  20
ATOM     20  O   UNL     1       1.278   9.978  20.448  0.00  0.00    +0.000 OA
BRANCH  20  21
ATOM     21  C   UNL     1       1.109  10.678  19.201  0.00  0.00    +0.000 C 
BRANCH  21  22
ATOM     22  C   UNL     1      -0.346  10.676  18.744  0.00  0.00    +0.000 A 
ATOM     23  C   UNL     1      -0.769   9.887  17.664  0.00  0.00    +0.000 A 
ATOM     24  C   UNL     1      -2.093   9.945  17.222  0.00  0.00    +0.000 A 
ATOM     25  C   UNL     1      -3.005  10.794  17.847  0.00  0.00    +0.000 A 
ATOM     26  C   UNL     1      -2.598  11.583  18.921  0.00  0.00    +0.000 A 
ATOM     27  C   UNL     1      -1.279  11.520  19.371  0.00  0.00    +0.000 A 
ENDBRANCH  21  22
BRANCH  21  28
ATOM     28  C   UNL     1       1.719  12.079  19.289  0.00  0.00    +0.000 A 
ATOM     29  C   UNL     1       1.788  12.786  20.499  0.00  0.00    +0.000 A 
ATOM     30  C   UNL     1       2.409  14.036  20.563  0.00  0.00    +0.000 A 
ATOM     31  C   UNL     1       2.970  14.598  19.419  0.00  0.00    +0.000 A 
ATOM     32  C   UNL     1       2.911  13.912  18.209  0.00  0.00    +0.000 A 
ATOM     33  C   UNL     1       2.294  12.661  18.145  0.00  0.00    +0.000 A 
ENDBRANCH  21  28
ENDBRANCH  20  21
ENDBRANCH  19  20
ENDBRANCH  18  19
ENDBRANCH   4  18
TORSDOF 11
ENDMDL
MODEL 6
REMARK VINA RESULT:      -7.5      3.316     11.097
REMARK  Name = 
REMARK  12 active torsions:
REMARK  status: ('A' for Active; 'I' for Inactive)
REMARK    1  A    between atoms: C_1  and  N_2
REMARK    2  A    between atoms: N_2  and  C_3
REMARK    3  A    between atoms: N_2  and  C_12
REMARK    4  A    between atoms: C_3  and  C_4
REMARK    5  A    between atoms: C_4  and  C_5
REMARK    6  A    between atoms: C_5  and  C_6
REMARK    7  A    between atoms: N_15  and  C_16
REMARK    8  A    between atoms: C_16  and  C_17
REMARK    9  A    between atoms: C_17  and  O_18
REMARK   10  A    between atoms: O_18  and  C_19
REMARK   11  A    between atoms: C_19  and  C_20
REMARK   12  A    between atoms: C_19  and  C_26
REMARK                            x       y       z     vdW  Elec       q    Type
REMARK                         _______ _______ _______ _____ _____    ______ ____
ROOT
ATOM      1  C   UNL     1      -1.086  12.642  19.367  0.00  0.00    +0.000 C 
ATOM      2  C   UNL     1      -1.640  11.301  18.835  0.00  0.00    +0.000 C 
ATOM      3  C   UNL     1      -0.818  10.117  19.338  0.00  0.00    +0.000 C 
ATOM      4  N   UNL     1       0.587  10.195  18.896  0.00  0.00    +0.000 NA
ATOM      5  C   UNL     1       1.191  11.492  19.270  0.00  0.00    +0.000 C 
ATOM      6  C   UNL     1       0.361  12.700  18.837  0.00  0.00    +0.000 C 
ENDROOT
BRANCH   1   8
ATOM      7  C   UNL     1      -0.637  14.095  21.286  0.00  0.00    +0.000 C 
ATOM      8  N   UNL     1      -1.219  12.815  20.853  0.00  0.00    +0.000 NA
BRANCH   8   9
ATOM      9  C   UNL     1      -2.645  12.753  21.246  0.00  0.00    +0.000 C 
BRANCH   9  10
ATOM     10  C   UNL     1      -3.462  14.046  21.135  0.00  0.00    +0.000 C 
BRANCH  10  11
ATOM     11  C   UNL     1      -4.144  14.312  22.486  0.00  0.00    +0.000 C 
BRANCH  11  12
ATOM     12  C   UNL     1      -5.482  13.632  22.578  0.00  0.00    +0.000 A 
ATOM     13  C   UNL     1      -5.933  13.122  23.803  0.00  0.00    +0.000 A 
ATOM     14  C   UNL     1      -7.148  12.442  23.876  0.00  0.00    +0.000 A 
ATOM     15  C   UNL     1      -7.917  12.267  22.726  0.00  0.00    +0.000 A 
ATOM     16  C   UNL     1      -7.481  12.785  21.507  0.00  0.00    +0.000 A 
ATOM     17  C   UNL     1      -6.265  13.460  21.431  0.00  0.00    +0.000 A 
ENDBRANCH  11  12
ENDBRANCH  10  11
ENDBRANCH   9  10
ENDBRANCH   8   9
ENDBRANCH   1   8
BRANCH   4  18
ATOM     18  C   UNL     1       1.391   9.111  19.508  0.00  0.00    +0.000 C 
BRANCH  18  19
ATOM     19  C   UNL     1       2.271   8.297  18.538  0.00  0.00    +0.000 C 
BRANCH  19  20
ATOM     20  O   UNL     1       2.615   6.993  19.029  0.00  0.00    +0.000 OA
BRANCH  20  21
ATOM     21  C   UNL     1       3.117   6.064  18.049  0.00  0.00    +0.000 C 
BRANCH  21  22
ATOM     22  C   UNL     1       4.642   6.035  18.029  0.00  0.00    +0.000 A 
ATOM     23  C   UNL     1       5.365   6.500  16.919  0.00  0.00    +0.000 A 
ATOM     24  C   UNL     1       6.758   6.409  16.895  0.00  0.00    +0.000 A 
ATOM     25  C   UNL     1       7.444   5.848  17.971  0.00  0.00    +0.000 A 
ATOM     26  C   UNL     1       6.739   5.381  19.079  0.00  0.00    +0.000 A 
ATOM     27  C   UNL     1       5.348   5.480  19.110  0.00  0.00    +0.000 A 
ENDBRANCH  21  22
BRANCH  21  28
ATOM     28  C   UNL     1       2.483   4.686  18.247  0.00  0.00    +0.000 A 
ATOM     29  C   UNL     1       2.859   3.575  17.477  0.00  0.00    +0.000 A 
ATOM     30  C   UNL     1       2.310   2.314  17.724  0.00  0.00    +0.000 A 
ATOM     31  C   UNL     1       1.378   2.144  18.744  0.00  0.00    +0.000 A 
ATOM     32  C   UNL     1       0.992   3.235  19.519  0.00  0.00    +0.000 A 
ATOM     33  C   UNL     1       1.542   4.495  19.276  0.00  0.00    +0.000 A 
ENDBRANCH  21  28
ENDBRANCH  20  21
ENDBRANCH  19  20
ENDBRANCH  18  19
ENDBRANCH   4  18
TORSDOF 11
ENDMDL
MODEL 7
REMARK VINA RESULT:      -7.4      3.639     10.842
REMARK  Name = 
REMARK  12 active torsions:
REMARK  status: ('A' for Active; 'I' for Inactive)
REMARK    1  A    between atoms: C_1  and  N_2
REMARK    2  A    between atoms: N_2  and  C_3
REMARK    3  A    between atoms: N_2  and  C_12
REMARK    4  A    between atoms: C_3  and  C_4
REMARK    5  A    between atoms: C_4  and  C_5
REMARK    6  A    between atoms: C_5  and  C_6
REMARK    7  A    between atoms: N_15  and  C_16
REMARK    8  A    between atoms: C_16  and  C_17
REMARK    9  A    between atoms: C_17  and  O_18
REMARK   10  A    between atoms: O_18  and  C_19
REMARK   11  A    between atoms: C_19  and  C_20
REMARK   12  A    between atoms: C_19  and  C_26
REMARK                            x       y       z     vdW  Elec       q    Type
REMARK                         _______ _______ _______ _____ _____    ______ ____
ROOT
ATOM      1  C   UNL     1      -0.078  12.926  19.394  0.00  0.00    +0.000 C 
ATOM      2  C   UNL     1      -1.081  11.930  18.770  0.00  0.00    +0.000 C 
ATOM      3  C   UNL     1      -0.609  10.487  18.929  0.00  0.00    +0.000 C 
ATOM      4  N   UNL     1       0.685  10.253  18.261  0.00  0.00    +0.000 NA
ATOM      5  C   UNL     1       1.702  11.225  18.717  0.00  0.00    +0.000 C 
ATOM      6  C   UNL     1       1.238  12.680  18.630  0.00  0.00    +0.000 C 
ENDROOT
BRANCH   1   8
ATOM      7  C   UNL     1       0.967  13.838  21.412  0.00  0.00    +0.000 C 
ATOM      8  N   UNL     1       0.034  12.828  20.889  0.00  0.00    +0.000 NA
BRANCH   8   9
ATOM      9  C   UNL     1      -1.298  13.004  21.511  0.00  0.00    +0.000 C 
BRANCH   9  10
ATOM     10  C   UNL     1      -1.337  13.332  23.009  0.00  0.00    +0.000 C 
BRANCH  10  11
ATOM     11  C   UNL     1      -2.727  12.971  23.554  0.00  0.00    +0.000 C 
BRANCH  11  12
ATOM     12  C   UNL     1      -3.502  14.195  23.955  0.00  0.00    +0.000 A 
ATOM     13  C   UNL     1      -4.820  14.374  23.512  0.00  0.00    +0.000 A 
ATOM     14  C   UNL     1      -5.519  15.535  23.839  0.00  0.00    +0.000 A 
ATOM     15  C   UNL     1      -4.905  16.524  24.606  0.00  0.00    +0.000 A 
ATOM     16  C   UNL     1      -3.599  16.346  25.062  0.00  0.00    +0.000 A 
ATOM     17  C   UNL     1      -2.898  15.189  24.733  0.00  0.00    +0.000 A 
ENDBRANCH  11  12
ENDBRANCH  10  11
ENDBRANCH   9  10
ENDBRANCH   8   9
ENDBRANCH   1   8
BRANCH   4  18
ATOM     18  C   UNL     1       1.183   8.887  18.546  0.00  0.00    +0.000 C 
BRANCH  18  19
ATOM     19  C   UNL     1       2.522   8.508  17.880  0.00  0.00    +0.000 C 
BRANCH  19  20
ATOM     20  O   UNL     1       3.192   7.411  18.518  0.00  0.00    +0.000 OA
BRANCH  20  21
ATOM     21  C   UNL     1       3.188   6.166  17.795  0.00  0.00    +0.000 C 
BRANCH  21  22
ATOM     22  C   UNL     1       4.604   5.683  17.495  0.00  0.00    +0.000 A 
ATOM     23  C   UNL     1       5.031   5.451  16.179  0.00  0.00    +0.000 A 
ATOM     24  C   UNL     1       6.311   4.951  15.929  0.00  0.00    +0.000 A 
ATOM     25  C   UNL     1       7.174   4.670  16.987  0.00  0.00    +0.000 A 
ATOM     26  C   UNL     1       6.763   4.896  18.300  0.00  0.00    +0.000 A 
ATOM     27  C   UNL     1       5.489   5.405  18.552  0.00  0.00    +0.000 A 
ENDBRANCH  21  22
BRANCH  21  28
ATOM     28  C   UNL     1       2.331   5.129  18.524  0.00  0.00    +0.000 A 
ATOM     29  C   UNL     1       1.856   3.973  17.885  0.00  0.00    +0.000 A 
ATOM     30  C   UNL     1       1.130   3.011  18.593  0.00  0.00    +0.000 A 
ATOM     31  C   UNL     1       0.869   3.190  19.949  0.00  0.00    +0.000 A 
ATOM     32  C   UNL     1       1.332   4.330  20.600  0.00  0.00    +0.000 A 
ATOM     33  C   UNL     1       2.060   5.290  19.895  0.00  0.00    +0.000 A 
ENDBRANCH  21  28
ENDBRANCH  20  21
ENDBRANCH  19  20
ENDBRANCH  18  19
ENDBRANCH   4  18
TORSDOF 11
ENDMDL
MODEL 8
REMARK VINA RESULT:      -7.4      3.627     10.857
REMARK  Name = 
REMARK  12 active torsions:
REMARK  status: ('A' for Active; 'I' for Inactive)
REMARK    1  A    between atoms: C_1  and  N_2
REMARK    2  A    between atoms: N_2  and  C_3
REMARK    3  A    between atoms: N_2  and  C_12
REMARK    4  A    between atoms: C_3  and  C_4
REMARK    5  A    between atoms: C_4  and  C_5
REMARK    6  A    between atoms: C_5  and  C_6
REMARK    7  A    between atoms: N_15  and  C_16
REMARK    8  A    between atoms: C_16  and  C_17
REMARK    9  A    between atoms: C_17  and  O_18
REMARK   10  A    between atoms: O_18  and  C_19
REMARK   11  A    between atoms: C_19  and  C_20
REMARK   12  A    between atoms: C_19  and  C_26
REMARK                            x       y       z     vdW  Elec       q    Type
REMARK                         _______ _______ _______ _____ _____    ______ ____
ROOT
ATOM      1  C   UNL     1      -0.687  12.795  19.405  0.00  0.00    +0.000 C 
ATOM      2  C   UNL     1      -1.215  11.398  19.013  0.00  0.00    +0.000 C 
ATOM      3  C   UNL     1      -0.155  10.320  19.222  0.00  0.00    +0.000 C 
ATOM      4  N   UNL     1       1.046  10.560  18.400  0.00  0.00    +0.000 NA
ATOM      5  C   UNL     1       1.581  11.920  18.626  0.00  0.00    +0.000 C 
ATOM      6  C   UNL     1       0.531  13.021  18.486  0.00  0.00    +0.000 C 
ENDROOT
BRANCH   1   8
ATOM      7  C   UNL     1       0.361  14.186  21.128  0.00  0.00    +0.000 C 
ATOM      8  N   UNL     1      -0.405  12.956  20.872  0.00  0.00    +0.000 NA
BRANCH   8   9
ATOM      9  C   UNL     1      -1.676  12.988  21.632  0.00  0.00    +0.000 C 
BRANCH   9  10
ATOM     10  C   UNL     1      -1.675  12.356  23.030  0.00  0.00    +0.000 C 
BRANCH  10  11
ATOM     11  C   UNL     1      -3.121  12.300  23.544  0.00  0.00    +0.000 C 
BRANCH  11  12
ATOM     12  C   UNL     1      -3.623  13.660  23.944  0.00  0.00    +0.000 A 
ATOM     13  C   UNL     1      -4.859  14.125  23.474  0.00  0.00    +0.000 A 
ATOM     14  C   UNL     1      -5.297  15.407  23.800  0.00  0.00    +0.000 A 
ATOM     15  C   UNL     1      -4.503  16.232  24.595  0.00  0.00    +0.000 A 
ATOM     16  C   UNL     1      -3.279  15.771  25.079  0.00  0.00    +0.000 A 
ATOM     17  C   UNL     1      -2.837  14.492  24.750  0.00  0.00    +0.000 A 
ENDBRANCH  11  12
ENDBRANCH  10  11
ENDBRANCH   9  10
ENDBRANCH   8   9
ENDBRANCH   1   8
BRANCH   4  18
ATOM     18  C   UNL     1       2.109   9.580  18.723  0.00  0.00    +0.000 C 
BRANCH  18  19
ATOM     19  C   UNL     1       1.994   8.210  18.024  0.00  0.00    +0.000 C 
BRANCH  19  20
ATOM     20  O   UNL     1       2.581   7.133  18.768  0.00  0.00    +0.000 OA
BRANCH  20  21
ATOM     21  C   UNL     1       3.172   6.077  17.986  0.00  0.00    +0.000 C 
BRANCH  21  22
ATOM     22  C   UNL     1       4.694   6.078  18.094  0.00  0.00    +0.000 A 
ATOM     23  C   UNL     1       5.351   5.406  19.135  0.00  0.00    +0.000 A 
ATOM     24  C   UNL     1       6.741   5.470  19.251  0.00  0.00    +0.000 A 
ATOM     25  C   UNL     1       7.489   6.209  18.336  0.00  0.00    +0.000 A 
ATOM     26  C   UNL     1       6.849   6.882  17.296  0.00  0.00    +0.000 A 
ATOM     27  C   UNL     1       5.461   6.812  17.173  0.00  0.00    +0.000 A 
ENDBRANCH  21  22
BRANCH  21  28
ATOM     28  C   UNL     1       2.537   4.731  18.342  0.00  0.00    +0.000 A 
ATOM     29  C   UNL     1       1.665   4.583  19.432  0.00  0.00    +0.000 A 
ATOM     30  C   UNL     1       1.048   3.357  19.694  0.00  0.00    +0.000 A 
ATOM     31  C   UNL     1       1.294   2.260  18.872  0.00  0.00    +0.000 A 
ATOM     32  C   UNL     1       2.156   2.387  17.786  0.00  0.00    +0.000 A 
ATOM     33  C   UNL     1       2.770   3.612  17.520  0.00  0.00    +0.000 A 
ENDBRANCH  21  28
ENDBRANCH  20  21
ENDBRANCH  19  20
ENDBRANCH  18  19
ENDBRANCH   4  18
TORSDOF 11
ENDMDL
MODEL 9
REMARK VINA RESULT:      -7.4      1.467      3.730
REMARK  Name = 
REMARK  12 active torsions:
REMARK  status: ('A' for Active; 'I' for Inactive)
REMARK    1  A    between atoms: C_1  and  N_2
REMARK    2  A    between atoms: N_2  and  C_3
REMARK    3  A    between atoms: N_2  and  C_12
REMARK    4  A    between atoms: C_3  and  C_4
REMARK    5  A    between atoms: C_4  and  C_5
REMARK    6  A    between atoms: C_5  and  C_6
REMARK    7  A    between atoms: N_15  and  C_16
REMARK    8  A    between atoms: C_16  and  C_17
REMARK    9  A    between atoms: C_17  and  O_18
REMARK   10  A    between atoms: O_18  and  C_19
REMARK   11  A    between atoms: C_19  and  C_20
REMARK   12  A    between atoms: C_19  and  C_26
REMARK                            x       y       z     vdW  Elec       q    Type
REMARK                         _______ _______ _______ _____ _____    ______ ____
ROOT
ATOM      1  C   UNL     1       5.408   5.547  17.519  0.00  0.00    +0.000 C 
ATOM      2  C   UNL     1       5.094   5.455  19.028  0.00  0.00    +0.000 C 
ATOM      3  C   UNL     1       3.651   5.855  19.325  0.00  0.00    +0.000 C 
ATOM      4  N   UNL     1       3.370   7.246  18.921  0.00  0.00    +0.000 NA
ATOM      5  C   UNL     1       3.731   7.472  17.505  0.00  0.00    +0.000 C 
ATOM      6  C   UNL     1       5.151   7.024  17.158  0.00  0.00    +0.000 C 
ENDROOT
BRANCH   1   8
ATOM      7  C   UNL     1       5.268   4.438  15.340  0.00  0.00    +0.000 C 
ATOM      8  N   UNL     1       4.660   4.554  16.675  0.00  0.00    +0.000 NA
BRANCH   8   9
ATOM      9  C   UNL     1       4.649   3.230  17.339  0.00  0.00    +0.000 C 
BRANCH   9  10
ATOM     10  C   UNL     1       3.471   2.298  17.028  0.00  0.00    +0.000 C 
BRANCH  10  11
ATOM     11  C   UNL     1       3.184   1.440  18.269  0.00  0.00    +0.000 C 
BRANCH  11  12
ATOM     12  C   UNL     1       2.509   2.236  19.352  0.00  0.00    +0.000 A 
ATOM     13  C   UNL     1       1.322   2.932  19.084  0.00  0.00    +0.000 A 
ATOM     14  C   UNL     1       0.728   3.714  20.073  0.00  0.00    +0.000 A 
ATOM     15  C   UNL     1       1.318   3.808  21.332  0.00  0.00    +0.000 A 
ATOM     16  C   UNL     1       2.491   3.108  21.611  0.00  0.00    +0.000 A 
ATOM     17  C   UNL     1       3.088   2.329  20.623  0.00  0.00    +0.000 A 
ENDBRANCH  11  12
ENDBRANCH  10  11
ENDBRANCH   9  10
ENDBRANCH   8   9
ENDBRANCH   1   8
BRANCH   4  18
ATOM     18  C   UNL     1       1.933   7.562  19.093  0.00  0.00    +0.000 C 
BRANCH  18  19
ATOM     19  C   UNL     1       1.571   8.388  20.344  0.00  0.00    +0.000 C 
BRANCH  19  20
ATOM     20  O   UNL     1       0.468   9.284  20.145  0.00  0.00    +0.000 OA
BRANCH  20  21
ATOM     21  C   UNL     1       0.508  10.072  18.939  0.00  0.00    +0.000 C 
BRANCH  21  22
ATOM     22  C   UNL     1      -0.890  10.327  18.385  0.00  0.00    +0.000 A 
ATOM     23  C   UNL     1      -1.329   9.710  17.204  0.00  0.00    +0.000 A 
ATOM     24  C   UNL     1      -2.590  10.003  16.680  0.00  0.00    +0.000 A 
ATOM     25  C   UNL     1      -3.422  10.918  17.323  0.00  0.00    +0.000 A 
ATOM     26  C   UNL     1      -2.999  11.538  18.497  0.00  0.00    +0.000 A 
ATOM     27  C   UNL     1      -1.744  11.239  19.028  0.00  0.00    +0.000 A 
ENDBRANCH  21  22
BRANCH  21  28
ATOM     28  C   UNL     1       1.317  11.350  19.165  0.00  0.00    +0.000 A 
ATOM     29  C   UNL     1       2.102  11.924  18.152  0.00  0.00    +0.000 A 
ATOM     30  C   UNL     1       2.779  13.127  18.367  0.00  0.00    +0.000 A 
ATOM     31  C   UNL     1       2.682  13.776  19.595  0.00  0.00    +0.000 A 
ATOM     32  C   UNL     1       1.909  13.222  20.612  0.00  0.00    +0.000 A 
ATOM     33  C   UNL     1       1.229  12.022  20.399  0.00  0.00    +0.000 A 
ENDBRANCH  21  28
ENDBRANCH  20  21
ENDBRANCH  19  20
ENDBRANCH  18  19
ENDBRANCH   4  18
TORSDOF 11
ENDMDL
