MODEL 1
REMARK VINA RESULT:      -8.1      0.000      0.000
REMARK  Name = 
REMARK  8 active torsions:
REMARK  status: ('A' for Active; 'I' for Inactive)
REMARK    1  A    between atoms: C_2  and  C_4
REMARK    2  A    between atoms: N_7  and  C_8
REMARK    3  A    between atoms: C_20  and  N_21
REMARK    4  A    between atoms: C_22  and  C_24
REMARK    5  A    between atoms: C_27  and  N_28
REMARK    6  A    between atoms: N_28  and  C_29
REMARK    7  A    between atoms: C_29  and  C_30
REMARK    8  A    between atoms: C_30  and  O_31
REMARK                            x       y       z     vdW  Elec       q    Type
REMARK                         _______ _______ _______ _____ _____    ______ ____
ROOT
ATOM      1  C   UNL     1       0.580  10.025  19.668  0.00  0.00    +0.000 A 
ATOM      2  N   UNL     1       1.459   8.945  19.546  0.00  0.00    +0.000 NA
ATOM      3  C   UNL     1       1.293   8.097  20.532  0.00  0.00    +0.000 A 
ATOM      4  N   UNL     1       2.028   6.979  20.732  0.00  0.00    +0.000 N 
ATOM      5  S   UNL     1       0.040   8.508  21.615  0.00  0.00    +0.000 S 
ATOM      6  C   UNL     1      -0.281   9.953  20.754  0.00  0.00    +0.000 A 
ATOM      7  H   UNL     1       1.845   6.449  21.578  0.00  0.00    +0.000 HD
ENDROOT
BRANCH   4   8
ATOM      8  C   UNL     1       2.544   6.181  19.693  0.00  0.00    +0.000 A 
ATOM      9  C   UNL     1       1.852   5.029  19.313  0.00  0.00    +0.000 A 
ATOM     10  C   UNL     1       2.342   4.208  18.293  0.00  0.00    +0.000 A 
ATOM     11  C   UNL     1       3.527   4.535  17.616  0.00  0.00    +0.000 A 
ATOM     12  C   UNL     1       4.029   3.731  16.580  0.00  0.00    +0.000 A 
ATOM     13  C   UNL     1       5.206   4.085  15.915  0.00  0.00    +0.000 A 
ATOM     14  C   UNL     1       5.881   5.239  16.284  0.00  0.00    +0.000 A 
ATOM     15  F   UNL     1       7.008   5.575  15.645  0.00  0.00    +0.000 F 
ATOM     16  C   UNL     1       5.409   6.048  17.310  0.00  0.00    +0.000 A 
ATOM     17  C   UNL     1       4.229   5.705  17.987  0.00  0.00    +0.000 A 
ATOM     18  C   UNL     1       3.732   6.506  19.022  0.00  0.00    +0.000 A 
ENDBRANCH   4   8
BRANCH   1  20
ATOM     19  N   UNL     1       1.829  11.095  17.980  0.00  0.00    +0.000 N 
ATOM     20  C   UNL     1       0.667  11.118  18.707  0.00  0.00    +0.000 C 
ATOM     21  O   UNL     1      -0.188  11.983  18.567  0.00  0.00    +0.000 OA
ATOM     22  H   UNL     1       2.045  11.825  17.321  0.00  0.00    +0.000 HD
ATOM     23  H   UNL     1       2.513  10.370  18.180  0.00  0.00    +0.000 HD
ENDBRANCH   1  20
BRANCH   6  24
ATOM     24  N   UNL     1      -1.294  10.829  21.150  0.00  0.00    +0.000 N 
ATOM     25  C   UNL     1      -1.122  11.812  22.114  0.00  0.00    +0.000 C 
ATOM     26  O   UNL     1      -0.054  12.119  22.642  0.00  0.00    +0.000 OA
ATOM     27  H   UNL     1      -2.172  10.749  20.647  0.00  0.00    +0.000 HD
BRANCH  25  28
ATOM     28  C   UNL     1      -2.307  12.590  22.567  0.00  0.00    +0.000 A 
ATOM     29  C   UNL     1      -2.966  12.094  23.703  0.00  0.00    +0.000 A 
ATOM     30  C   UNL     1      -4.028  12.787  24.283  0.00  0.00    +0.000 A 
ATOM     31  C   UNL     1      -4.446  14.009  23.762  0.00  0.00    +0.000 A 
ATOM     32  C   UNL     1      -3.823  14.474  22.591  0.00  0.00    +0.000 A 
ATOM     33  C   UNL     1      -2.752  13.782  21.995  0.00  0.00    +0.000 A 
BRANCH  31  34
ATOM     34  N   UNL     1      -5.507  14.759  24.303  0.00  0.00    +0.000 N 
ATOM     35  H   UNL     1      -5.130  15.658  24.607  0.00  0.00    +0.000 HD
BRANCH  34  36
ATOM     36  C   UNL     1      -6.688  14.968  23.443  0.00  0.00    +0.000 C 
BRANCH  36  37
ATOM     37  C   UNL     1      -7.476  13.664  23.299  0.00  0.00    +0.000 C 
BRANCH  37  38
ATOM     38  O   UNL     1      -7.916  13.197  24.573  0.00  0.00    +0.000 OA
ATOM     39  H   UNL     1      -8.648  13.785  24.826  0.00  0.00    +0.000 HD
ENDBRANCH  37  38
ENDBRANCH  36  37
ENDBRANCH  34  36
ENDBRANCH  31  34
ENDBRANCH  25  28
ENDBRANCH   6  24
TORSDOF 8
ENDMDL
MODEL 2
REMARK VINA RESULT:      -8.1      0.868      1.176
REMARK  Name = 
REMARK  8 active torsions:
REMARK  status: ('A' for Active; 'I' for Inactive)
REMARK    1  A    between atoms: C_2  and  C_4
REMARK    2  A    between atoms: N_7  and  C_8
REMARK    3  A    between atoms: C_20  and  N_21
REMARK    4  A    between atoms: C_22  and  C_24
REMARK    5  A    between atoms: C_27  and  N_28
REMARK    6  A    between atoms: N_28  and  C_29
REMARK    7  A    between atoms: C_29  and  C_30
REMARK    8  A    between atoms: C_30  and  O_31
REMARK                            x       y       z     vdW  Elec       q    Type
REMARK                         _______ _______ _______ _____ _____    ______ ____
ROOT
ATOM      1  C   UNL     1       0.838   9.824  19.547  0.00  0.00    +0.000 A 
ATOM      2  N   UNL     1       1.738   8.762  19.428  0.00  0.00    +0.000 NA
ATOM      3  C   UNL     1       1.536   7.874  20.371  0.00  0.00    +0.000 A 
ATOM      4  N   UNL     1       2.278   6.759  20.565  0.00  0.00    +0.000 N 
ATOM      5  S   UNL     1       0.224   8.225  21.404  0.00  0.00    +0.000 S 
ATOM      6  C   UNL     1      -0.076   9.698  20.584  0.00  0.00    +0.000 A 
ATOM      7  H   UNL     1       2.061   6.194  21.380  0.00  0.00    +0.000 HD
ENDROOT
BRANCH   4   8
ATOM      8  C   UNL     1       2.858   6.010  19.524  0.00  0.00    +0.000 A 
ATOM      9  C   UNL     1       2.028   5.295  18.656  0.00  0.00    +0.000 A 
ATOM     10  C   UNL     1       2.572   4.533  17.618  0.00  0.00    +0.000 A 
ATOM     11  C   UNL     1       3.958   4.486  17.413  0.00  0.00    +0.000 A 
ATOM     12  C   UNL     1       4.524   3.736  16.369  0.00  0.00    +0.000 A 
ATOM     13  C   UNL     1       5.908   3.715  16.179  0.00  0.00    +0.000 A 
ATOM     14  C   UNL     1       6.727   4.440  17.032  0.00  0.00    +0.000 A 
ATOM     15  F   UNL     1       8.053   4.417  16.848  0.00  0.00    +0.000 F 
ATOM     16  C   UNL     1       6.194   5.184  18.078  0.00  0.00    +0.000 A 
ATOM     17  C   UNL     1       4.806   5.214  18.279  0.00  0.00    +0.000 A 
ATOM     18  C   UNL     1       4.245   5.959  19.323  0.00  0.00    +0.000 A 
ENDBRANCH   4   8
BRANCH   1  20
ATOM     19  N   UNL     1       2.063  10.877  17.832  0.00  0.00    +0.000 N 
ATOM     20  C   UNL     1       0.956  10.956  18.635  0.00  0.00    +0.000 C 
ATOM     21  O   UNL     1       0.169  11.893  18.593  0.00  0.00    +0.000 OA
ATOM     22  H   UNL     1       2.297  11.621  17.194  0.00  0.00    +0.000 HD
ATOM     23  H   UNL     1       2.695  10.089  17.951  0.00  0.00    +0.000 HD
ENDBRANCH   1  20
BRANCH   6  24
ATOM     24  N   UNL     1      -1.121  10.543  20.962  0.00  0.00    +0.000 N 
ATOM     25  C   UNL     1      -0.964  11.615  21.829  0.00  0.00    +0.000 C 
ATOM     26  O   UNL     1       0.108  12.029  22.269  0.00  0.00    +0.000 OA
ATOM     27  H   UNL     1      -2.017  10.368  20.517  0.00  0.00    +0.000 HD
BRANCH  25  28
ATOM     28  C   UNL     1      -2.172  12.358  22.281  0.00  0.00    +0.000 A 
ATOM     29  C   UNL     1      -2.861  13.067  21.284  0.00  0.00    +0.000 A 
ATOM     30  C   UNL     1      -4.062  13.721  21.562  0.00  0.00    +0.000 A 
ATOM     31  C   UNL     1      -4.622  13.664  22.835  0.00  0.00    +0.000 A 
ATOM     32  C   UNL     1      -3.901  13.003  23.844  0.00  0.00    +0.000 A 
ATOM     33  C   UNL     1      -2.688  12.341  23.577  0.00  0.00    +0.000 A 
BRANCH  31  34
ATOM     34  N   UNL     1      -5.832  14.297  23.177  0.00  0.00    +0.000 N 
ATOM     35  H   UNL     1      -5.755  15.280  22.912  0.00  0.00    +0.000 HD
BRANCH  34  36
ATOM     36  C   UNL     1      -7.071  13.717  22.626  0.00  0.00    +0.000 C 
BRANCH  36  37
ATOM     37  C   UNL     1      -7.858  13.003  23.727  0.00  0.00    +0.000 C 
BRANCH  37  38
ATOM     38  O   UNL     1      -7.399  11.662  23.887  0.00  0.00    +0.000 OA
ATOM     39  H   UNL     1      -7.062  11.611  24.799  0.00  0.00    +0.000 HD
ENDBRANCH  37  38
ENDBRANCH  36  37
ENDBRANCH  34  36
ENDBRANCH  31  34
ENDBRANCH  25  28
ENDBRANCH   6  24
TORSDOF 8
ENDMDL
MODEL 3
REMARK VINA RESULT:      -7.8      1.353      1.480
REMARK  Name = 
REMARK  8 active torsions:
REMARK  status: ('A' for Active; 'I' for Inactive)
REMARK    1  A    between atoms: C_2  and  C_4
REMARK    2  A    between atoms: N_7  and  C_8
REMARK    3  A    between atoms: C_20  and  N_21
REMARK    4  A    between atoms: C_22  and  C_24
REMARK    5  A    between atoms: C_27  and  N_28
REMARK    6  A    between atoms: N_28  and  C_29
REMARK    7  A    between atoms: C_29  and  C_30
REMARK    8  A    between atoms: C_30  and  O_31
REMARK                            x       y       z     vdW  Elec       q    Type
REMARK                         _______ _______ _______ _____ _____    ______ ____
ROOT
ATOM      1  C   UNL     1       0.625  10.131  19.792  0.00  0.00    +0.000 A 
ATOM      2  N   UNL     1       1.439   8.996  19.741  0.00  0.00    +0.000 NA
ATOM      3  C   UNL     1       1.150   8.172  20.719  0.00  0.00    +0.000 A 
ATOM      4  N   UNL     1       1.795   7.012  20.980  0.00  0.00    +0.000 N 
ATOM      5  S   UNL     1      -0.148   8.675  21.706  0.00  0.00    +0.000 S 
ATOM      6  C   UNL     1      -0.314  10.127  20.814  0.00  0.00    +0.000 A 
ATOM      7  H   UNL     1       1.518   6.505  21.814  0.00  0.00    +0.000 HD
ENDROOT
BRANCH   4   8
ATOM      8  C   UNL     1       2.331   6.171  19.986  0.00  0.00    +0.000 A 
ATOM      9  C   UNL     1       1.943   4.829  19.949  0.00  0.00    +0.000 A 
ATOM     10  C   UNL     1       2.465   3.963  18.983  0.00  0.00    +0.000 A 
ATOM     11  C   UNL     1       3.372   4.427  18.020  0.00  0.00    +0.000 A 
ATOM     12  C   UNL     1       3.899   3.578  17.033  0.00  0.00    +0.000 A 
ATOM     13  C   UNL     1       4.793   4.068  16.078  0.00  0.00    +0.000 A 
ATOM     14  C   UNL     1       5.163   5.404  16.109  0.00  0.00    +0.000 A 
ATOM     15  F   UNL     1       6.020   5.870  15.192  0.00  0.00    +0.000 F 
ATOM     16  C   UNL     1       4.663   6.265  17.078  0.00  0.00    +0.000 A 
ATOM     17  C   UNL     1       3.764   5.786  18.043  0.00  0.00    +0.000 A 
ATOM     18  C   UNL     1       3.244   6.634  19.028  0.00  0.00    +0.000 A 
ENDBRANCH   4   8
BRANCH   1  20
ATOM     19  N   UNL     1       1.736  10.858  17.845  0.00  0.00    +0.000 N 
ATOM     20  C   UNL     1       0.851  11.205  18.832  0.00  0.00    +0.000 C 
ATOM     21  O   UNL     1       0.327  12.310  18.897  0.00  0.00    +0.000 OA
ATOM     22  H   UNL     1       2.027  11.525  17.149  0.00  0.00    +0.000 HD
ATOM     23  H   UNL     1       2.164   9.936  17.878  0.00  0.00    +0.000 HD
ENDBRANCH   1  20
BRANCH   6  24
ATOM     24  N   UNL     1      -1.294  11.070  21.130  0.00  0.00    +0.000 N 
ATOM     25  C   UNL     1      -1.397  11.680  22.372  0.00  0.00    +0.000 C 
ATOM     26  O   UNL     1      -0.589  11.570  23.293  0.00  0.00    +0.000 OA
ATOM     27  H   UNL     1      -1.912  11.340  20.370  0.00  0.00    +0.000 HD
BRANCH  25  28
ATOM     28  C   UNL     1      -2.568  12.556  22.648  0.00  0.00    +0.000 A 
ATOM     29  C   UNL     1      -3.266  12.287  23.836  0.00  0.00    +0.000 A 
ATOM     30  C   UNL     1      -4.319  13.100  24.255  0.00  0.00    +0.000 A 
ATOM     31  C   UNL     1      -4.689  14.219  23.514  0.00  0.00    +0.000 A 
ATOM     32  C   UNL     1      -4.027  14.453  22.297  0.00  0.00    +0.000 A 
ATOM     33  C   UNL     1      -2.964  13.639  21.862  0.00  0.00    +0.000 A 
BRANCH  31  34
ATOM     34  N   UNL     1      -5.739  15.081  23.886  0.00  0.00    +0.000 N 
ATOM     35  H   UNL     1      -6.082  14.778  24.798  0.00  0.00    +0.000 HD
BRANCH  34  36
ATOM     36  C   UNL     1      -5.443  16.527  23.908  0.00  0.00    +0.000 C 
BRANCH  36  37
ATOM     37  C   UNL     1      -4.581  16.873  25.124  0.00  0.00    +0.000 C 
BRANCH  37  38
ATOM     38  O   UNL     1      -3.265  17.244  24.721  0.00  0.00    +0.000 OA
ATOM     39  H   UNL     1      -2.921  16.481  24.224  0.00  0.00    +0.000 HD
ENDBRANCH  37  38
ENDBRANCH  36  37
ENDBRANCH  34  36
ENDBRANCH  31  34
ENDBRANCH  25  28
ENDBRANCH   6  24
TORSDOF 8
ENDMDL
MODEL 4
REMARK VINA RESULT:      -7.7      4.301     11.811
REMARK  Name = 
REMARK  8 active torsions:
REMARK  status: ('A' for Active; 'I' for Inactive)
REMARK    1  A    between atoms: C_2  and  C_4
REMARK    2  A    between atoms: N_7  and  C_8
REMARK    3  A    between atoms: C_20  and  N_21
REMARK    4  A    between atoms: C_22  and  C_24
REMARK    5  A    between atoms: C_27  and  N_28
REMARK    6  A    between atoms: N_28  and  C_29
REMARK    7  A    between atoms: C_29  and  C_30
REMARK    8  A    between atoms: C_30  and  O_31
REMARK                            x       y       z     vdW  Elec       q    Type
REMARK                         _______ _______ _______ _____ _____    ______ ____
ROOT
ATOM      1  C   UNL     1       0.152  10.101  21.161  0.00  0.00    +0.000 A 
ATOM      2  N   UNL     1      -0.768  11.153  21.157  0.00  0.00    +0.000 NA
ATOM      3  C   UNL     1      -1.015  11.549  19.932  0.00  0.00    +0.000 A 
ATOM      4  N   UNL     1      -1.817  12.584  19.593  0.00  0.00    +0.000 N 
ATOM      5  S   UNL     1      -0.217  10.647  18.722  0.00  0.00    +0.000 S 
ATOM      6  C   UNL     1       0.567   9.687  19.903  0.00  0.00    +0.000 A 
ATOM      7  H   UNL     1      -1.862  12.834  18.610  0.00  0.00    +0.000 HD
ENDROOT
BRANCH   4   8
ATOM      8  C   UNL     1      -2.984  12.937  20.297  0.00  0.00    +0.000 A 
ATOM      9  C   UNL     1      -4.204  12.367  19.920  0.00  0.00    +0.000 A 
ATOM     10  C   UNL     1      -5.384  12.703  20.590  0.00  0.00    +0.000 A 
ATOM     11  C   UNL     1      -5.366  13.602  21.666  0.00  0.00    +0.000 A 
ATOM     12  C   UNL     1      -6.538  13.944  22.361  0.00  0.00    +0.000 A 
ATOM     13  C   UNL     1      -6.491  14.834  23.437  0.00  0.00    +0.000 A 
ATOM     14  C   UNL     1      -5.276  15.384  23.818  0.00  0.00    +0.000 A 
ATOM     15  F   UNL     1      -5.235  16.237  24.850  0.00  0.00    +0.000 F 
ATOM     16  C   UNL     1      -4.103  15.069  23.144  0.00  0.00    +0.000 A 
ATOM     17  C   UNL     1      -4.136  14.176  22.062  0.00  0.00    +0.000 A 
ATOM     18  C   UNL     1      -2.966  13.841  21.369  0.00  0.00    +0.000 A 
ENDBRANCH   4   8
BRANCH   1  20
ATOM     19  N   UNL     1      -0.398   9.402  23.343  0.00  0.00    +0.000 N 
ATOM     20  C   UNL     1       0.617   9.574  22.439  0.00  0.00    +0.000 C 
ATOM     21  O   UNL     1       1.788   9.325  22.698  0.00  0.00    +0.000 OA
ATOM     22  H   UNL     1      -0.210   9.099  24.285  0.00  0.00    +0.000 HD
ATOM     23  H   UNL     1      -1.341   9.669  23.072  0.00  0.00    +0.000 HD
ENDBRANCH   1  20
BRANCH   6  24
ATOM     24  N   UNL     1       1.439   8.657  19.544  0.00  0.00    +0.000 N 
ATOM     25  C   UNL     1       2.059   8.576  18.305  0.00  0.00    +0.000 C 
ATOM     26  O   UNL     1       2.026   9.439  17.430  0.00  0.00    +0.000 OA
ATOM     27  H   UNL     1       1.648   7.978  20.270  0.00  0.00    +0.000 HD
BRANCH  25  28
ATOM     28  C   UNL     1       2.849   7.358  17.975  0.00  0.00    +0.000 A 
ATOM     29  C   UNL     1       4.144   7.585  17.484  0.00  0.00    +0.000 A 
ATOM     30  C   UNL     1       5.018   6.527  17.232  0.00  0.00    +0.000 A 
ATOM     31  C   UNL     1       4.633   5.214  17.487  0.00  0.00    +0.000 A 
ATOM     32  C   UNL     1       3.316   4.986  17.924  0.00  0.00    +0.000 A 
ATOM     33  C   UNL     1       2.425   6.045  18.179  0.00  0.00    +0.000 A 
BRANCH  31  34
ATOM     34  N   UNL     1       5.467   4.104  17.259  0.00  0.00    +0.000 N 
ATOM     35  H   UNL     1       4.970   3.462  16.639  0.00  0.00    +0.000 HD
BRANCH  34  36
ATOM     36  C   UNL     1       6.817   4.378  16.730  0.00  0.00    +0.000 C 
BRANCH  36  37
ATOM     37  C   UNL     1       6.806   4.330  15.200  0.00  0.00    +0.000 C 
BRANCH  37  38
ATOM     38  O   UNL     1       7.584   5.394  14.656  0.00  0.00    +0.000 OA
ATOM     39  H   UNL     1       8.512   5.140  14.805  0.00  0.00    +0.000 HD
ENDBRANCH  37  38
ENDBRANCH  36  37
ENDBRANCH  34  36
ENDBRANCH  31  34
ENDBRANCH  25  28
ENDBRANCH   6  24
TORSDOF 8
ENDMDL
MODEL 5
REMARK VINA RESULT:      -7.7      1.075      1.411
REMARK  Name = 
REMARK  8 active torsions:
REMARK  status: ('A' for Active; 'I' for Inactive)
REMARK    1  A    between atoms: C_2  and  C_4
REMARK    2  A    between atoms: N_7  and  C_8
REMARK    3  A    between atoms: C_20  and  N_21
REMARK    4  A    between atoms: C_22  and  C_24
REMARK    5  A    between atoms: C_27  and  N_28
REMARK    6  A    between atoms: N_28  and  C_29
REMARK    7  A    between atoms: C_29  and  C_30
REMARK    8  A    between atoms: C_30  and  O_31
REMARK                            x       y       z     vdW  Elec       q    Type
REMARK                         _______ _______ _______ _____ _____    ______ ____
ROOT
ATOM      1  C   UNL     1       0.841  10.029  19.785  0.00  0.00    +0.000 A 
ATOM      2  N   UNL     1       1.641   8.887  19.689  0.00  0.00    +0.000 NA
ATOM      3  C   UNL     1       1.292   7.998  20.588  0.00  0.00    +0.000 A 
ATOM      4  N   UNL     1       1.908   6.811  20.792  0.00  0.00    +0.000 N 
ATOM      5  S   UNL     1      -0.046   8.450  21.546  0.00  0.00    +0.000 S 
ATOM      6  C   UNL     1      -0.147   9.966  20.757  0.00  0.00    +0.000 A 
ATOM      7  H   UNL     1       1.584   6.249  21.572  0.00  0.00    +0.000 HD
ENDROOT
BRANCH   4   8
ATOM      8  C   UNL     1       2.481   6.037  19.765  0.00  0.00    +0.000 A 
ATOM      9  C   UNL     1       1.846   4.858  19.368  0.00  0.00    +0.000 A 
ATOM     10  C   UNL     1       2.394   4.059  18.360  0.00  0.00    +0.000 A 
ATOM     11  C   UNL     1       3.580   4.434  17.713  0.00  0.00    +0.000 A 
ATOM     12  C   UNL     1       4.140   3.653  16.689  0.00  0.00    +0.000 A 
ATOM     13  C   UNL     1       5.317   4.055  16.052  0.00  0.00    +0.000 A 
ATOM     14  C   UNL     1       5.935   5.235  16.439  0.00  0.00    +0.000 A 
ATOM     15  F   UNL     1       7.063   5.618  15.827  0.00  0.00    +0.000 F 
ATOM     16  C   UNL     1       5.406   6.024  17.453  0.00  0.00    +0.000 A 
ATOM     17  C   UNL     1       4.225   5.631  18.100  0.00  0.00    +0.000 A 
ATOM     18  C   UNL     1       3.671   6.410  19.123  0.00  0.00    +0.000 A 
ENDBRANCH   4   8
BRANCH   1  20
ATOM     19  N   UNL     1       1.867  10.824  17.818  0.00  0.00    +0.000 N 
ATOM     20  C   UNL     1       1.128  11.167  18.920  0.00  0.00    +0.000 C 
ATOM     21  O   UNL     1       0.771  12.316  19.149  0.00  0.00    +0.000 OA
ATOM     22  H   UNL     1       2.184  11.523  17.166  0.00  0.00    +0.000 HD
ATOM     23  H   UNL     1       2.163   9.857  17.714  0.00  0.00    +0.000 HD
ENDBRANCH   1  20
BRANCH   6  24
ATOM     24  N   UNL     1      -1.129  10.900  21.095  0.00  0.00    +0.000 N 
ATOM     25  C   UNL     1      -1.284  11.419  22.373  0.00  0.00    +0.000 C 
ATOM     26  O   UNL     1      -0.523  11.229  23.320  0.00  0.00    +0.000 OA
ATOM     27  H   UNL     1      -1.706  11.235  20.329  0.00  0.00    +0.000 HD
BRANCH  25  28
ATOM     28  C   UNL     1      -2.455  12.293  22.656  0.00  0.00    +0.000 A 
ATOM     29  C   UNL     1      -2.821  13.178  21.630  0.00  0.00    +0.000 A 
ATOM     30  C   UNL     1      -3.959  13.977  21.735  0.00  0.00    +0.000 A 
ATOM     31  C   UNL     1      -4.780  13.897  22.857  0.00  0.00    +0.000 A 
ATOM     32  C   UNL     1      -4.380  13.054  23.908  0.00  0.00    +0.000 A 
ATOM     33  C   UNL     1      -3.232  12.244  23.814  0.00  0.00    +0.000 A 
BRANCH  31  34
ATOM     34  N   UNL     1      -5.943  14.672  23.021  0.00  0.00    +0.000 N 
ATOM     35  H   UNL     1      -6.280  14.530  23.975  0.00  0.00    +0.000 HD
BRANCH  34  36
ATOM     36  C   UNL     1      -5.834  16.115  22.731  0.00  0.00    +0.000 C 
BRANCH  36  37
ATOM     37  C   UNL     1      -5.881  16.922  24.030  0.00  0.00    +0.000 C 
BRANCH  37  38
ATOM     38  O   UNL     1      -4.957  16.400  24.983  0.00  0.00    +0.000 OA
ATOM     39  H   UNL     1      -4.084  16.724  24.701  0.00  0.00    +0.000 HD
ENDBRANCH  37  38
ENDBRANCH  36  37
ENDBRANCH  34  36
ENDBRANCH  31  34
ENDBRANCH  25  28
ENDBRANCH   6  24
TORSDOF 8
ENDMDL
MODEL 6
REMARK VINA RESULT:      -7.6      4.330     11.761
REMARK  Name = 
REMARK  8 active torsions:
REMARK  status: ('A' for Active; 'I' for Inactive)
REMARK    1  A    between atoms: C_2  and  C_4
REMARK    2  A    between atoms: N_7  and  C_8
REMARK    3  A    between atoms: C_20  and  N_21
REMARK    4  A    between atoms: C_22  and  C_24
REMARK    5  A    between atoms: C_27  and  N_28
REMARK    6  A    between atoms: N_28  and  C_29
REMARK    7  A    between atoms: C_29  and  C_30
REMARK    8  A    between atoms: C_30  and  O_31
REMARK                            x       y       z     vdW  Elec       q    Type
REMARK                         _______ _______ _______ _____ _____    ______ ____
ROOT
ATOM      1  C   UNL     1      -0.298  10.036  19.764  0.00  0.00    +0.000 A 
ATOM      2  N   UNL     1      -1.021  10.737  20.734  0.00  0.00    +0.000 NA
ATOM      3  C   UNL     1      -0.543  10.500  21.931  0.00  0.00    +0.000 A 
ATOM      4  N   UNL     1      -1.056  10.983  23.086  0.00  0.00    +0.000 N 
ATOM      5  S   UNL     1       0.829   9.485  21.958  0.00  0.00    +0.000 S 
ATOM      6  C   UNL     1       0.763   9.290  20.258  0.00  0.00    +0.000 A 
ATOM      7  H   UNL     1      -0.636  10.660  23.951  0.00  0.00    +0.000 HD
ENDROOT
BRANCH   4   8
ATOM      8  C   UNL     1      -1.650  12.253  23.212  0.00  0.00    +0.000 A 
ATOM      9  C   UNL     1      -0.848  13.392  23.102  0.00  0.00    +0.000 A 
ATOM     10  C   UNL     1      -1.403  14.669  23.233  0.00  0.00    +0.000 A 
ATOM     11  C   UNL     1      -2.777  14.834  23.455  0.00  0.00    +0.000 A 
ATOM     12  C   UNL     1      -3.357  16.107  23.577  0.00  0.00    +0.000 A 
ATOM     13  C   UNL     1      -4.731  16.245  23.787  0.00  0.00    +0.000 A 
ATOM     14  C   UNL     1      -5.526  15.112  23.878  0.00  0.00    +0.000 A 
ATOM     15  F   UNL     1      -6.843  15.247  24.080  0.00  0.00    +0.000 F 
ATOM     16  C   UNL     1      -4.978  13.840  23.769  0.00  0.00    +0.000 A 
ATOM     17  C   UNL     1      -3.600  13.688  23.557  0.00  0.00    +0.000 A 
ATOM     18  C   UNL     1      -3.024  12.417  23.441  0.00  0.00    +0.000 A 
ENDBRANCH   4   8
BRANCH   1  20
ATOM     19  N   UNL     1      -1.928  10.752  18.221  0.00  0.00    +0.000 N 
ATOM     20  C   UNL     1      -0.729  10.107  18.373  0.00  0.00    +0.000 C 
ATOM     21  O   UNL     1      -0.107   9.628  17.433  0.00  0.00    +0.000 OA
ATOM     22  H   UNL     1      -2.371  10.822  17.319  0.00  0.00    +0.000 HD
ATOM     23  H   UNL     1      -2.408  11.088  19.052  0.00  0.00    +0.000 HD
ENDBRANCH   1  20
BRANCH   6  24
ATOM     24  N   UNL     1       1.699   8.509  19.577  0.00  0.00    +0.000 N 
ATOM     25  C   UNL     1       1.976   7.189  19.901  0.00  0.00    +0.000 C 
ATOM     26  O   UNL     1       1.364   6.510  20.725  0.00  0.00    +0.000 OA
ATOM     27  H   UNL     1       2.142   8.946  18.773  0.00  0.00    +0.000 HD
BRANCH  25  28
ATOM     28  C   UNL     1       3.097   6.498  19.208  0.00  0.00    +0.000 A 
ATOM     29  C   UNL     1       3.532   5.298  19.794  0.00  0.00    +0.000 A 
ATOM     30  C   UNL     1       4.506   4.507  19.186  0.00  0.00    +0.000 A 
ATOM     31  C   UNL     1       5.058   4.878  17.963  0.00  0.00    +0.000 A 
ATOM     32  C   UNL     1       4.664   6.108  17.407  0.00  0.00    +0.000 A 
ATOM     33  C   UNL     1       3.683   6.915  18.013  0.00  0.00    +0.000 A 
BRANCH  31  34
ATOM     34  N   UNL     1       6.040   4.122  17.296  0.00  0.00    +0.000 N 
ATOM     35  H   UNL     1       5.562   3.460  16.683  0.00  0.00    +0.000 HD
BRANCH  34  36
ATOM     36  C   UNL     1       7.060   4.871  16.536  0.00  0.00    +0.000 C 
BRANCH  36  37
ATOM     37  C   UNL     1       6.939   4.564  15.042  0.00  0.00    +0.000 C 
BRANCH  37  38
ATOM     38  O   UNL     1       7.738   5.462  14.275  0.00  0.00    +0.000 OA
ATOM     39  H   UNL     1       7.842   5.040  13.405  0.00  0.00    +0.000 HD
ENDBRANCH  37  38
ENDBRANCH  36  37
ENDBRANCH  34  36
ENDBRANCH  31  34
ENDBRANCH  25  28
ENDBRANCH   6  24
TORSDOF 8
ENDMDL
MODEL 7
REMARK VINA RESULT:      -7.6      2.379      2.920
REMARK  Name = 
REMARK  8 active torsions:
REMARK  status: ('A' for Active; 'I' for Inactive)
REMARK    1  A    between atoms: C_2  and  C_4
REMARK    2  A    between atoms: N_7  and  C_8
REMARK    3  A    between atoms: C_20  and  N_21
REMARK    4  A    between atoms: C_22  and  C_24
REMARK    5  A    between atoms: C_27  and  N_28
REMARK    6  A    between atoms: N_28  and  C_29
REMARK    7  A    between atoms: C_29  and  C_30
REMARK    8  A    between atoms: C_30  and  O_31
REMARK                            x       y       z     vdW  Elec       q    Type
REMARK                         _______ _______ _______ _____ _____    ______ ____
ROOT
ATOM      1  C   UNL     1      -0.257  10.611  19.850  0.00  0.00    +0.000 A 
ATOM      2  N   UNL     1       0.646   9.554  19.696  0.00  0.00    +0.000 NA
ATOM      3  C   UNL     1       0.975   9.052  20.862  0.00  0.00    +0.000 A 
ATOM      4  N   UNL     1       1.871   8.058  21.058  0.00  0.00    +0.000 N 
ATOM      5  S   UNL     1       0.178   9.767  22.191  0.00  0.00    +0.000 S 
ATOM      6  C   UNL     1      -0.630  10.871  21.161  0.00  0.00    +0.000 A 
ATOM      7  H   UNL     1       2.091   7.815  22.019  0.00  0.00    +0.000 HD
ENDROOT
BRANCH   4   8
ATOM      8  C   UNL     1       2.060   6.983  20.169  0.00  0.00    +0.000 A 
ATOM      9  C   UNL     1       2.658   7.224  18.929  0.00  0.00    +0.000 A 
ATOM     10  C   UNL     1       2.850   6.182  18.017  0.00  0.00    +0.000 A 
ATOM     11  C   UNL     1       2.466   4.871  18.335  0.00  0.00    +0.000 A 
ATOM     12  C   UNL     1       2.662   3.808  17.438  0.00  0.00    +0.000 A 
ATOM     13  C   UNL     1       2.281   2.509  17.783  0.00  0.00    +0.000 A 
ATOM     14  C   UNL     1       1.702   2.272  19.022  0.00  0.00    +0.000 A 
ATOM     15  F   UNL     1       1.337   1.026  19.349  0.00  0.00    +0.000 F 
ATOM     16  C   UNL     1       1.491   3.306  19.925  0.00  0.00    +0.000 A 
ATOM     17  C   UNL     1       1.870   4.615  19.591  0.00  0.00    +0.000 A 
ATOM     18  C   UNL     1       1.669   5.674  20.485  0.00  0.00    +0.000 A 
ENDBRANCH   4   8
BRANCH   1  20
ATOM     19  N   UNL     1      -0.843  10.554  17.568  0.00  0.00    +0.000 N 
ATOM     20  C   UNL     1      -0.681  11.354  18.669  0.00  0.00    +0.000 C 
ATOM     21  O   UNL     1      -0.859  12.565  18.643  0.00  0.00    +0.000 OA
ATOM     22  H   UNL     1      -1.079  10.946  16.671  0.00  0.00    +0.000 HD
ATOM     23  H   UNL     1      -0.638   9.562  17.654  0.00  0.00    +0.000 HD
ENDBRANCH   1  20
BRANCH   6  24
ATOM     24  N   UNL     1      -1.525  11.816  21.664  0.00  0.00    +0.000 N 
ATOM     25  C   UNL     1      -1.128  12.992  22.285  0.00  0.00    +0.000 C 
ATOM     26  O   UNL     1       0.027  13.407  22.362  0.00  0.00    +0.000 OA
ATOM     27  H   UNL     1      -2.510  11.627  21.501  0.00  0.00    +0.000 HD
BRANCH  25  28
ATOM     28  C   UNL     1      -2.162  13.856  22.918  0.00  0.00    +0.000 A 
ATOM     29  C   UNL     1      -3.386  13.945  22.234  0.00  0.00    +0.000 A 
ATOM     30  C   UNL     1      -4.467  14.642  22.774  0.00  0.00    +0.000 A 
ATOM     31  C   UNL     1      -4.366  15.249  24.023  0.00  0.00    +0.000 A 
ATOM     32  C   UNL     1      -3.123  15.208  24.678  0.00  0.00    +0.000 A 
ATOM     33  C   UNL     1      -2.025  14.509  24.142  0.00  0.00    +0.000 A 
BRANCH  31  34
ATOM     34  N   UNL     1      -5.420  15.962  24.624  0.00  0.00    +0.000 N 
ATOM     35  H   UNL     1      -5.013  16.740  25.145  0.00  0.00    +0.000 HD
BRANCH  34  36
ATOM     36  C   UNL     1      -6.491  16.452  23.735  0.00  0.00    +0.000 C 
BRANCH  36  37
ATOM     37  C   UNL     1      -6.336  17.957  23.499  0.00  0.00    +0.000 C 
BRANCH  37  38
ATOM     38  O   UNL     1      -6.035  18.631  24.719  0.00  0.00    +0.000 OA
ATOM     39  H   UNL     1      -6.703  18.324  25.357  0.00  0.00    +0.000 HD
ENDBRANCH  37  38
ENDBRANCH  36  37
ENDBRANCH  34  36
ENDBRANCH  31  34
ENDBRANCH  25  28
ENDBRANCH   6  24
TORSDOF 8
ENDMDL
MODEL 8
REMARK VINA RESULT:      -7.6      1.556      1.968
REMARK  Name = 
REMARK  8 active torsions:
REMARK  status: ('A' for Active; 'I' for Inactive)
REMARK    1  A    between atoms: C_2  and  C_4
REMARK    2  A    between atoms: N_7  and  C_8
REMARK    3  A    between atoms: C_20  and  N_21
REMARK    4  A    between atoms: C_22  and  C_24
REMARK    5  A    between atoms: C_27  and  N_28
REMARK    6  A    between atoms: N_28  and  C_29
REMARK    7  A    between atoms: C_29  and  C_30
REMARK    8  A    between atoms: C_30  and  O_31
REMARK                            x       y       z     vdW  Elec       q    Type
REMARK                         _______ _______ _______ _____ _____    ______ ____
ROOT
ATOM      1  C   UNL     1       0.409  10.402  19.886  0.00  0.00    +0.000 A 
ATOM      2  N   UNL     1       1.264   9.298  19.822  0.00  0.00    +0.000 NA
ATOM      3  C   UNL     1       1.043   8.482  20.824  0.00  0.00    +0.000 A 
ATOM      4  N   UNL     1       1.742   7.352  21.079  0.00  0.00    +0.000 N 
ATOM      5  S   UNL     1      -0.234   8.953  21.853  0.00  0.00    +0.000 S 
ATOM      6  C   UNL     1      -0.489  10.381  20.944  0.00  0.00    +0.000 A 
ATOM      7  H   UNL     1       1.518   6.850  21.932  0.00  0.00    +0.000 HD
ENDROOT
BRANCH   4   8
ATOM      8  C   UNL     1       2.272   6.514  20.079  0.00  0.00    +0.000 A 
ATOM      9  C   UNL     1       2.724   7.083  18.885  0.00  0.00    +0.000 A 
ATOM     10  C   UNL     1       3.245   6.280  17.866  0.00  0.00    +0.000 A 
ATOM     11  C   UNL     1       3.346   4.890  18.030  0.00  0.00    +0.000 A 
ATOM     12  C   UNL     1       3.879   4.067  17.025  0.00  0.00    +0.000 A 
ATOM     13  C   UNL     1       3.979   2.687  17.217  0.00  0.00    +0.000 A 
ATOM     14  C   UNL     1       3.546   2.129  18.410  0.00  0.00    +0.000 A 
ATOM     15  F   UNL     1       3.642   0.805  18.591  0.00  0.00    +0.000 F 
ATOM     16  C   UNL     1       3.008   2.919  19.419  0.00  0.00    +0.000 A 
ATOM     17  C   UNL     1       2.902   4.306  19.239  0.00  0.00    +0.000 A 
ATOM     18  C   UNL     1       2.367   5.124  20.241  0.00  0.00    +0.000 A 
ENDBRANCH   4   8
BRANCH   1  20
ATOM     19  N   UNL     1       1.539  11.207  17.981  0.00  0.00    +0.000 N 
ATOM     20  C   UNL     1       0.556  11.467  18.900  0.00  0.00    +0.000 C 
ATOM     21  O   UNL     1      -0.107  12.496  18.893  0.00  0.00    +0.000 OA
ATOM     22  H   UNL     1       1.785  11.885  17.278  0.00  0.00    +0.000 HD
ATOM     23  H   UNL     1       2.077  10.350  18.074  0.00  0.00    +0.000 HD
ENDBRANCH   1  20
BRANCH   6  24
ATOM     24  N   UNL     1      -1.492  11.292  21.282  0.00  0.00    +0.000 N 
ATOM     25  C   UNL     1      -1.444  12.101  22.408  0.00  0.00    +0.000 C 
ATOM     26  O   UNL     1      -0.484  12.213  23.169  0.00  0.00    +0.000 OA
ATOM     27  H   UNL     1      -2.256  11.380  20.617  0.00  0.00    +0.000 HD
BRANCH  25  28
ATOM     28  C   UNL     1      -2.633  12.925  22.754  0.00  0.00    +0.000 A 
ATOM     29  C   UNL     1      -3.516  12.363  23.690  0.00  0.00    +0.000 A 
ATOM     30  C   UNL     1      -4.613  13.078  24.170  0.00  0.00    +0.000 A 
ATOM     31  C   UNL     1      -4.847  14.384  23.748  0.00  0.00    +0.000 A 
ATOM     32  C   UNL     1      -3.997  14.923  22.767  0.00  0.00    +0.000 A 
ATOM     33  C   UNL     1      -2.887  14.211  22.275  0.00  0.00    +0.000 A 
BRANCH  31  34
ATOM     34  N   UNL     1      -5.933  15.160  24.197  0.00  0.00    +0.000 N 
ATOM     35  H   UNL     1      -5.843  16.090  23.784  0.00  0.00    +0.000 HD
BRANCH  34  36
ATOM     36  C   UNL     1      -7.286  14.624  23.953  0.00  0.00    +0.000 C 
BRANCH  36  37
ATOM     37  C   UNL     1      -7.788  15.061  22.575  0.00  0.00    +0.000 C 
BRANCH  37  38
ATOM     38  O   UNL     1      -7.654  14.002  21.630  0.00  0.00    +0.000 OA
ATOM     39  H   UNL     1      -7.182  13.292  22.100  0.00  0.00    +0.000 HD
ENDBRANCH  37  38
ENDBRANCH  36  37
ENDBRANCH  34  36
ENDBRANCH  31  34
ENDBRANCH  25  28
ENDBRANCH   6  24
TORSDOF 8
ENDMDL
MODEL 9
REMARK VINA RESULT:      -7.6      1.395      1.523
REMARK  Name = 
REMARK  8 active torsions:
REMARK  status: ('A' for Active; 'I' for Inactive)
REMARK    1  A    between atoms: C_2  and  C_4
REMARK    2  A    between atoms: N_7  and  C_8
REMARK    3  A    between atoms: C_20  and  N_21
REMARK    4  A    between atoms: C_22  and  C_24
REMARK    5  A    between atoms: C_27  and  N_28
REMARK    6  A    between atoms: N_28  and  C_29
REMARK    7  A    between atoms: C_29  and  C_30
REMARK    8  A    between atoms: C_30  and  O_31
REMARK                            x       y       z     vdW  Elec       q    Type
REMARK                         _______ _______ _______ _____ _____    ______ ____
ROOT
ATOM      1  C   UNL     1       0.798   9.936  19.661  0.00  0.00    +0.000 A 
ATOM      2  N   UNL     1       1.660   8.846  19.515  0.00  0.00    +0.000 NA
ATOM      3  C   UNL     1       1.499   7.992  20.498  0.00  0.00    +0.000 A 
ATOM      4  N   UNL     1       2.222   6.863  20.677  0.00  0.00    +0.000 N 
ATOM      5  S   UNL     1       0.270   8.411  21.604  0.00  0.00    +0.000 S 
ATOM      6  C   UNL     1      -0.046   9.867  20.760  0.00  0.00    +0.000 A 
ATOM      7  H   UNL     1       2.046   6.329  21.522  0.00  0.00    +0.000 HD
ENDROOT
BRANCH   4   8
ATOM      8  C   UNL     1       2.711   6.067  19.623  0.00  0.00    +0.000 A 
ATOM      9  C   UNL     1       1.833   5.210  18.955  0.00  0.00    +0.000 A 
ATOM     10  C   UNL     1       2.287   4.398  17.912  0.00  0.00    +0.000 A 
ATOM     11  C   UNL     1       3.627   4.441  17.500  0.00  0.00    +0.000 A 
ATOM     12  C   UNL     1       4.101   3.643  16.446  0.00  0.00    +0.000 A 
ATOM     13  C   UNL     1       5.438   3.714  16.049  0.00  0.00    +0.000 A 
ATOM     14  C   UNL     1       6.302   4.578  16.704  0.00  0.00    +0.000 A 
ATOM     15  F   UNL     1       7.584   4.643  16.320  0.00  0.00    +0.000 F 
ATOM     16  C   UNL     1       5.862   5.374  17.754  0.00  0.00    +0.000 A 
ATOM     17  C   UNL     1       4.522   5.313  18.163  0.00  0.00    +0.000 A 
ATOM     18  C   UNL     1       4.053   6.107  19.217  0.00  0.00    +0.000 A 
ENDBRANCH   4   8
BRANCH   1  20
ATOM     19  N   UNL     1      -0.201  11.101  17.873  0.00  0.00    +0.000 N 
ATOM     20  C   UNL     1       0.884  11.036  18.707  0.00  0.00    +0.000 C 
ATOM     21  O   UNL     1       1.826  11.815  18.635  0.00  0.00    +0.000 OA
ATOM     22  H   UNL     1      -0.245  11.778  17.129  0.00  0.00    +0.000 HD
ATOM     23  H   UNL     1      -0.927  10.395  17.964  0.00  0.00    +0.000 HD
ENDBRANCH   1  20
BRANCH   6  24
ATOM     24  N   UNL     1      -1.041  10.752  21.180  0.00  0.00    +0.000 N 
ATOM     25  C   UNL     1      -0.777  11.931  21.863  0.00  0.00    +0.000 C 
ATOM     26  O   UNL     1       0.339  12.403  22.073  0.00  0.00    +0.000 OA
ATOM     27  H   UNL     1      -1.990  10.517  20.906  0.00  0.00    +0.000 HD
BRANCH  25  28
ATOM     28  C   UNL     1      -1.919  12.725  22.394  0.00  0.00    +0.000 A 
ATOM     29  C   UNL     1      -2.714  12.083  23.357  0.00  0.00    +0.000 A 
ATOM     30  C   UNL     1      -3.752  12.755  24.002  0.00  0.00    +0.000 A 
ATOM     31  C   UNL     1      -4.010  14.095  23.724  0.00  0.00    +0.000 A 
ATOM     32  C   UNL     1      -3.251  14.718  22.719  0.00  0.00    +0.000 A 
ATOM     33  C   UNL     1      -2.202  14.049  22.059  0.00  0.00    +0.000 A 
BRANCH  31  34
ATOM     34  N   UNL     1      -5.038  14.830  24.343  0.00  0.00    +0.000 N 
ATOM     35  H   UNL     1      -4.965  14.680  25.351  0.00  0.00    +0.000 HD
BRANCH  34  36
ATOM     36  C   UNL     1      -5.101  16.274  24.048  0.00  0.00    +0.000 C 
BRANCH  36  37
ATOM     37  C   UNL     1      -4.319  17.065  25.099  0.00  0.00    +0.000 C 
BRANCH  37  38
ATOM     38  O   UNL     1      -5.184  17.937  25.822  0.00  0.00    +0.000 OA
ATOM     39  H   UNL     1      -5.960  18.067  25.250  0.00  0.00    +0.000 HD
ENDBRANCH  37  38
ENDBRANCH  36  37
ENDBRANCH  34  36
ENDBRANCH  31  34
ENDBRANCH  25  28
ENDBRANCH   6  24
TORSDOF 8
ENDMDL
