MODEL 1
REMARK VINA RESULT:      -7.5      0.000      0.000
REMARK  Name = 
REMARK  11 active torsions:
REMARK  status: ('A' for Active; 'I' for Inactive)
REMARK    1  A    between atoms: C_1  and  O_2
REMARK    2  A    between atoms: O_2  and  C_3
REMARK    3  A    between atoms: C_8  and  N_9
REMARK    4  A    between atoms: C_10  and  C_12
REMARK    5  A    between atoms: C_12  and  C_13
REMARK    6  A    between atoms: C_13  and  C_14
REMARK    7  A    between atoms: C_14  and  O_16
REMARK    8  A    between atoms: O_16  and  C_17
REMARK    9  A    between atoms: C_17  and  C_18
REMARK   10  A    between atoms: C_17  and  C_19
REMARK   11  A    between atoms: C_19  and  C_21
REMARK                            x       y       z     vdW  Elec       q    Type
REMARK                         _______ _______ _______ _____ _____    ______ ____
ROOT
ATOM      1  C   UNL     1       8.271   7.031  18.739  0.00  0.00    +0.000 C 
ENDROOT
BRANCH   1   2
ATOM      2  C   UNL     1       7.213   5.966  18.839  0.00  0.00    +0.000 C 
ATOM      3  O   UNL     1       6.901   5.396  19.876  0.00  0.00    +0.000 OA
BRANCH   2   4
ATOM      4  O   UNL     1       6.635   5.742  17.625  0.00  0.00    +0.000 OA
BRANCH   4   5
ATOM      5  C   UNL     1       5.214   5.964  17.565  0.00  0.00    +0.000 C 
ATOM      6  C   UNL     1       4.885   6.709  16.273  0.00  0.00    +0.000 C 
BRANCH   5   7
ATOM      7  C   UNL     1       4.493   4.610  17.625  0.00  0.00    +0.000 C 
ATOM      8  O   UNL     1       4.814   3.649  16.927  0.00  0.00    +0.000 OA
BRANCH   7   9
ATOM      9  C   UNL     1       3.336   4.453  18.556  0.00  0.00    +0.000 A 
ATOM     10  C   UNL     1       3.299   5.085  19.804  0.00  0.00    +0.000 A 
ATOM     11  C   UNL     1       2.198   4.904  20.646  0.00  0.00    +0.000 A 
ATOM     12  C   UNL     1       1.135   4.096  20.247  0.00  0.00    +0.000 A 
ATOM     13  C   UNL     1       1.158   3.477  18.999  0.00  0.00    +0.000 A 
ATOM     14  C   UNL     1       2.253   3.661  18.151  0.00  0.00    +0.000 A 
ENDBRANCH   7   9
ENDBRANCH   5   7
ENDBRANCH   4   5
ENDBRANCH   2   4
ENDBRANCH   1   2
BRANCH   1  15
ATOM     15  C   UNL     1       7.945   8.039  17.630  0.00  0.00    +0.000 C 
BRANCH  15  17
ATOM     16  N   UNL     1       9.170   9.517  19.136  0.00  0.00    +0.000 N 
ATOM     17  C   UNL     1       8.266   9.452  18.084  0.00  0.00    +0.000 C 
ATOM     18  O   UNL     1       7.741  10.413  17.536  0.00  0.00    +0.000 OA
ATOM     19  H   UNL     1       9.705   8.692  19.383  0.00  0.00    +0.000 HD
BRANCH  16  25
ATOM     20  C   UNL     1      10.470  11.588  19.302  0.00  0.00    +0.000 A 
ATOM     21  C   UNL     1      10.868  12.717  20.037  0.00  0.00    +0.000 A 
ATOM     22  C   UNL     1      10.299  12.998  21.280  0.00  0.00    +0.000 A 
ATOM     23  C   UNL     1       9.347  12.140  21.810  0.00  0.00    +0.000 A 
ATOM     24  C   UNL     1       8.979  10.988  21.109  0.00  0.00    +0.000 A 
ATOM     25  C   UNL     1       9.525  10.695  19.852  0.00  0.00    +0.000 A 
BRANCH  20  27
ATOM     26  C   UNL     1      11.320  12.468  17.278  0.00  0.00    +0.000 C 
ATOM     27  O   UNL     1      10.956  11.314  18.042  0.00  0.00    +0.000 OA
ENDBRANCH  20  27
ENDBRANCH  16  25
ENDBRANCH  15  17
ENDBRANCH   1  15
TORSDOF 9
ENDMDL
MODEL 2
REMARK VINA RESULT:      -7.5      1.494      2.239
REMARK  Name = 
REMARK  11 active torsions:
REMARK  status: ('A' for Active; 'I' for Inactive)
REMARK    1  A    between atoms: C_1  and  O_2
REMARK    2  A    between atoms: O_2  and  C_3
REMARK    3  A    between atoms: C_8  and  N_9
REMARK    4  A    between atoms: C_10  and  C_12
REMARK    5  A    between atoms: C_12  and  C_13
REMARK    6  A    between atoms: C_13  and  C_14
REMARK    7  A    between atoms: C_14  and  O_16
REMARK    8  A    between atoms: O_16  and  C_17
REMARK    9  A    between atoms: C_17  and  C_18
REMARK   10  A    between atoms: C_17  and  C_19
REMARK   11  A    between atoms: C_19  and  C_21
REMARK                            x       y       z     vdW  Elec       q    Type
REMARK                         _______ _______ _______ _____ _____    ______ ____
ROOT
ATOM      1  C   UNL     1       7.441   6.657  17.644  0.00  0.00    +0.000 C 
ENDROOT
BRANCH   1   2
ATOM      2  C   UNL     1       7.117   5.251  18.068  0.00  0.00    +0.000 C 
ATOM      3  O   UNL     1       7.944   4.359  18.195  0.00  0.00    +0.000 OA
BRANCH   2   4
ATOM      4  O   UNL     1       5.783   5.116  18.315  0.00  0.00    +0.000 OA
BRANCH   4   5
ATOM      5  C   UNL     1       4.911   5.477  17.229  0.00  0.00    +0.000 C 
ATOM      6  C   UNL     1       4.614   4.229  16.399  0.00  0.00    +0.000 C 
BRANCH   5   7
ATOM      7  C   UNL     1       3.623   6.083  17.801  0.00  0.00    +0.000 C 
ATOM      8  O   UNL     1       3.295   7.255  17.617  0.00  0.00    +0.000 OA
BRANCH   7   9
ATOM      9  C   UNL     1       2.734   5.223  18.637  0.00  0.00    +0.000 A 
ATOM     10  C   UNL     1       2.730   5.300  20.036  0.00  0.00    +0.000 A 
ATOM     11  C   UNL     1       1.885   4.471  20.779  0.00  0.00    +0.000 A 
ATOM     12  C   UNL     1       1.044   3.567  20.133  0.00  0.00    +0.000 A 
ATOM     13  C   UNL     1       1.031   3.497  18.741  0.00  0.00    +0.000 A 
ATOM     14  C   UNL     1       1.868   4.328  17.994  0.00  0.00    +0.000 A 
ENDBRANCH   7   9
ENDBRANCH   5   7
ENDBRANCH   4   5
ENDBRANCH   2   4
ENDBRANCH   1   2
BRANCH   1  15
ATOM     15  C   UNL     1       8.258   7.391  18.715  0.00  0.00    +0.000 C 
BRANCH  15  17
ATOM     16  N   UNL     1       9.373   9.530  19.081  0.00  0.00    +0.000 N 
ATOM     17  C   UNL     1       8.378   8.865  18.376  0.00  0.00    +0.000 C 
ATOM     18  O   UNL     1       7.632   9.373  17.548  0.00  0.00    +0.000 OA
ATOM     19  H   UNL     1      10.069   8.991  19.584  0.00  0.00    +0.000 HD
BRANCH  16  25
ATOM     20  C   UNL     1       9.325  11.693  20.232  0.00  0.00    +0.000 A 
ATOM     21  C   UNL     1       9.487  13.088  20.203  0.00  0.00    +0.000 A 
ATOM     22  C   UNL     1       9.967  13.729  19.061  0.00  0.00    +0.000 A 
ATOM     23  C   UNL     1      10.267  12.984  17.929  0.00  0.00    +0.000 A 
ATOM     24  C   UNL     1      10.064  11.601  17.931  0.00  0.00    +0.000 A 
ATOM     25  C   UNL     1       9.598  10.935  19.072  0.00  0.00    +0.000 A 
BRANCH  20  27
ATOM     26  C   UNL     1       8.394  11.847  22.401  0.00  0.00    +0.000 C 
ATOM     27  O   UNL     1       8.922  11.016  21.362  0.00  0.00    +0.000 OA
ENDBRANCH  20  27
ENDBRANCH  16  25
ENDBRANCH  15  17
ENDBRANCH   1  15
TORSDOF 9
ENDMDL
MODEL 3
REMARK VINA RESULT:      -7.4      4.392      8.153
REMARK  Name = 
REMARK  11 active torsions:
REMARK  status: ('A' for Active; 'I' for Inactive)
REMARK    1  A    between atoms: C_1  and  O_2
REMARK    2  A    between atoms: O_2  and  C_3
REMARK    3  A    between atoms: C_8  and  N_9
REMARK    4  A    between atoms: C_10  and  C_12
REMARK    5  A    between atoms: C_12  and  C_13
REMARK    6  A    between atoms: C_13  and  C_14
REMARK    7  A    between atoms: C_14  and  O_16
REMARK    8  A    between atoms: O_16  and  C_17
REMARK    9  A    between atoms: C_17  and  C_18
REMARK   10  A    between atoms: C_17  and  C_19
REMARK   11  A    between atoms: C_19  and  C_21
REMARK                            x       y       z     vdW  Elec       q    Type
REMARK                         _______ _______ _______ _____ _____    ______ ____
ROOT
ATOM      1  C   UNL     1       7.065   6.300  17.854  0.00  0.00    +0.000 C 
ENDROOT
BRANCH   1   2
ATOM      2  C   UNL     1       7.620   5.270  16.909  0.00  0.00    +0.000 C 
ATOM      3  O   UNL     1       8.098   4.199  17.256  0.00  0.00    +0.000 OA
BRANCH   2   4
ATOM      4  O   UNL     1       7.493   5.682  15.615  0.00  0.00    +0.000 OA
BRANCH   4   5
ATOM      5  C   UNL     1       6.562   4.932  14.815  0.00  0.00    +0.000 C 
ATOM      6  C   UNL     1       5.216   5.654  14.818  0.00  0.00    +0.000 C 
BRANCH   5   7
ATOM      7  C   UNL     1       7.118   4.802  13.390  0.00  0.00    +0.000 C 
ATOM      8  O   UNL     1       7.951   5.578  12.922  0.00  0.00    +0.000 OA
BRANCH   7   9
ATOM      9  C   UNL     1       6.615   3.697  12.521  0.00  0.00    +0.000 A 
ATOM     10  C   UNL     1       5.249   3.506  12.282  0.00  0.00    +0.000 A 
ATOM     11  C   UNL     1       4.822   2.455  11.465  0.00  0.00    +0.000 A 
ATOM     12  C   UNL     1       5.754   1.594  10.886  0.00  0.00    +0.000 A 
ATOM     13  C   UNL     1       7.116   1.789  11.107  0.00  0.00    +0.000 A 
ATOM     14  C   UNL     1       7.547   2.842  11.916  0.00  0.00    +0.000 A 
ENDBRANCH   7   9
ENDBRANCH   5   7
ENDBRANCH   4   5
ENDBRANCH   2   4
ENDBRANCH   1   2
BRANCH   1  15
ATOM     15  C   UNL     1       6.904   5.732  19.270  0.00  0.00    +0.000 C 
BRANCH  15  17
ATOM     16  N   UNL     1       4.481   5.448  19.257  0.00  0.00    +0.000 N 
ATOM     17  C   UNL     1       5.707   4.801  19.337  0.00  0.00    +0.000 C 
ATOM     18  O   UNL     1       5.868   3.593  19.455  0.00  0.00    +0.000 OA
ATOM     19  H   UNL     1       4.449   6.415  18.952  0.00  0.00    +0.000 HD
BRANCH  16  25
ATOM     20  C   UNL     1       2.555   4.231  18.353  0.00  0.00    +0.000 A 
ATOM     21  C   UNL     1       1.272   3.687  18.527  0.00  0.00    +0.000 A 
ATOM     22  C   UNL     1       0.658   3.690  19.780  0.00  0.00    +0.000 A 
ATOM     23  C   UNL     1       1.309   4.258  20.864  0.00  0.00    +0.000 A 
ATOM     24  C   UNL     1       2.566   4.845  20.692  0.00  0.00    +0.000 A 
ATOM     25  C   UNL     1       3.209   4.840  19.447  0.00  0.00    +0.000 A 
BRANCH  20  27
ATOM     26  C   UNL     1       3.788   2.909  16.828  0.00  0.00    +0.000 C 
ATOM     27  O   UNL     1       3.224   4.185  17.150  0.00  0.00    +0.000 OA
ENDBRANCH  20  27
ENDBRANCH  16  25
ENDBRANCH  15  17
ENDBRANCH   1  15
TORSDOF 9
ENDMDL
MODEL 4
REMARK VINA RESULT:      -7.4      4.892      7.509
REMARK  Name = 
REMARK  11 active torsions:
REMARK  status: ('A' for Active; 'I' for Inactive)
REMARK    1  A    between atoms: C_1  and  O_2
REMARK    2  A    between atoms: O_2  and  C_3
REMARK    3  A    between atoms: C_8  and  N_9
REMARK    4  A    between atoms: C_10  and  C_12
REMARK    5  A    between atoms: C_12  and  C_13
REMARK    6  A    between atoms: C_13  and  C_14
REMARK    7  A    between atoms: C_14  and  O_16
REMARK    8  A    between atoms: O_16  and  C_17
REMARK    9  A    between atoms: C_17  and  C_18
REMARK   10  A    between atoms: C_17  and  C_19
REMARK   11  A    between atoms: C_19  and  C_21
REMARK                            x       y       z     vdW  Elec       q    Type
REMARK                         _______ _______ _______ _____ _____    ______ ____
ROOT
ATOM      1  C   UNL     1       2.599   6.737  19.817  0.00  0.00    +0.000 C 
ENDROOT
BRANCH   1   2
ATOM      2  C   UNL     1       2.042   5.340  19.805  0.00  0.00    +0.000 C 
ATOM      3  O   UNL     1       1.315   4.878  20.673  0.00  0.00    +0.000 OA
BRANCH   2   4
ATOM      4  O   UNL     1       2.438   4.670  18.686  0.00  0.00    +0.000 OA
BRANCH   4   5
ATOM      5  C   UNL     1       2.868   3.313  18.894  0.00  0.00    +0.000 C 
ATOM      6  C   UNL     1       2.460   2.475  17.684  0.00  0.00    +0.000 C 
BRANCH   5   7
ATOM      7  C   UNL     1       4.389   3.295  19.096  0.00  0.00    +0.000 C 
ATOM      8  O   UNL     1       4.951   2.537  19.885  0.00  0.00    +0.000 OA
BRANCH   7   9
ATOM      9  C   UNL     1       5.228   4.252  18.316  0.00  0.00    +0.000 A 
ATOM     10  C   UNL     1       5.247   4.251  16.916  0.00  0.00    +0.000 A 
ATOM     11  C   UNL     1       6.053   5.161  16.227  0.00  0.00    +0.000 A 
ATOM     12  C   UNL     1       6.840   6.073  16.929  0.00  0.00    +0.000 A 
ATOM     13  C   UNL     1       6.814   6.090  18.322  0.00  0.00    +0.000 A 
ATOM     14  C   UNL     1       6.004   5.188  19.015  0.00  0.00    +0.000 A 
ENDBRANCH   7   9
ENDBRANCH   5   7
ENDBRANCH   4   5
ENDBRANCH   2   4
ENDBRANCH   1   2
BRANCH   1  15
ATOM     15  C   UNL     1       2.647   7.332  18.404  0.00  0.00    +0.000 C 
BRANCH  15  17
ATOM     16  N   UNL     1       1.147   8.927  19.482  0.00  0.00    +0.000 N 
ATOM     17  C   UNL     1       1.935   8.672  18.367  0.00  0.00    +0.000 C 
ATOM     18  O   UNL     1       2.076   9.422  17.409  0.00  0.00    +0.000 OA
ATOM     19  H   UNL     1       1.255   8.349  20.308  0.00  0.00    +0.000 HD
BRANCH  16  25
ATOM     20  C   UNL     1       0.154  10.671  20.888  0.00  0.00    +0.000 A 
ATOM     21  C   UNL     1      -0.769  11.717  21.056  0.00  0.00    +0.000 A 
ATOM     22  C   UNL     1      -1.544  12.165  19.986  0.00  0.00    +0.000 A 
ATOM     23  C   UNL     1      -1.421  11.558  18.745  0.00  0.00    +0.000 A 
ATOM     24  C   UNL     1      -0.540  10.485  18.579  0.00  0.00    +0.000 A 
ATOM     25  C   UNL     1       0.259  10.028  19.635  0.00  0.00    +0.000 A 
BRANCH  20  27
ATOM     26  C   UNL     1       0.338   9.501  22.935  0.00  0.00    +0.000 C 
ATOM     27  O   UNL     1       0.986  10.247  21.900  0.00  0.00    +0.000 OA
ENDBRANCH  20  27
ENDBRANCH  16  25
ENDBRANCH  15  17
ENDBRANCH   1  15
TORSDOF 9
ENDMDL
MODEL 5
REMARK VINA RESULT:      -7.2      1.665      2.241
REMARK  Name = 
REMARK  11 active torsions:
REMARK  status: ('A' for Active; 'I' for Inactive)
REMARK    1  A    between atoms: C_1  and  O_2
REMARK    2  A    between atoms: O_2  and  C_3
REMARK    3  A    between atoms: C_8  and  N_9
REMARK    4  A    between atoms: C_10  and  C_12
REMARK    5  A    between atoms: C_12  and  C_13
REMARK    6  A    between atoms: C_13  and  C_14
REMARK    7  A    between atoms: C_14  and  O_16
REMARK    8  A    between atoms: O_16  and  C_17
REMARK    9  A    between atoms: C_17  and  C_18
REMARK   10  A    between atoms: C_17  and  C_19
REMARK   11  A    between atoms: C_19  and  C_21
REMARK                            x       y       z     vdW  Elec       q    Type
REMARK                         _______ _______ _______ _____ _____    ______ ____
ROOT
ATOM      1  C   UNL     1       7.298   6.874  17.776  0.00  0.00    +0.000 C 
ENDROOT
BRANCH   1   2
ATOM      2  C   UNL     1       6.868   5.924  16.691  0.00  0.00    +0.000 C 
ATOM      3  O   UNL     1       7.605   5.497  15.814  0.00  0.00    +0.000 OA
BRANCH   2   4
ATOM      4  O   UNL     1       5.555   5.587  16.836  0.00  0.00    +0.000 OA
BRANCH   4   5
ATOM      5  C   UNL     1       4.968   5.912  18.108  0.00  0.00    +0.000 C 
ATOM      6  C   UNL     1       3.639   6.627  17.871  0.00  0.00    +0.000 C 
BRANCH   5   7
ATOM      7  C   UNL     1       4.767   4.619  18.911  0.00  0.00    +0.000 C 
ATOM      8  O   UNL     1       5.702   3.938  19.331  0.00  0.00    +0.000 OA
BRANCH   7   9
ATOM      9  C   UNL     1       3.375   4.151  19.181  0.00  0.00    +0.000 A 
ATOM     10  C   UNL     1       2.664   3.370  18.261  0.00  0.00    +0.000 A 
ATOM     11  C   UNL     1       1.361   2.958  18.553  0.00  0.00    +0.000 A 
ATOM     12  C   UNL     1       0.764   3.322  19.759  0.00  0.00    +0.000 A 
ATOM     13  C   UNL     1       1.472   4.085  20.686  0.00  0.00    +0.000 A 
ATOM     14  C   UNL     1       2.777   4.492  20.402  0.00  0.00    +0.000 A 
ENDBRANCH   7   9
ENDBRANCH   5   7
ENDBRANCH   4   5
ENDBRANCH   2   4
ENDBRANCH   1   2
BRANCH   1  15
ATOM     15  C   UNL     1       7.558   8.279  17.219  0.00  0.00    +0.000 C 
BRANCH  15  17
ATOM     16  N   UNL     1       8.460  10.447  17.882  0.00  0.00    +0.000 N 
ATOM     17  C   UNL     1       8.379   9.097  18.199  0.00  0.00    +0.000 C 
ATOM     18  O   UNL     1       8.904   8.560  19.166  0.00  0.00    +0.000 OA
ATOM     19  H   UNL     1       7.828  10.833  17.189  0.00  0.00    +0.000 HD
BRANCH  16  25
ATOM     20  C   UNL     1       9.054  12.782  18.330  0.00  0.00    +0.000 A 
ATOM     21  C   UNL     1       9.907  13.725  18.927  0.00  0.00    +0.000 A 
ATOM     22  C   UNL     1      10.944  13.320  19.767  0.00  0.00    +0.000 A 
ATOM     23  C   UNL     1      11.153  11.969  20.000  0.00  0.00    +0.000 A 
ATOM     24  C   UNL     1      10.341  11.020  19.373  0.00  0.00    +0.000 A 
ATOM     25  C   UNL     1       9.284  11.404  18.537  0.00  0.00    +0.000 A 
BRANCH  20  27
ATOM     26  C   UNL     1       7.411  14.420  17.868  0.00  0.00    +0.000 C 
ATOM     27  O   UNL     1       7.977  13.144  17.551  0.00  0.00    +0.000 OA
ENDBRANCH  20  27
ENDBRANCH  16  25
ENDBRANCH  15  17
ENDBRANCH   1  15
TORSDOF 9
ENDMDL
MODEL 6
REMARK VINA RESULT:      -7.2      1.497      2.416
REMARK  Name = 
REMARK  11 active torsions:
REMARK  status: ('A' for Active; 'I' for Inactive)
REMARK    1  A    between atoms: C_1  and  O_2
REMARK    2  A    between atoms: O_2  and  C_3
REMARK    3  A    between atoms: C_8  and  N_9
REMARK    4  A    between atoms: C_10  and  C_12
REMARK    5  A    between atoms: C_12  and  C_13
REMARK    6  A    between atoms: C_13  and  C_14
REMARK    7  A    between atoms: C_14  and  O_16
REMARK    8  A    between atoms: O_16  and  C_17
REMARK    9  A    between atoms: C_17  and  C_18
REMARK   10  A    between atoms: C_17  and  C_19
REMARK   11  A    between atoms: C_19  and  C_21
REMARK                            x       y       z     vdW  Elec       q    Type
REMARK                         _______ _______ _______ _____ _____    ______ ____
ROOT
ATOM      1  C   UNL     1       7.258   7.056  17.640  0.00  0.00    +0.000 C 
ENDROOT
BRANCH   1   2
ATOM      2  C   UNL     1       6.152   6.473  16.805  0.00  0.00    +0.000 C 
ATOM      3  O   UNL     1       5.758   6.948  15.749  0.00  0.00    +0.000 OA
BRANCH   2   4
ATOM      4  O   UNL     1       5.668   5.331  17.372  0.00  0.00    +0.000 OA
BRANCH   4   5
ATOM      5  C   UNL     1       4.859   5.517  18.547  0.00  0.00    +0.000 C 
ATOM      6  C   UNL     1       3.559   6.213  18.146  0.00  0.00    +0.000 C 
BRANCH   5   7
ATOM      7  C   UNL     1       4.583   4.150  19.187  0.00  0.00    +0.000 C 
ATOM      8  O   UNL     1       5.476   3.359  19.489  0.00  0.00    +0.000 OA
BRANCH   7   9
ATOM      9  C   UNL     1       3.167   3.747  19.437  0.00  0.00    +0.000 A 
ATOM     10  C   UNL     1       2.481   4.131  20.596  0.00  0.00    +0.000 A 
ATOM     11  C   UNL     1       1.158   3.725  20.791  0.00  0.00    +0.000 A 
ATOM     12  C   UNL     1       0.517   2.938  19.836  0.00  0.00    +0.000 A 
ATOM     13  C   UNL     1       1.189   2.566  18.673  0.00  0.00    +0.000 A 
ATOM     14  C   UNL     1       2.508   2.975  18.469  0.00  0.00    +0.000 A 
ENDBRANCH   7   9
ENDBRANCH   5   7
ENDBRANCH   4   5
ENDBRANCH   2   4
ENDBRANCH   1   2
BRANCH   1  15
ATOM     15  C   UNL     1       7.327   8.581  17.491  0.00  0.00    +0.000 C 
BRANCH  15  17
ATOM     16  N   UNL     1       8.729  10.490  18.077  0.00  0.00    +0.000 N 
ATOM     17  C   UNL     1       8.472   9.146  18.313  0.00  0.00    +0.000 C 
ATOM     18  O   UNL     1       9.082   8.431  19.097  0.00  0.00    +0.000 OA
ATOM     19  H   UNL     1       8.046  11.045  17.574  0.00  0.00    +0.000 HD
BRANCH  16  25
ATOM     20  C   UNL     1       9.844  11.611  19.950  0.00  0.00    +0.000 A 
ATOM     21  C   UNL     1      10.904  12.390  20.443  0.00  0.00    +0.000 A 
ATOM     22  C   UNL     1      11.975  12.741  19.621  0.00  0.00    +0.000 A 
ATOM     23  C   UNL     1      11.985  12.337  18.294  0.00  0.00    +0.000 A 
ATOM     24  C   UNL     1      10.913  11.602  17.782  0.00  0.00    +0.000 A 
ATOM     25  C   UNL     1       9.834  11.225  18.592  0.00  0.00    +0.000 A 
BRANCH  20  27
ATOM     26  C   UNL     1       8.672  11.888  21.987  0.00  0.00    +0.000 C 
ATOM     27  O   UNL     1       8.804  11.184  20.747  0.00  0.00    +0.000 OA
ENDBRANCH  20  27
ENDBRANCH  16  25
ENDBRANCH  15  17
ENDBRANCH   1  15
TORSDOF 9
ENDMDL
MODEL 7
REMARK VINA RESULT:      -7.2      1.568      1.954
REMARK  Name = 
REMARK  11 active torsions:
REMARK  status: ('A' for Active; 'I' for Inactive)
REMARK    1  A    between atoms: C_1  and  O_2
REMARK    2  A    between atoms: O_2  and  C_3
REMARK    3  A    between atoms: C_8  and  N_9
REMARK    4  A    between atoms: C_10  and  C_12
REMARK    5  A    between atoms: C_12  and  C_13
REMARK    6  A    between atoms: C_13  and  C_14
REMARK    7  A    between atoms: C_14  and  O_16
REMARK    8  A    between atoms: O_16  and  C_17
REMARK    9  A    between atoms: C_17  and  C_18
REMARK   10  A    between atoms: C_17  and  C_19
REMARK   11  A    between atoms: C_19  and  C_21
REMARK                            x       y       z     vdW  Elec       q    Type
REMARK                         _______ _______ _______ _____ _____    ______ ____
ROOT
ATOM      1  C   UNL     1       7.771   7.305  18.124  0.00  0.00    +0.000 C 
ENDROOT
BRANCH   1   2
ATOM      2  C   UNL     1       7.284   6.304  17.112  0.00  0.00    +0.000 C 
ATOM      3  O   UNL     1       7.618   6.290  15.936  0.00  0.00    +0.000 OA
BRANCH   2   4
ATOM      4  O   UNL     1       6.440   5.403  17.691  0.00  0.00    +0.000 OA
BRANCH   4   5
ATOM      5  C   UNL     1       5.056   5.791  17.739  0.00  0.00    +0.000 C 
ATOM      6  C   UNL     1       4.764   6.725  16.566  0.00  0.00    +0.000 C 
BRANCH   5   7
ATOM      7  C   UNL     1       4.181   4.532  17.677  0.00  0.00    +0.000 C 
ATOM      8  O   UNL     1       4.358   3.632  16.857  0.00  0.00    +0.000 OA
BRANCH   7   9
ATOM      9  C   UNL     1       3.047   4.396  18.640  0.00  0.00    +0.000 A 
ATOM     10  C   UNL     1       2.915   5.237  19.752  0.00  0.00    +0.000 A 
ATOM     11  C   UNL     1       1.841   5.070  20.630  0.00  0.00    +0.000 A 
ATOM     12  C   UNL     1       0.899   4.069  20.404  0.00  0.00    +0.000 A 
ATOM     13  C   UNL     1       1.015   3.239  19.290  0.00  0.00    +0.000 A 
ATOM     14  C   UNL     1       2.082   3.407  18.405  0.00  0.00    +0.000 A 
ENDBRANCH   7   9
ENDBRANCH   5   7
ENDBRANCH   4   5
ENDBRANCH   2   4
ENDBRANCH   1   2
BRANCH   1  15
ATOM     15  C   UNL     1       7.941   8.696  17.498  0.00  0.00    +0.000 C 
BRANCH  15  17
ATOM     16  N   UNL     1       9.006  10.855  17.892  0.00  0.00    +0.000 N 
ATOM     17  C   UNL     1       8.722   9.606  18.428  0.00  0.00    +0.000 C 
ATOM     18  O   UNL     1       9.050   9.219  19.543  0.00  0.00    +0.000 OA
ATOM     19  H   UNL     1       8.520  11.158  17.055  0.00  0.00    +0.000 HD
BRANCH  16  25
ATOM     20  C   UNL     1       9.505  13.204  18.380  0.00  0.00    +0.000 A 
ATOM     21  C   UNL     1      10.369  14.178  18.907  0.00  0.00    +0.000 A 
ATOM     22  C   UNL     1      11.535  13.811  19.579  0.00  0.00    +0.000 A 
ATOM     23  C   UNL     1      11.861  12.469  19.710  0.00  0.00    +0.000 A 
ATOM     24  C   UNL     1      11.032  11.494  19.147  0.00  0.00    +0.000 A 
ATOM     25  C   UNL     1       9.849  11.839  18.482  0.00  0.00    +0.000 A 
BRANCH  20  27
ATOM     26  C   UNL     1       7.858  14.860  18.008  0.00  0.00    +0.000 C 
ATOM     27  O   UNL     1       8.311  13.523  17.772  0.00  0.00    +0.000 OA
ENDBRANCH  20  27
ENDBRANCH  16  25
ENDBRANCH  15  17
ENDBRANCH   1  15
TORSDOF 9
ENDMDL
MODEL 8
REMARK VINA RESULT:      -7.2      5.330      6.967
REMARK  Name = 
REMARK  11 active torsions:
REMARK  status: ('A' for Active; 'I' for Inactive)
REMARK    1  A    between atoms: C_1  and  O_2
REMARK    2  A    between atoms: O_2  and  C_3
REMARK    3  A    between atoms: C_8  and  N_9
REMARK    4  A    between atoms: C_10  and  C_12
REMARK    5  A    between atoms: C_12  and  C_13
REMARK    6  A    between atoms: C_13  and  C_14
REMARK    7  A    between atoms: C_14  and  O_16
REMARK    8  A    between atoms: O_16  and  C_17
REMARK    9  A    between atoms: C_17  and  C_18
REMARK   10  A    between atoms: C_17  and  C_19
REMARK   11  A    between atoms: C_19  and  C_21
REMARK                            x       y       z     vdW  Elec       q    Type
REMARK                         _______ _______ _______ _____ _____    ______ ____
ROOT
ATOM      1  C   UNL     1       2.936   6.661  17.736  0.00  0.00    +0.000 C 
ENDROOT
BRANCH   1   2
ATOM      2  C   UNL     1       4.407   6.348  17.685  0.00  0.00    +0.000 C 
ATOM      3  O   UNL     1       5.276   7.156  17.389  0.00  0.00    +0.000 OA
BRANCH   2   4
ATOM      4  O   UNL     1       4.638   5.052  18.037  0.00  0.00    +0.000 OA
BRANCH   4   5
ATOM      5  C   UNL     1       4.183   4.063  17.096  0.00  0.00    +0.000 C 
ATOM      6  C   UNL     1       5.320   3.742  16.128  0.00  0.00    +0.000 C 
BRANCH   5   7
ATOM      7  C   UNL     1       3.736   2.811  17.862  0.00  0.00    +0.000 C 
ATOM      8  O   UNL     1       4.008   1.668  17.496  0.00  0.00    +0.000 OA
BRANCH   7   9
ATOM      9  C   UNL     1       2.915   2.980  19.098  0.00  0.00    +0.000 A 
ATOM     10  C   UNL     1       3.395   2.616  20.362  0.00  0.00    +0.000 A 
ATOM     11  C   UNL     1       2.589   2.786  21.491  0.00  0.00    +0.000 A 
ATOM     12  C   UNL     1       1.308   3.319  21.365  0.00  0.00    +0.000 A 
ATOM     13  C   UNL     1       0.830   3.699  20.112  0.00  0.00    +0.000 A 
ATOM     14  C   UNL     1       1.634   3.538  18.982  0.00  0.00    +0.000 A 
ENDBRANCH   7   9
ENDBRANCH   5   7
ENDBRANCH   4   5
ENDBRANCH   2   4
ENDBRANCH   1   2
BRANCH   1  15
ATOM     15  C   UNL     1       2.688   8.116  18.153  0.00  0.00    +0.000 C 
BRANCH  15  17
ATOM     16  N   UNL     1       1.185   9.356  19.622  0.00  0.00    +0.000 N 
ATOM     17  C   UNL     1       1.888   8.172  19.442  0.00  0.00    +0.000 C 
ATOM     18  O   UNL     1       1.902   7.227  20.221  0.00  0.00    +0.000 OA
ATOM     19  H   UNL     1       1.067   9.987  18.837  0.00  0.00    +0.000 HD
BRANCH  16  25
ATOM     20  C   UNL     1      -0.444  10.796  20.753  0.00  0.00    +0.000 A 
ATOM     21  C   UNL     1      -1.089  11.209  21.931  0.00  0.00    +0.000 A 
ATOM     22  C   UNL     1      -0.866  10.545  23.138  0.00  0.00    +0.000 A 
ATOM     23  C   UNL     1       0.019   9.479  23.184  0.00  0.00    +0.000 A 
ATOM     24  C   UNL     1       0.702   9.090  22.028  0.00  0.00    +0.000 A 
ATOM     25  C   UNL     1       0.483   9.732  20.802  0.00  0.00    +0.000 A 
BRANCH  20  27
ATOM     26  C   UNL     1      -2.012  11.903  19.371  0.00  0.00    +0.000 C 
ATOM     27  O   UNL     1      -0.689  11.379  19.530  0.00  0.00    +0.000 OA
ENDBRANCH  20  27
ENDBRANCH  16  25
ENDBRANCH  15  17
ENDBRANCH   1  15
TORSDOF 9
ENDMDL
MODEL 9
REMARK VINA RESULT:      -7.2      4.954      7.478
REMARK  Name = 
REMARK  11 active torsions:
REMARK  status: ('A' for Active; 'I' for Inactive)
REMARK    1  A    between atoms: C_1  and  O_2
REMARK    2  A    between atoms: O_2  and  C_3
REMARK    3  A    between atoms: C_8  and  N_9
REMARK    4  A    between atoms: C_10  and  C_12
REMARK    5  A    between atoms: C_12  and  C_13
REMARK    6  A    between atoms: C_13  and  C_14
REMARK    7  A    between atoms: C_14  and  O_16
REMARK    8  A    between atoms: O_16  and  C_17
REMARK    9  A    between atoms: C_17  and  C_18
REMARK   10  A    between atoms: C_17  and  C_19
REMARK   11  A    between atoms: C_19  and  C_21
REMARK                            x       y       z     vdW  Elec       q    Type
REMARK                         _______ _______ _______ _____ _____    ______ ____
ROOT
ATOM      1  C   UNL     1       2.121   5.837  19.126  0.00  0.00    +0.000 C 
ENDROOT
BRANCH   1   2
ATOM      2  C   UNL     1       1.764   4.590  18.364  0.00  0.00    +0.000 C 
ATOM      3  O   UNL     1       1.208   4.579  17.275  0.00  0.00    +0.000 OA
BRANCH   2   4
ATOM      4  O   UNL     1       2.168   3.477  19.042  0.00  0.00    +0.000 OA
BRANCH   4   5
ATOM      5  C   UNL     1       3.122   3.705  20.095  0.00  0.00    +0.000 C 
ATOM      6  C   UNL     1       2.669   2.948  21.342  0.00  0.00    +0.000 C 
BRANCH   5   7
ATOM      7  C   UNL     1       4.504   3.230  19.629  0.00  0.00    +0.000 C 
ATOM      8  O   UNL     1       5.011   2.172  20.001  0.00  0.00    +0.000 OA
BRANCH   7   9
ATOM      9  C   UNL     1       5.285   4.097  18.697  0.00  0.00    +0.000 A 
ATOM     10  C   UNL     1       5.196   3.959  17.306  0.00  0.00    +0.000 A 
ATOM     11  C   UNL     1       5.950   4.789  16.472  0.00  0.00    +0.000 A 
ATOM     12  C   UNL     1       6.792   5.756  17.019  0.00  0.00    +0.000 A 
ATOM     13  C   UNL     1       6.872   5.910  18.401  0.00  0.00    +0.000 A 
ATOM     14  C   UNL     1       6.115   5.089  19.239  0.00  0.00    +0.000 A 
ENDBRANCH   7   9
ENDBRANCH   5   7
ENDBRANCH   4   5
ENDBRANCH   2   4
ENDBRANCH   1   2
BRANCH   1  15
ATOM     15  C   UNL     1       2.913   6.818  18.252  0.00  0.00    +0.000 C 
BRANCH  15  17
ATOM     16  N   UNL     1       1.524   8.480  19.376  0.00  0.00    +0.000 N 
ATOM     17  C   UNL     1       2.229   8.173  18.220  0.00  0.00    +0.000 C 
ATOM     18  O   UNL     1       2.323   8.891  17.232  0.00  0.00    +0.000 OA
ATOM     19  H   UNL     1       1.674   7.924  20.211  0.00  0.00    +0.000 HD
BRANCH  16  25
ATOM     20  C   UNL     1       0.404  10.081  20.855  0.00  0.00    +0.000 A 
ATOM     21  C   UNL     1      -0.486  11.153  21.034  0.00  0.00    +0.000 A 
ATOM     22  C   UNL     1      -1.068  11.789  19.937  0.00  0.00    +0.000 A 
ATOM     23  C   UNL     1      -0.783  11.346  18.654  0.00  0.00    +0.000 A 
ATOM     24  C   UNL     1       0.064  10.251  18.467  0.00  0.00    +0.000 A 
ATOM     25  C   UNL     1       0.672   9.606  19.553  0.00  0.00    +0.000 A 
BRANCH  20  27
ATOM     26  C   UNL     1       0.302   9.423  23.125  0.00  0.00    +0.000 C 
ATOM     27  O   UNL     1       1.053   9.472  21.907  0.00  0.00    +0.000 OA
ENDBRANCH  20  27
ENDBRANCH  16  25
ENDBRANCH  15  17
ENDBRANCH   1  15
TORSDOF 9
ENDMDL
