MODEL 1
REMARK VINA RESULT:      -6.8      0.000      0.000
REMARK  Name = 
REMARK  11 active torsions:
REMARK  status: ('A' for Active; 'I' for Inactive)
REMARK    1  A    between atoms: C_1  and  C_2
REMARK    2  A    between atoms: C_2  and  C_3
REMARK    3  A    between atoms: C_3  and  N_4
REMARK    4  A    between atoms: N_4  and  C_5
REMARK    5  A    between atoms: N_4  and  C_8
REMARK    6  A    between atoms: C_5  and  C_6
REMARK    7  A    between atoms: C_6  and  C_7
REMARK    8  A    between atoms: N_11  and  C_12
REMARK    9  A    between atoms: N_11  and  C_13
REMARK   10  A    between atoms: C_16  and  O_17
REMARK   11  A    between atoms: O_17  and  C_18
REMARK                            x       y       z     vdW  Elec       q    Type
REMARK                         _______ _______ _______ _____ _____    ______ ____
ROOT
ATOM      1  C   UNL     1       3.883   6.897  18.040  0.00  0.00    +0.000 A 
ATOM      2  C   UNL     1       3.295   8.073  17.732  0.00  0.00    +0.000 A 
ATOM      3  C   UNL     1       2.154   8.625  18.551  0.00  0.00    +0.000 A 
ATOM      4  N   UNL     1       1.652   9.895  18.241  0.00  0.00    +0.000 N 
ATOM      5  C   UNL     1       2.550  10.979  17.826  0.00  0.00    +0.000 C 
ATOM      6  N   UNL     1       1.639   7.938  19.541  0.00  0.00    +0.000 NA
ATOM      7  C   UNL     1       2.137   6.690  19.780  0.00  0.00    +0.000 A 
ATOM      8  C   UNL     1       1.698   5.719  20.645  0.00  0.00    +0.000 A 
ATOM      9  C   UNL     1       2.564   4.642  20.457  0.00  0.00    +0.000 A 
ATOM     10  N   UNL     1       3.516   4.894  19.562  0.00  0.00    +0.000 NA
ATOM     11  N   UNL     1       3.245   6.155  19.091  0.00  0.00    +0.000 N 
ENDROOT
BRANCH   4  12
ATOM     12  C   UNL     1       0.267  10.229  18.301  0.00  0.00    +0.000 A 
ATOM     13  C   UNL     1      -0.625   9.752  17.316  0.00  0.00    +0.000 A 
ATOM     14  C   UNL     1      -2.001  10.004  17.366  0.00  0.00    +0.000 A 
ATOM     15  C   UNL     1      -2.543  10.771  18.389  0.00  0.00    +0.000 A 
ATOM     16  C   UNL     1      -1.693  11.289  19.359  0.00  0.00    +0.000 A 
ATOM     17  C   UNL     1      -0.313  11.008  19.334  0.00  0.00    +0.000 A 
ATOM     18 CL   UNL     1       0.552  11.543  20.743  0.00  0.00    +0.000 Cl
BRANCH  15  19
ATOM     19  O   UNL     1      -3.900  10.922  18.338  0.00  0.00    +0.000 OA
ATOM     20  C   UNL     1      -4.444  11.413  17.118  0.00  0.00    +0.000 C 
ENDBRANCH  15  19
ENDBRANCH   4  12
BRANCH   1  21
ATOM     21  N   UNL     1       5.048   6.421  17.345  0.00  0.00    +0.000 N 
BRANCH  21  22
ATOM     22  C   UNL     1       5.061   6.125  15.892  0.00  0.00    +0.000 C 
BRANCH  22  24
ATOM     23  C   UNL     1       6.371   4.355  14.548  0.00  0.00    +0.000 C 
ATOM     24  C   UNL     1       5.256   4.641  15.544  0.00  0.00    +0.000 C 
ENDBRANCH  22  24
ENDBRANCH  21  22
BRANCH  21  25
ATOM     25  C   UNL     1       6.329   6.111  18.026  0.00  0.00    +0.000 C 
BRANCH  25  26
ATOM     26  C   UNL     1       7.538   6.778  17.356  0.00  0.00    +0.000 C 
ATOM     27  C   UNL     1       7.669   8.266  17.656  0.00  0.00    +0.000 C 
ENDBRANCH  25  26
ENDBRANCH  21  25
ENDBRANCH   1  21
TORSDOF 7
ENDMDL
MODEL 2
REMARK VINA RESULT:      -6.7      0.564      1.841
REMARK  Name = 
REMARK  11 active torsions:
REMARK  status: ('A' for Active; 'I' for Inactive)
REMARK    1  A    between atoms: C_1  and  C_2
REMARK    2  A    between atoms: C_2  and  C_3
REMARK    3  A    between atoms: C_3  and  N_4
REMARK    4  A    between atoms: N_4  and  C_5
REMARK    5  A    between atoms: N_4  and  C_8
REMARK    6  A    between atoms: C_5  and  C_6
REMARK    7  A    between atoms: C_6  and  C_7
REMARK    8  A    between atoms: N_11  and  C_12
REMARK    9  A    between atoms: N_11  and  C_13
REMARK   10  A    between atoms: C_16  and  O_17
REMARK   11  A    between atoms: O_17  and  C_18
REMARK                            x       y       z     vdW  Elec       q    Type
REMARK                         _______ _______ _______ _____ _____    ______ ____
ROOT
ATOM      1  C   UNL     1       3.833   6.847  17.987  0.00  0.00    +0.000 A 
ATOM      2  C   UNL     1       3.256   8.029  17.682  0.00  0.00    +0.000 A 
ATOM      3  C   UNL     1       2.162   8.619  18.537  0.00  0.00    +0.000 A 
ATOM      4  N   UNL     1       1.673   9.894  18.224  0.00  0.00    +0.000 N 
ATOM      5  C   UNL     1       2.573  10.951  17.751  0.00  0.00    +0.000 C 
ATOM      6  N   UNL     1       1.677   7.962  19.561  0.00  0.00    +0.000 NA
ATOM      7  C   UNL     1       2.160   6.708  19.804  0.00  0.00    +0.000 A 
ATOM      8  C   UNL     1       1.738   5.763  20.705  0.00  0.00    +0.000 A 
ATOM      9  C   UNL     1       2.574   4.665  20.501  0.00  0.00    +0.000 A 
ATOM     10  N   UNL     1       3.491   4.881  19.563  0.00  0.00    +0.000 NA
ATOM     11  N   UNL     1       3.226   6.138  19.078  0.00  0.00    +0.000 N 
ENDROOT
BRANCH   4  12
ATOM     12  C   UNL     1       0.299  10.257  18.337  0.00  0.00    +0.000 A 
ATOM     13  C   UNL     1      -0.641   9.796  17.389  0.00  0.00    +0.000 A 
ATOM     14  C   UNL     1      -2.009  10.077  17.492  0.00  0.00    +0.000 A 
ATOM     15  C   UNL     1      -2.494  10.859  18.531  0.00  0.00    +0.000 A 
ATOM     16  C   UNL     1      -1.595  11.363  19.464  0.00  0.00    +0.000 A 
ATOM     17  C   UNL     1      -0.224  11.053  19.387  0.00  0.00    +0.000 A 
ATOM     18 CL   UNL     1       0.707  11.575  20.759  0.00  0.00    +0.000 Cl
BRANCH  15  19
ATOM     19  O   UNL     1      -3.848  11.039  18.532  0.00  0.00    +0.000 OA
ATOM     20  C   UNL     1      -4.475  11.187  17.263  0.00  0.00    +0.000 C 
ENDBRANCH  15  19
ENDBRANCH   4  12
BRANCH   1  21
ATOM     21  N   UNL     1       4.957   6.334  17.253  0.00  0.00    +0.000 N 
BRANCH  21  22
ATOM     22  C   UNL     1       6.294   6.976  17.265  0.00  0.00    +0.000 C 
BRANCH  22  24
ATOM     23  C   UNL     1       7.053   5.589  19.304  0.00  0.00    +0.000 C 
ATOM     24  C   UNL     1       7.399   6.138  17.927  0.00  0.00    +0.000 C 
ENDBRANCH  22  24
ENDBRANCH  21  22
BRANCH  21  25
ATOM     25  C   UNL     1       4.871   5.156  16.356  0.00  0.00    +0.000 C 
BRANCH  25  26
ATOM     26  C   UNL     1       5.567   5.382  15.006  0.00  0.00    +0.000 C 
ATOM     27  C   UNL     1       5.778   4.108  14.199  0.00  0.00    +0.000 C 
ENDBRANCH  25  26
ENDBRANCH  21  25
ENDBRANCH   1  21
TORSDOF 7
ENDMDL
MODEL 3
REMARK VINA RESULT:      -6.3      0.943      2.108
REMARK  Name = 
REMARK  11 active torsions:
REMARK  status: ('A' for Active; 'I' for Inactive)
REMARK    1  A    between atoms: C_1  and  C_2
REMARK    2  A    between atoms: C_2  and  C_3
REMARK    3  A    between atoms: C_3  and  N_4
REMARK    4  A    between atoms: N_4  and  C_5
REMARK    5  A    between atoms: N_4  and  C_8
REMARK    6  A    between atoms: C_5  and  C_6
REMARK    7  A    between atoms: C_6  and  C_7
REMARK    8  A    between atoms: N_11  and  C_12
REMARK    9  A    between atoms: N_11  and  C_13
REMARK   10  A    between atoms: C_16  and  O_17
REMARK   11  A    between atoms: O_17  and  C_18
REMARK                            x       y       z     vdW  Elec       q    Type
REMARK                         _______ _______ _______ _____ _____    ______ ____
ROOT
ATOM      1  C   UNL     1       3.602   6.802  18.200  0.00  0.00    +0.000 A 
ATOM      2  C   UNL     1       3.068   7.987  17.836  0.00  0.00    +0.000 A 
ATOM      3  C   UNL     1       2.020   8.673  18.678  0.00  0.00    +0.000 A 
ATOM      4  N   UNL     1       1.577   9.946  18.299  0.00  0.00    +0.000 N 
ATOM      5  C   UNL     1       2.509  10.934  17.746  0.00  0.00    +0.000 C 
ATOM      6  N   UNL     1       1.532   8.098  19.749  0.00  0.00    +0.000 NA
ATOM      7  C   UNL     1       1.968   6.841  20.055  0.00  0.00    +0.000 A 
ATOM      8  C   UNL     1       1.528   5.969  21.020  0.00  0.00    +0.000 A 
ATOM      9  C   UNL     1       2.312   4.826  20.864  0.00  0.00    +0.000 A 
ATOM     10  N   UNL     1       3.216   4.947  19.896  0.00  0.00    +0.000 NA
ATOM     11  N   UNL     1       2.992   6.184  19.343  0.00  0.00    +0.000 N 
ENDROOT
BRANCH   4  12
ATOM     12  C   UNL     1       0.222  10.374  18.419  0.00  0.00    +0.000 A 
ATOM     13  C   UNL     1      -0.758   9.899  17.520  0.00  0.00    +0.000 A 
ATOM     14  C   UNL     1      -2.110  10.244  17.634  0.00  0.00    +0.000 A 
ATOM     15  C   UNL     1      -2.538  11.105  18.635  0.00  0.00    +0.000 A 
ATOM     16  C   UNL     1      -1.598  11.624  19.518  0.00  0.00    +0.000 A 
ATOM     17  C   UNL     1      -0.243  11.251  19.431  0.00  0.00    +0.000 A 
ATOM     18 CL   UNL     1       0.740  11.813  20.749  0.00  0.00    +0.000 Cl
BRANCH  15  19
ATOM     19  O   UNL     1      -3.883  11.343  18.653  0.00  0.00    +0.000 OA
ATOM     20  C   UNL     1      -4.516  11.537  17.393  0.00  0.00    +0.000 C 
ENDBRANCH  15  19
ENDBRANCH   4  12
BRANCH   1  21
ATOM     21  N   UNL     1       4.687   6.199  17.474  0.00  0.00    +0.000 N 
BRANCH  21  22
ATOM     22  C   UNL     1       6.098   6.634  17.615  0.00  0.00    +0.000 C 
BRANCH  22  24
ATOM     23  C   UNL     1       7.878   5.810  19.291  0.00  0.00    +0.000 C 
ATOM     24  C   UNL     1       7.071   5.520  18.033  0.00  0.00    +0.000 C 
ENDBRANCH  22  24
ENDBRANCH  21  22
BRANCH  21  25
ATOM     25  C   UNL     1       4.493   5.134  16.460  0.00  0.00    +0.000 C 
BRANCH  25  26
ATOM     26  C   UNL     1       4.222   3.757  17.085  0.00  0.00    +0.000 C 
ATOM     27  C   UNL     1       2.765   3.320  17.008  0.00  0.00    +0.000 C 
ENDBRANCH  25  26
ENDBRANCH  21  25
ENDBRANCH   1  21
TORSDOF 7
ENDMDL
MODEL 4
REMARK VINA RESULT:      -6.2      3.877      9.113
REMARK  Name = 
REMARK  11 active torsions:
REMARK  status: ('A' for Active; 'I' for Inactive)
REMARK    1  A    between atoms: C_1  and  C_2
REMARK    2  A    between atoms: C_2  and  C_3
REMARK    3  A    between atoms: C_3  and  N_4
REMARK    4  A    between atoms: N_4  and  C_5
REMARK    5  A    between atoms: N_4  and  C_8
REMARK    6  A    between atoms: C_5  and  C_6
REMARK    7  A    between atoms: C_6  and  C_7
REMARK    8  A    between atoms: N_11  and  C_12
REMARK    9  A    between atoms: N_11  and  C_13
REMARK   10  A    between atoms: C_16  and  O_17
REMARK   11  A    between atoms: O_17  and  C_18
REMARK                            x       y       z     vdW  Elec       q    Type
REMARK                         _______ _______ _______ _____ _____    ______ ____
ROOT
ATOM      1  C   UNL     1      -2.819  12.738  20.252  0.00  0.00    +0.000 A 
ATOM      2  C   UNL     1      -1.522  12.390  20.387  0.00  0.00    +0.000 A 
ATOM      3  C   UNL     1      -0.839  11.482  19.393  0.00  0.00    +0.000 A 
ATOM      4  N   UNL     1       0.533  11.238  19.533  0.00  0.00    +0.000 N 
ATOM      5  C   UNL     1       1.448  12.301  19.961  0.00  0.00    +0.000 C 
ATOM      6  N   UNL     1      -1.508  10.935  18.409  0.00  0.00    +0.000 NA
ATOM      7  C   UNL     1      -2.850  11.174  18.337  0.00  0.00    +0.000 A 
ATOM      8  C   UNL     1      -3.798  10.625  17.509  0.00  0.00    +0.000 A 
ATOM      9  C   UNL     1      -5.002  11.215  17.890  0.00  0.00    +0.000 A 
ATOM     10  N   UNL     1      -4.856  12.104  18.869  0.00  0.00    +0.000 NA
ATOM     11  N   UNL     1      -3.523  12.066  19.197  0.00  0.00    +0.000 N 
ENDROOT
BRANCH   4  12
ATOM     12  C   UNL     1       1.134   9.970  19.277  0.00  0.00    +0.000 A 
ATOM     13  C   UNL     1       1.762   9.716  18.038  0.00  0.00    +0.000 A 
ATOM     14  C   UNL     1       2.417   8.509  17.764  0.00  0.00    +0.000 A 
ATOM     15  C   UNL     1       2.447   7.490  18.706  0.00  0.00    +0.000 A 
ATOM     16  C   UNL     1       1.809   7.688  19.925  0.00  0.00    +0.000 A 
ATOM     17  C   UNL     1       1.181   8.913  20.221  0.00  0.00    +0.000 A 
ATOM     18 CL   UNL     1       0.641   9.062  21.866  0.00  0.00    +0.000 Cl
BRANCH  15  19
ATOM     19  O   UNL     1       3.137   6.375  18.326  0.00  0.00    +0.000 OA
ATOM     20  C   UNL     1       2.409   5.153  18.286  0.00  0.00    +0.000 C 
ENDBRANCH  15  19
ENDBRANCH   4  12
BRANCH   1  21
ATOM     21  N   UNL     1      -3.446  13.698  21.120  0.00  0.00    +0.000 N 
BRANCH  21  22
ATOM     22  C   UNL     1      -3.242  15.161  20.992  0.00  0.00    +0.000 C 
BRANCH  22  24
ATOM     23  C   UNL     1      -1.075  15.644  22.305  0.00  0.00    +0.000 C 
ATOM     24  C   UNL     1      -2.583  15.824  22.212  0.00  0.00    +0.000 C 
ENDBRANCH  22  24
ENDBRANCH  21  22
BRANCH  21  25
ATOM     25  C   UNL     1      -4.298  13.315  22.271  0.00  0.00    +0.000 C 
BRANCH  25  26
ATOM     26  C   UNL     1      -3.528  12.547  23.356  0.00  0.00    +0.000 C 
ATOM     27  C   UNL     1      -4.283  12.413  24.671  0.00  0.00    +0.000 C 
ENDBRANCH  25  26
ENDBRANCH  21  25
ENDBRANCH   1  21
TORSDOF 7
ENDMDL
MODEL 5
REMARK VINA RESULT:      -6.2      3.514      8.919
REMARK  Name = 
REMARK  11 active torsions:
REMARK  status: ('A' for Active; 'I' for Inactive)
REMARK    1  A    between atoms: C_1  and  C_2
REMARK    2  A    between atoms: C_2  and  C_3
REMARK    3  A    between atoms: C_3  and  N_4
REMARK    4  A    between atoms: N_4  and  C_5
REMARK    5  A    between atoms: N_4  and  C_8
REMARK    6  A    between atoms: C_5  and  C_6
REMARK    7  A    between atoms: C_6  and  C_7
REMARK    8  A    between atoms: N_11  and  C_12
REMARK    9  A    between atoms: N_11  and  C_13
REMARK   10  A    between atoms: C_16  and  O_17
REMARK   11  A    between atoms: O_17  and  C_18
REMARK                            x       y       z     vdW  Elec       q    Type
REMARK                         _______ _______ _______ _____ _____    ______ ____
ROOT
ATOM      1  C   UNL     1      -2.887  12.003  19.268  0.00  0.00    +0.000 A 
ATOM      2  C   UNL     1      -1.685  11.630  19.757  0.00  0.00    +0.000 A 
ATOM      3  C   UNL     1      -0.680  10.891  18.908  0.00  0.00    +0.000 A 
ATOM      4  N   UNL     1       0.586  10.619  19.441  0.00  0.00    +0.000 N 
ATOM      5  C   UNL     1       1.267  11.595  20.300  0.00  0.00    +0.000 C 
ATOM      6  N   UNL     1      -0.975  10.513  17.689  0.00  0.00    +0.000 NA
ATOM      7  C   UNL     1      -2.234  10.768  17.227  0.00  0.00    +0.000 A 
ATOM      8  C   UNL     1      -2.843  10.364  16.065  0.00  0.00    +0.000 A 
ATOM      9  C   UNL     1      -4.132  10.892  16.125  0.00  0.00    +0.000 A 
ATOM     10  N   UNL     1      -4.346  11.610  17.224  0.00  0.00    +0.000 NA
ATOM     11  N   UNL     1      -3.187  11.512  17.953  0.00  0.00    +0.000 N 
ENDROOT
BRANCH   4  12
ATOM     12  C   UNL     1       1.296   9.407  19.200  0.00  0.00    +0.000 A 
ATOM     13  C   UNL     1       1.967   9.205  17.974  0.00  0.00    +0.000 A 
ATOM     14  C   UNL     1       2.726   8.058  17.714  0.00  0.00    +0.000 A 
ATOM     15  C   UNL     1       2.822   7.045  18.659  0.00  0.00    +0.000 A 
ATOM     16  C   UNL     1       2.147   7.189  19.865  0.00  0.00    +0.000 A 
ATOM     17  C   UNL     1       1.412   8.358  20.146  0.00  0.00    +0.000 A 
ATOM     18 CL   UNL     1       0.829   8.461  21.780  0.00  0.00    +0.000 Cl
BRANCH  15  19
ATOM     19  O   UNL     1       3.611   5.991  18.295  0.00  0.00    +0.000 OA
ATOM     20  C   UNL     1       4.484   5.470  19.290  0.00  0.00    +0.000 C 
ENDBRANCH  15  19
ENDBRANCH   4  12
BRANCH   1  21
ATOM     21  N   UNL     1      -3.801  12.813  20.026  0.00  0.00    +0.000 N 
BRANCH  21  22
ATOM     22  C   UNL     1      -5.240  12.943  19.689  0.00  0.00    +0.000 C 
BRANCH  22  24
ATOM     23  C   UNL     1      -7.263  11.368  19.410  0.00  0.00    +0.000 C 
ATOM     24  C   UNL     1      -6.141  11.864  20.310  0.00  0.00    +0.000 C 
ENDBRANCH  22  24
ENDBRANCH  21  22
BRANCH  21  25
ATOM     25  C   UNL     1      -3.381  13.653  21.174  0.00  0.00    +0.000 C 
BRANCH  25  26
ATOM     26  C   UNL     1      -3.797  13.064  22.529  0.00  0.00    +0.000 C 
ATOM     27  C   UNL     1      -2.692  12.281  23.227  0.00  0.00    +0.000 C 
ENDBRANCH  25  26
ENDBRANCH  21  25
ENDBRANCH   1  21
TORSDOF 7
ENDMDL
MODEL 6
REMARK VINA RESULT:      -6.1      3.844      9.108
REMARK  Name = 
REMARK  11 active torsions:
REMARK  status: ('A' for Active; 'I' for Inactive)
REMARK    1  A    between atoms: C_1  and  C_2
REMARK    2  A    between atoms: C_2  and  C_3
REMARK    3  A    between atoms: C_3  and  N_4
REMARK    4  A    between atoms: N_4  and  C_5
REMARK    5  A    between atoms: N_4  and  C_8
REMARK    6  A    between atoms: C_5  and  C_6
REMARK    7  A    between atoms: C_6  and  C_7
REMARK    8  A    between atoms: N_11  and  C_12
REMARK    9  A    between atoms: N_11  and  C_13
REMARK   10  A    between atoms: C_16  and  O_17
REMARK   11  A    between atoms: O_17  and  C_18
REMARK                            x       y       z     vdW  Elec       q    Type
REMARK                         _______ _______ _______ _____ _____    ______ ____
ROOT
ATOM      1  C   UNL     1      -3.049  12.520  20.198  0.00  0.00    +0.000 A 
ATOM      2  C   UNL     1      -1.766  12.173  20.434  0.00  0.00    +0.000 A 
ATOM      3  C   UNL     1      -0.964  11.381  19.430  0.00  0.00    +0.000 A 
ATOM      4  N   UNL     1       0.391  11.138  19.689  0.00  0.00    +0.000 N 
ATOM      5  C   UNL     1       1.233  12.162  20.317  0.00  0.00    +0.000 C 
ATOM      6  N   UNL     1      -1.514  10.930  18.330  0.00  0.00    +0.000 NA
ATOM      7  C   UNL     1      -2.847  11.161  18.141  0.00  0.00    +0.000 A 
ATOM      8  C   UNL     1      -3.691  10.689  17.167  0.00  0.00    +0.000 A 
ATOM      9  C   UNL     1      -4.941  11.224  17.476  0.00  0.00    +0.000 A 
ATOM     10  N   UNL     1      -4.917  12.009  18.550  0.00  0.00    +0.000 NA
ATOM     11  N   UNL     1      -3.625  11.951  19.012  0.00  0.00    +0.000 N 
ENDROOT
BRANCH   4  12
ATOM     12  C   UNL     1       1.044   9.910  19.372  0.00  0.00    +0.000 A 
ATOM     13  C   UNL     1       1.607   9.713  18.092  0.00  0.00    +0.000 A 
ATOM     14  C   UNL     1       2.308   8.549  17.754  0.00  0.00    +0.000 A 
ATOM     15  C   UNL     1       2.451   7.517  18.671  0.00  0.00    +0.000 A 
ATOM     16  C   UNL     1       1.879   7.658  19.930  0.00  0.00    +0.000 A 
ATOM     17  C   UNL     1       1.205   8.841  20.288  0.00  0.00    +0.000 A 
ATOM     18 CL   UNL     1       0.759   8.932  21.966  0.00  0.00    +0.000 Cl
BRANCH  15  19
ATOM     19  O   UNL     1       3.176   6.449  18.227  0.00  0.00    +0.000 OA
ATOM     20  C   UNL     1       2.662   5.156  18.528  0.00  0.00    +0.000 C 
ENDBRANCH  15  19
ENDBRANCH   4  12
BRANCH   1  21
ATOM     21  N   UNL     1      -3.784  13.377  21.087  0.00  0.00    +0.000 N 
BRANCH  21  22
ATOM     22  C   UNL     1      -4.484  12.882  22.297  0.00  0.00    +0.000 C 
BRANCH  22  24
ATOM     23  C   UNL     1      -3.555  13.617  24.589  0.00  0.00    +0.000 C 
ATOM     24  C   UNL     1      -3.562  12.568  23.486  0.00  0.00    +0.000 C 
ENDBRANCH  22  24
ENDBRANCH  21  22
BRANCH  21  25
ATOM     25  C   UNL     1      -3.974  14.828  20.843  0.00  0.00    +0.000 C 
BRANCH  25  26
ATOM     26  C   UNL     1      -2.941  15.697  21.574  0.00  0.00    +0.000 C 
ATOM     27  C   UNL     1      -1.644  15.897  20.801  0.00  0.00    +0.000 C 
ENDBRANCH  25  26
ENDBRANCH  21  25
ENDBRANCH   1  21
TORSDOF 7
ENDMDL
MODEL 7
REMARK VINA RESULT:      -6.1      0.985      1.112
REMARK  Name = 
REMARK  11 active torsions:
REMARK  status: ('A' for Active; 'I' for Inactive)
REMARK    1  A    between atoms: C_1  and  C_2
REMARK    2  A    between atoms: C_2  and  C_3
REMARK    3  A    between atoms: C_3  and  N_4
REMARK    4  A    between atoms: N_4  and  C_5
REMARK    5  A    between atoms: N_4  and  C_8
REMARK    6  A    between atoms: C_5  and  C_6
REMARK    7  A    between atoms: C_6  and  C_7
REMARK    8  A    between atoms: N_11  and  C_12
REMARK    9  A    between atoms: N_11  and  C_13
REMARK   10  A    between atoms: C_16  and  O_17
REMARK   11  A    between atoms: O_17  and  C_18
REMARK                            x       y       z     vdW  Elec       q    Type
REMARK                         _______ _______ _______ _____ _____    ______ ____
ROOT
ATOM      1  C   UNL     1       3.906   5.730  18.220  0.00  0.00    +0.000 A 
ATOM      2  C   UNL     1       3.457   6.946  17.842  0.00  0.00    +0.000 A 
ATOM      3  C   UNL     1       2.430   7.696  18.655  0.00  0.00    +0.000 A 
ATOM      4  N   UNL     1       2.078   8.995  18.265  0.00  0.00    +0.000 N 
ATOM      5  C   UNL     1       3.084   9.922  17.739  0.00  0.00    +0.000 C 
ATOM      6  N   UNL     1       1.877   7.154  19.711  0.00  0.00    +0.000 NA
ATOM      7  C   UNL     1       2.226   5.873  20.029  0.00  0.00    +0.000 A 
ATOM      8  C   UNL     1       1.706   5.030  20.979  0.00  0.00    +0.000 A 
ATOM      9  C   UNL     1       2.422   3.841  20.845  0.00  0.00    +0.000 A 
ATOM     10  N   UNL     1       3.359   3.905  19.903  0.00  0.00    +0.000 NA
ATOM     11  N   UNL     1       3.228   5.153  19.345  0.00  0.00    +0.000 N 
ENDROOT
BRANCH   4  12
ATOM     12  C   UNL     1       0.749   9.506  18.347  0.00  0.00    +0.000 A 
ATOM     13  C   UNL     1      -0.145   9.344  17.266  0.00  0.00    +0.000 A 
ATOM     14  C   UNL     1      -1.476   9.775  17.323  0.00  0.00    +0.000 A 
ATOM     15  C   UNL     1      -1.964  10.417  18.453  0.00  0.00    +0.000 A 
ATOM     16  C   UNL     1      -1.104  10.629  19.525  0.00  0.00    +0.000 A 
ATOM     17  C   UNL     1       0.224  10.163  19.488  0.00  0.00    +0.000 A 
ATOM     18 CL   UNL     1       1.077  10.311  20.996  0.00  0.00    +0.000 Cl
BRANCH  15  19
ATOM     19  O   UNL     1      -3.282  10.767  18.392  0.00  0.00    +0.000 OA
ATOM     20  C   UNL     1      -3.649  11.993  19.014  0.00  0.00    +0.000 C 
ENDBRANCH  15  19
ENDBRANCH   4  12
BRANCH   1  21
ATOM     21  N   UNL     1       4.972   5.061  17.524  0.00  0.00    +0.000 N 
BRANCH  21  22
ATOM     22  C   UNL     1       4.833   4.529  16.147  0.00  0.00    +0.000 C 
BRANCH  22  24
ATOM     23  C   UNL     1       6.751   4.721  14.433  0.00  0.00    +0.000 C 
ATOM     24  C   UNL     1       5.528   5.370  15.064  0.00  0.00    +0.000 C 
ENDBRANCH  22  24
ENDBRANCH  21  22
BRANCH  21  25
ATOM     25  C   UNL     1       6.289   4.773  18.142  0.00  0.00    +0.000 C 
BRANCH  25  26
ATOM     26  C   UNL     1       6.992   6.034  18.665  0.00  0.00    +0.000 C 
ATOM     27  C   UNL     1       7.354   7.036  17.577  0.00  0.00    +0.000 C 
ENDBRANCH  25  26
ENDBRANCH  21  25
ENDBRANCH   1  21
TORSDOF 7
ENDMDL
MODEL 8
REMARK VINA RESULT:      -6.0      3.979      9.343
REMARK  Name = 
REMARK  11 active torsions:
REMARK  status: ('A' for Active; 'I' for Inactive)
REMARK    1  A    between atoms: C_1  and  C_2
REMARK    2  A    between atoms: C_2  and  C_3
REMARK    3  A    between atoms: C_3  and  N_4
REMARK    4  A    between atoms: N_4  and  C_5
REMARK    5  A    between atoms: N_4  and  C_8
REMARK    6  A    between atoms: C_5  and  C_6
REMARK    7  A    between atoms: C_6  and  C_7
REMARK    8  A    between atoms: N_11  and  C_12
REMARK    9  A    between atoms: N_11  and  C_13
REMARK   10  A    between atoms: C_16  and  O_17
REMARK   11  A    between atoms: O_17  and  C_18
REMARK                            x       y       z     vdW  Elec       q    Type
REMARK                         _______ _______ _______ _____ _____    ______ ____
ROOT
ATOM      1  C   UNL     1      -2.781  12.639  20.374  0.00  0.00    +0.000 A 
ATOM      2  C   UNL     1      -1.487  12.279  20.502  0.00  0.00    +0.000 A 
ATOM      3  C   UNL     1      -0.804  11.406  19.477  0.00  0.00    +0.000 A 
ATOM      4  N   UNL     1       0.566  11.150  19.613  0.00  0.00    +0.000 N 
ATOM      5  C   UNL     1       1.484  12.192  20.083  0.00  0.00    +0.000 C 
ATOM      6  N   UNL     1      -1.472  10.897  18.471  0.00  0.00    +0.000 NA
ATOM      7  C   UNL     1      -2.813  11.145  18.403  0.00  0.00    +0.000 A 
ATOM      8  C   UNL     1      -3.760  10.631  17.553  0.00  0.00    +0.000 A 
ATOM      9  C   UNL     1      -4.963  11.213  17.951  0.00  0.00    +0.000 A 
ATOM     10  N   UNL     1      -4.816  12.065  18.962  0.00  0.00    +0.000 NA
ATOM     11  N   UNL     1      -3.485  12.008  19.293  0.00  0.00    +0.000 N 
ENDROOT
BRANCH   4  12
ATOM     12  C   UNL     1       1.163   9.889  19.314  0.00  0.00    +0.000 A 
ATOM     13  C   UNL     1       1.689   9.638  18.028  0.00  0.00    +0.000 A 
ATOM     14  C   UNL     1       2.337   8.439  17.705  0.00  0.00    +0.000 A 
ATOM     15  C   UNL     1       2.459   7.426  18.645  0.00  0.00    +0.000 A 
ATOM     16  C   UNL     1       1.922   7.621  19.912  0.00  0.00    +0.000 A 
ATOM     17  C   UNL     1       1.302   8.838  20.254  0.00  0.00    +0.000 A 
ATOM     18 CL   UNL     1       0.898   8.988  21.938  0.00  0.00    +0.000 Cl
BRANCH  15  19
ATOM     19  O   UNL     1       3.132   6.318  18.214  0.00  0.00    +0.000 OA
ATOM     20  C   UNL     1       2.374   5.123  18.071  0.00  0.00    +0.000 C 
ENDBRANCH  15  19
ENDBRANCH   4  12
BRANCH   1  21
ATOM     21  N   UNL     1      -3.407  13.569  21.274  0.00  0.00    +0.000 N 
BRANCH  21  22
ATOM     22  C   UNL     1      -4.394  14.585  20.834  0.00  0.00    +0.000 C 
BRANCH  22  24
ATOM     23  C   UNL     1      -6.214  15.855  22.149  0.00  0.00    +0.000 C 
ATOM     24  C   UNL     1      -5.741  14.529  21.572  0.00  0.00    +0.000 C 
ENDBRANCH  22  24
ENDBRANCH  21  22
BRANCH  21  25
ATOM     25  C   UNL     1      -3.074  13.651  22.717  0.00  0.00    +0.000 C 
BRANCH  25  26
ATOM     26  C   UNL     1      -3.383  12.353  23.477  0.00  0.00    +0.000 C 
ATOM     27  C   UNL     1      -4.395  12.522  24.602  0.00  0.00    +0.000 C 
ENDBRANCH  25  26
ENDBRANCH  21  25
ENDBRANCH   1  21
TORSDOF 7
ENDMDL
MODEL 9
REMARK VINA RESULT:      -5.9      4.058      9.558
REMARK  Name = 
REMARK  11 active torsions:
REMARK  status: ('A' for Active; 'I' for Inactive)
REMARK    1  A    between atoms: C_1  and  C_2
REMARK    2  A    between atoms: C_2  and  C_3
REMARK    3  A    between atoms: C_3  and  N_4
REMARK    4  A    between atoms: N_4  and  C_5
REMARK    5  A    between atoms: N_4  and  C_8
REMARK    6  A    between atoms: C_5  and  C_6
REMARK    7  A    between atoms: C_6  and  C_7
REMARK    8  A    between atoms: N_11  and  C_12
REMARK    9  A    between atoms: N_11  and  C_13
REMARK   10  A    between atoms: C_16  and  O_17
REMARK   11  A    between atoms: O_17  and  C_18
REMARK                            x       y       z     vdW  Elec       q    Type
REMARK                         _______ _______ _______ _____ _____    ______ ____
ROOT
ATOM      1  C   UNL     1      -3.054  12.513  20.218  0.00  0.00    +0.000 A 
ATOM      2  C   UNL     1      -1.765  12.178  20.437  0.00  0.00    +0.000 A 
ATOM      3  C   UNL     1      -0.982  11.354  19.444  0.00  0.00    +0.000 A 
ATOM      4  N   UNL     1       0.379  11.123  19.682  0.00  0.00    +0.000 N 
ATOM      5  C   UNL     1       1.231  12.169  20.257  0.00  0.00    +0.000 C 
ATOM      6  N   UNL     1      -1.555  10.865  18.373  0.00  0.00    +0.000 NA
ATOM      7  C   UNL     1      -2.891  11.086  18.204  0.00  0.00    +0.000 A 
ATOM      8  C   UNL     1      -3.755  10.580  17.265  0.00  0.00    +0.000 A 
ATOM      9  C   UNL     1      -5.000  11.122  17.582  0.00  0.00    +0.000 A 
ATOM     10  N   UNL     1      -4.955  11.943  18.628  0.00  0.00    +0.000 NA
ATOM     11  N   UNL     1      -3.653  11.904  19.064  0.00  0.00    +0.000 N 
ENDROOT
BRANCH   4  12
ATOM     12  C   UNL     1       1.028   9.887  19.392  0.00  0.00    +0.000 A 
ATOM     13  C   UNL     1       1.601   9.664  18.121  0.00  0.00    +0.000 A 
ATOM     14  C   UNL     1       2.300   8.491  17.810  0.00  0.00    +0.000 A 
ATOM     15  C   UNL     1       2.429   7.475  18.746  0.00  0.00    +0.000 A 
ATOM     16  C   UNL     1       1.847   7.641  19.998  0.00  0.00    +0.000 A 
ATOM     17  C   UNL     1       1.176   8.833  20.329  0.00  0.00    +0.000 A 
ATOM     18 CL   UNL     1       0.716   8.956  22.001  0.00  0.00    +0.000 Cl
BRANCH  15  19
ATOM     19  O   UNL     1       3.153   6.395  18.328  0.00  0.00    +0.000 OA
ATOM     20  C   UNL     1       3.573   5.477  19.331  0.00  0.00    +0.000 C 
ENDBRANCH  15  19
ENDBRANCH   4  12
BRANCH   1  21
ATOM     21  N   UNL     1      -3.772  13.399  21.093  0.00  0.00    +0.000 N 
BRANCH  21  22
ATOM     22  C   UNL     1      -3.650  14.876  21.031  0.00  0.00    +0.000 C 
BRANCH  22  24
ATOM     23  C   UNL     1      -3.499  16.839  22.698  0.00  0.00    +0.000 C 
ATOM     24  C   UNL     1      -2.927  15.508  22.231  0.00  0.00    +0.000 C 
ENDBRANCH  22  24
ENDBRANCH  21  22
BRANCH  21  25
ATOM     25  C   UNL     1      -4.648  12.921  22.190  0.00  0.00    +0.000 C 
BRANCH  25  26
ATOM     26  C   UNL     1      -6.043  13.561  22.163  0.00  0.00    +0.000 C 
ATOM     27  C   UNL     1      -6.604  13.880  23.542  0.00  0.00    +0.000 C 
ENDBRANCH  25  26
ENDBRANCH  21  25
ENDBRANCH   1  21
TORSDOF 7
ENDMDL
