MODEL 1
REMARK VINA RESULT:      -7.8      0.000      0.000
REMARK  Name = 
REMARK  8 active torsions:
REMARK  status: ('A' for Active; 'I' for Inactive)
REMARK    1  A    between atoms: C_1  and  C_2
REMARK    2  A    between atoms: C_7  and  O_8
REMARK    3  A    between atoms: O_8  and  C_9
REMARK    4  A    between atoms: C_12  and  O_13
REMARK    5  A    between atoms: O_13  and  C_14
REMARK    6  A    between atoms: C_14  and  C_15
REMARK    7  A    between atoms: C_15  and  O_16
REMARK    8  A    between atoms: O_16  and  C_17
REMARK                            x       y       z     vdW  Elec       q    Type
REMARK                         _______ _______ _______ _____ _____    ______ ____
ROOT
ATOM      1  C   UNL     1       4.882   5.077  17.698  0.00  0.00    +0.000 A 
ATOM      2  C   UNL     1       5.840   4.705  18.641  0.00  0.00    +0.000 A 
ATOM      3  C   UNL     1       6.955   5.518  18.872  0.00  0.00    +0.000 A 
ATOM      4  C   UNL     1       7.144   6.683  18.130  0.00  0.00    +0.000 A 
ATOM      5  C   UNL     1       6.166   7.069  17.208  0.00  0.00    +0.000 A 
ATOM      6  C   UNL     1       5.050   6.258  16.972  0.00  0.00    +0.000 A 
ENDROOT
BRANCH   1   7
ATOM      7  O   UNL     1       3.832   4.202  17.514  0.00  0.00    +0.000 OA
BRANCH   7  14
ATOM      8  C   UNL     1       3.510   1.500  18.381  0.00  0.00    +0.000 C 
ATOM      9  C   UNL     1       2.767   2.656  18.989  0.00  0.00    +0.000 A 
ATOM     10  C   UNL     1       1.826   2.405  20.001  0.00  0.00    +0.000 A 
ATOM     11  C   UNL     1       1.123   3.453  20.602  0.00  0.00    +0.000 A 
ATOM     12  C   UNL     1       1.379   4.761  20.225  0.00  0.00    +0.000 A 
ATOM     13  C   UNL     1       2.309   5.030  19.222  0.00  0.00    +0.000 A 
ATOM     14  C   UNL     1       2.959   3.981  18.559  0.00  0.00    +0.000 A 
ENDBRANCH   7  14
ENDBRANCH   1   7
BRANCH   4  15
ATOM     15  O   UNL     1       8.232   7.510  18.203  0.00  0.00    +0.000 OA
BRANCH  15  16
ATOM     16  C   UNL     1       8.043   8.894  17.889  0.00  0.00    +0.000 C 
BRANCH  16  17
ATOM     17  C   UNL     1       9.025   9.730  18.703  0.00  0.00    +0.000 C 
BRANCH  17  18
ATOM     18  O   UNL     1       8.974  11.097  18.274  0.00  0.00    +0.000 OA
BRANCH  18  19
ATOM     19  C   UNL     1      10.277  11.591  17.960  0.00  0.00    +0.000 C 
ATOM     20  C   UNL     1      11.222  11.425  19.154  0.00  0.00    +0.000 C 
ATOM     21  C   UNL     1      10.929  12.411  20.280  0.00  0.00    +0.000 C 
ATOM     22  C   UNL     1      10.711  13.824  19.750  0.00  0.00    +0.000 C 
ATOM     23  C   UNL     1       9.783  13.834  18.547  0.00  0.00    +0.000 C 
ATOM     24  O   UNL     1      10.251  12.951  17.531  0.00  0.00    +0.000 OA
ENDBRANCH  18  19
ENDBRANCH  17  18
ENDBRANCH  16  17
ENDBRANCH  15  16
ENDBRANCH   4  15
TORSDOF 7
ENDMDL
MODEL 2
REMARK VINA RESULT:      -7.7      0.909      1.312
REMARK  Name = 
REMARK  8 active torsions:
REMARK  status: ('A' for Active; 'I' for Inactive)
REMARK    1  A    between atoms: C_1  and  C_2
REMARK    2  A    between atoms: C_7  and  O_8
REMARK    3  A    between atoms: O_8  and  C_9
REMARK    4  A    between atoms: C_12  and  O_13
REMARK    5  A    between atoms: O_13  and  C_14
REMARK    6  A    between atoms: C_14  and  C_15
REMARK    7  A    between atoms: C_15  and  O_16
REMARK    8  A    between atoms: O_16  and  C_17
REMARK                            x       y       z     vdW  Elec       q    Type
REMARK                         _______ _______ _______ _____ _____    ______ ____
ROOT
ATOM      1  C   UNL     1       5.426   4.641  18.160  0.00  0.00    +0.000 A 
ATOM      2  C   UNL     1       4.876   5.429  17.150  0.00  0.00    +0.000 A 
ATOM      3  C   UNL     1       5.537   6.582  16.715  0.00  0.00    +0.000 A 
ATOM      4  C   UNL     1       6.730   6.981  17.319  0.00  0.00    +0.000 A 
ATOM      5  C   UNL     1       7.295   6.171  18.309  0.00  0.00    +0.000 A 
ATOM      6  C   UNL     1       6.636   5.018  18.748  0.00  0.00    +0.000 A 
ENDROOT
BRANCH   1   7
ATOM      7  O   UNL     1       4.692   3.540  18.547  0.00  0.00    +0.000 OA
BRANCH   7  14
ATOM      8  C   UNL     1       2.556   1.817  17.758  0.00  0.00    +0.000 C 
ATOM      9  C   UNL     1       2.399   2.914  18.773  0.00  0.00    +0.000 A 
ATOM     10  C   UNL     1       1.133   3.149  19.332  0.00  0.00    +0.000 A 
ATOM     11  C   UNL     1       0.946   4.151  20.289  0.00  0.00    +0.000 A 
ATOM     12  C   UNL     1       2.028   4.901  20.721  0.00  0.00    +0.000 A 
ATOM     13  C   UNL     1       3.292   4.683  20.177  0.00  0.00    +0.000 A 
ATOM     14  C   UNL     1       3.471   3.736  19.160  0.00  0.00    +0.000 A 
ENDBRANCH   7  14
ENDBRANCH   1   7
BRANCH   4  15
ATOM     15  O   UNL     1       7.422   8.129  17.041  0.00  0.00    +0.000 OA
BRANCH  15  16
ATOM     16  C   UNL     1       8.297   8.643  18.051  0.00  0.00    +0.000 C 
BRANCH  16  17
ATOM     17  C   UNL     1       8.345  10.164  17.943  0.00  0.00    +0.000 C 
BRANCH  17  18
ATOM     18  O   UNL     1       9.347  10.683  18.826  0.00  0.00    +0.000 OA
BRANCH  18  19
ATOM     19  C   UNL     1      10.256  11.541  18.133  0.00  0.00    +0.000 C 
ATOM     20  C   UNL     1      11.680  11.367  18.669  0.00  0.00    +0.000 C 
ATOM     21  C   UNL     1      11.873  11.988  20.047  0.00  0.00    +0.000 C 
ATOM     22  C   UNL     1      11.259  13.381  20.129  0.00  0.00    +0.000 C 
ATOM     23  C   UNL     1       9.862  13.414  19.531  0.00  0.00    +0.000 C 
ATOM     24  O   UNL     1       9.863  12.910  18.198  0.00  0.00    +0.000 OA
ENDBRANCH  18  19
ENDBRANCH  17  18
ENDBRANCH  16  17
ENDBRANCH  15  16
ENDBRANCH   4  15
TORSDOF 7
ENDMDL
MODEL 3
REMARK VINA RESULT:      -7.6      1.068      1.351
REMARK  Name = 
REMARK  8 active torsions:
REMARK  status: ('A' for Active; 'I' for Inactive)
REMARK    1  A    between atoms: C_1  and  C_2
REMARK    2  A    between atoms: C_7  and  O_8
REMARK    3  A    between atoms: O_8  and  C_9
REMARK    4  A    between atoms: C_12  and  O_13
REMARK    5  A    between atoms: O_13  and  C_14
REMARK    6  A    between atoms: C_14  and  C_15
REMARK    7  A    between atoms: C_15  and  O_16
REMARK    8  A    between atoms: O_16  and  C_17
REMARK                            x       y       z     vdW  Elec       q    Type
REMARK                         _______ _______ _______ _____ _____    ______ ____
ROOT
ATOM      1  C   UNL     1       4.254   5.003  17.143  0.00  0.00    +0.000 A 
ATOM      2  C   UNL     1       4.141   6.391  17.214  0.00  0.00    +0.000 A 
ATOM      3  C   UNL     1       5.280   7.198  17.120  0.00  0.00    +0.000 A 
ATOM      4  C   UNL     1       6.544   6.621  17.002  0.00  0.00    +0.000 A 
ATOM      5  C   UNL     1       6.652   5.231  16.901  0.00  0.00    +0.000 A 
ATOM      6  C   UNL     1       5.516   4.420  16.996  0.00  0.00    +0.000 A 
ENDROOT
BRANCH   1   7
ATOM      7  O   UNL     1       3.085   4.285  17.275  0.00  0.00    +0.000 OA
BRANCH   7  14
ATOM      8  C   UNL     1       3.451   1.631  18.263  0.00  0.00    +0.000 C 
ATOM      9  C   UNL     1       2.757   2.713  19.042  0.00  0.00    +0.000 A 
ATOM     10  C   UNL     1       2.210   2.404  20.298  0.00  0.00    +0.000 A 
ATOM     11  C   UNL     1       1.567   3.384  21.060  0.00  0.00    +0.000 A 
ATOM     12  C   UNL     1       1.497   4.686  20.592  0.00  0.00    +0.000 A 
ATOM     13  C   UNL     1       2.033   5.010  19.347  0.00  0.00    +0.000 A 
ATOM     14  C   UNL     1       2.607   4.018  18.542  0.00  0.00    +0.000 A 
ENDBRANCH   7  14
ENDBRANCH   1   7
BRANCH   4  15
ATOM     15  O   UNL     1       7.734   7.299  16.989  0.00  0.00    +0.000 OA
BRANCH  15  16
ATOM     16  C   UNL     1       8.147   7.947  18.197  0.00  0.00    +0.000 C 
BRANCH  16  17
ATOM     17  C   UNL     1       8.204   9.453  17.962  0.00  0.00    +0.000 C 
BRANCH  17  18
ATOM     18  O   UNL     1       9.207  10.040  18.800  0.00  0.00    +0.000 OA
BRANCH  18  19
ATOM     19  C   UNL     1       9.715  11.249  18.232  0.00  0.00    +0.000 C 
ATOM     20  C   UNL     1      11.203  11.416  18.558  0.00  0.00    +0.000 C 
ATOM     21  C   UNL     1      11.449  11.791  20.015  0.00  0.00    +0.000 C 
ATOM     22  C   UNL     1      10.501  12.890  20.482  0.00  0.00    +0.000 C 
ATOM     23  C   UNL     1       9.068  12.611  20.060  0.00  0.00    +0.000 C 
ATOM     24  O   UNL     1       8.981  12.396  18.654  0.00  0.00    +0.000 OA
ENDBRANCH  18  19
ENDBRANCH  17  18
ENDBRANCH  16  17
ENDBRANCH  15  16
ENDBRANCH   4  15
TORSDOF 7
ENDMDL
MODEL 4
REMARK VINA RESULT:      -7.6      0.424      1.036
REMARK  Name = 
REMARK  8 active torsions:
REMARK  status: ('A' for Active; 'I' for Inactive)
REMARK    1  A    between atoms: C_1  and  C_2
REMARK    2  A    between atoms: C_7  and  O_8
REMARK    3  A    between atoms: O_8  and  C_9
REMARK    4  A    between atoms: C_12  and  O_13
REMARK    5  A    between atoms: O_13  and  C_14
REMARK    6  A    between atoms: C_14  and  C_15
REMARK    7  A    between atoms: C_15  and  O_16
REMARK    8  A    between atoms: O_16  and  C_17
REMARK                            x       y       z     vdW  Elec       q    Type
REMARK                         _______ _______ _______ _____ _____    ______ ____
ROOT
ATOM      1  C   UNL     1       4.640   4.957  17.674  0.00  0.00    +0.000 A 
ATOM      2  C   UNL     1       4.978   5.775  16.597  0.00  0.00    +0.000 A 
ATOM      3  C   UNL     1       6.135   6.561  16.643  0.00  0.00    +0.000 A 
ATOM      4  C   UNL     1       6.936   6.568  17.785  0.00  0.00    +0.000 A 
ATOM      5  C   UNL     1       6.611   5.723  18.850  0.00  0.00    +0.000 A 
ATOM      6  C   UNL     1       5.454   4.937  18.809  0.00  0.00    +0.000 A 
ENDROOT
BRANCH   1   7
ATOM      7  O   UNL     1       3.467   4.241  17.555  0.00  0.00    +0.000 OA
BRANCH   7  14
ATOM      8  C   UNL     1       3.414   1.512  18.394  0.00  0.00    +0.000 C 
ATOM      9  C   UNL     1       2.687   2.612  19.116  0.00  0.00    +0.000 A 
ATOM     10  C   UNL     1       1.897   2.289  20.231  0.00  0.00    +0.000 A 
ATOM     11  C   UNL     1       1.214   3.284  20.938  0.00  0.00    +0.000 A 
ATOM     12  C   UNL     1       1.345   4.610  20.561  0.00  0.00    +0.000 A 
ATOM     13  C   UNL     1       2.124   4.950  19.457  0.00  0.00    +0.000 A 
ATOM     14  C   UNL     1       2.746   3.952  18.695  0.00  0.00    +0.000 A 
ENDBRANCH   7  14
ENDBRANCH   1   7
BRANCH   4  15
ATOM     15  O   UNL     1       8.039   7.355  17.982  0.00  0.00    +0.000 OA
BRANCH  15  16
ATOM     16  C   UNL     1       7.901   8.764  17.768  0.00  0.00    +0.000 C 
BRANCH  16  17
ATOM     17  C   UNL     1       8.867   9.506  18.685  0.00  0.00    +0.000 C 
BRANCH  17  18
ATOM     18  O   UNL     1       8.900  10.896  18.338  0.00  0.00    +0.000 OA
BRANCH  18  19
ATOM     19  C   UNL     1      10.242  11.377  18.248  0.00  0.00    +0.000 C 
ATOM     20  C   UNL     1      10.852  11.544  19.644  0.00  0.00    +0.000 C 
ATOM     21  C   UNL     1      10.287  12.743  20.396  0.00  0.00    +0.000 C 
ATOM     22  C   UNL     1      10.216  13.982  19.509  0.00  0.00    +0.000 C 
ATOM     23  C   UNL     1       9.624  13.663  18.147  0.00  0.00    +0.000 C 
ATOM     24  O   UNL     1      10.331  12.598  17.517  0.00  0.00    +0.000 OA
ENDBRANCH  18  19
ENDBRANCH  17  18
ENDBRANCH  16  17
ENDBRANCH  15  16
ENDBRANCH   4  15
TORSDOF 7
ENDMDL
MODEL 5
REMARK VINA RESULT:      -7.5      4.761      8.685
REMARK  Name = 
REMARK  8 active torsions:
REMARK  status: ('A' for Active; 'I' for Inactive)
REMARK    1  A    between atoms: C_1  and  C_2
REMARK    2  A    between atoms: C_7  and  O_8
REMARK    3  A    between atoms: O_8  and  C_9
REMARK    4  A    between atoms: C_12  and  O_13
REMARK    5  A    between atoms: O_13  and  C_14
REMARK    6  A    between atoms: C_14  and  C_15
REMARK    7  A    between atoms: C_15  and  O_16
REMARK    8  A    between atoms: O_16  and  C_17
REMARK                            x       y       z     vdW  Elec       q    Type
REMARK                         _______ _______ _______ _____ _____    ______ ____
ROOT
ATOM      1  C   UNL     1       6.677   5.610  16.487  0.00  0.00    +0.000 A 
ATOM      2  C   UNL     1       5.575   6.463  16.453  0.00  0.00    +0.000 A 
ATOM      3  C   UNL     1       4.709   6.543  17.548  0.00  0.00    +0.000 A 
ATOM      4  C   UNL     1       4.913   5.735  18.668  0.00  0.00    +0.000 A 
ATOM      5  C   UNL     1       6.036   4.904  18.712  0.00  0.00    +0.000 A 
ATOM      6  C   UNL     1       6.904   4.819  17.617  0.00  0.00    +0.000 A 
ENDROOT
BRANCH   1   7
ATOM      7  O   UNL     1       7.459   5.572  15.352  0.00  0.00    +0.000 OA
BRANCH   7  14
ATOM      8  C   UNL     1       8.892   5.920  12.907  0.00  0.00    +0.000 C 
ATOM      9  C   UNL     1       7.688   5.030  13.038  0.00  0.00    +0.000 A 
ATOM     10  C   UNL     1       7.200   4.371  11.898  0.00  0.00    +0.000 A 
ATOM     11  C   UNL     1       6.089   3.526  11.980  0.00  0.00    +0.000 A 
ATOM     12  C   UNL     1       5.481   3.303  13.204  0.00  0.00    +0.000 A 
ATOM     13  C   UNL     1       5.950   3.949  14.345  0.00  0.00    +0.000 A 
ATOM     14  C   UNL     1       7.011   4.860  14.258  0.00  0.00    +0.000 A 
ENDBRANCH   7  14
ENDBRANCH   1   7
BRANCH   4  15
ATOM     15  O   UNL     1       4.090   5.660  19.759  0.00  0.00    +0.000 OA
BRANCH  15  16
ATOM     16  C   UNL     1       2.759   6.168  19.628  0.00  0.00    +0.000 C 
BRANCH  16  17
ATOM     17  C   UNL     1       1.769   5.016  19.768  0.00  0.00    +0.000 C 
BRANCH  17  18
ATOM     18  O   UNL     1       1.538   4.413  18.489  0.00  0.00    +0.000 OA
BRANCH  18  19
ATOM     19  C   UNL     1       1.305   3.008  18.612  0.00  0.00    +0.000 C 
ATOM     20  C   UNL     1       1.706   2.513  20.005  0.00  0.00    +0.000 C 
ATOM     21  C   UNL     1       3.216   2.457  20.200  0.00  0.00    +0.000 C 
ATOM     22  C   UNL     1       3.916   1.823  19.003  0.00  0.00    +0.000 C 
ATOM     23  C   UNL     1       3.397   2.382  17.689  0.00  0.00    +0.000 C 
ATOM     24  O   UNL     1       1.979   2.258  17.604  0.00  0.00    +0.000 OA
ENDBRANCH  18  19
ENDBRANCH  17  18
ENDBRANCH  16  17
ENDBRANCH  15  16
ENDBRANCH   4  15
TORSDOF 7
ENDMDL
MODEL 6
REMARK VINA RESULT:      -7.5      1.241      1.557
REMARK  Name = 
REMARK  8 active torsions:
REMARK  status: ('A' for Active; 'I' for Inactive)
REMARK    1  A    between atoms: C_1  and  C_2
REMARK    2  A    between atoms: C_7  and  O_8
REMARK    3  A    between atoms: O_8  and  C_9
REMARK    4  A    between atoms: C_12  and  O_13
REMARK    5  A    between atoms: O_13  and  C_14
REMARK    6  A    between atoms: C_14  and  C_15
REMARK    7  A    between atoms: C_15  and  O_16
REMARK    8  A    between atoms: O_16  and  C_17
REMARK                            x       y       z     vdW  Elec       q    Type
REMARK                         _______ _______ _______ _____ _____    ______ ____
ROOT
ATOM      1  C   UNL     1       4.280   4.819  17.140  0.00  0.00    +0.000 A 
ATOM      2  C   UNL     1       5.491   4.218  16.801  0.00  0.00    +0.000 A 
ATOM      3  C   UNL     1       6.664   4.978  16.741  0.00  0.00    +0.000 A 
ATOM      4  C   UNL     1       6.625   6.353  16.974  0.00  0.00    +0.000 A 
ATOM      5  C   UNL     1       5.415   6.947  17.344  0.00  0.00    +0.000 A 
ATOM      6  C   UNL     1       4.239   6.191  17.403  0.00  0.00    +0.000 A 
ENDROOT
BRANCH   1   7
ATOM      7  O   UNL     1       3.169   4.001  17.145  0.00  0.00    +0.000 OA
BRANCH   7  14
ATOM      8  C   UNL     1       3.587   1.424  18.302  0.00  0.00    +0.000 C 
ATOM      9  C   UNL     1       2.710   2.476  18.923  0.00  0.00    +0.000 A 
ATOM     10  C   UNL     1       2.015   2.172  20.105  0.00  0.00    +0.000 A 
ATOM     11  C   UNL     1       1.199   3.126  20.721  0.00  0.00    +0.000 A 
ATOM     12  C   UNL     1       1.100   4.399  20.185  0.00  0.00    +0.000 A 
ATOM     13  C   UNL     1       1.782   4.718  19.012  0.00  0.00    +0.000 A 
ATOM     14  C   UNL     1       2.537   3.745  18.344  0.00  0.00    +0.000 A 
ENDBRANCH   7  14
ENDBRANCH   1   7
BRANCH   4  15
ATOM     15  O   UNL     1       7.685   7.212  16.861  0.00  0.00    +0.000 OA
BRANCH  15  16
ATOM     16  C   UNL     1       8.132   7.881  18.044  0.00  0.00    +0.000 C 
BRANCH  16  17
ATOM     17  C   UNL     1       8.087   9.388  17.814  0.00  0.00    +0.000 C 
BRANCH  17  18
ATOM     18  O   UNL     1       9.317   9.985  18.242  0.00  0.00    +0.000 OA
BRANCH  18  19
ATOM     19  C   UNL     1       9.097  11.278  18.810  0.00  0.00    +0.000 C 
ATOM     20  C   UNL     1       9.304  12.373  17.759  0.00  0.00    +0.000 C 
ATOM     21  C   UNL     1      10.772  12.584  17.408  0.00  0.00    +0.000 C 
ATOM     22  C   UNL     1      11.649  12.635  18.655  0.00  0.00    +0.000 C 
ATOM     23  C   UNL     1      11.311  11.513  19.623  0.00  0.00    +0.000 C 
ATOM     24  O   UNL     1       9.924  11.517  19.948  0.00  0.00    +0.000 OA
ENDBRANCH  18  19
ENDBRANCH  17  18
ENDBRANCH  16  17
ENDBRANCH  15  16
ENDBRANCH   4  15
TORSDOF 7
ENDMDL
MODEL 7
REMARK VINA RESULT:      -7.5      0.849      1.235
REMARK  Name = 
REMARK  8 active torsions:
REMARK  status: ('A' for Active; 'I' for Inactive)
REMARK    1  A    between atoms: C_1  and  C_2
REMARK    2  A    between atoms: C_7  and  O_8
REMARK    3  A    between atoms: O_8  and  C_9
REMARK    4  A    between atoms: C_12  and  O_13
REMARK    5  A    between atoms: O_13  and  C_14
REMARK    6  A    between atoms: C_14  and  C_15
REMARK    7  A    between atoms: C_15  and  O_16
REMARK    8  A    between atoms: O_16  and  C_17
REMARK                            x       y       z     vdW  Elec       q    Type
REMARK                         _______ _______ _______ _____ _____    ______ ____
ROOT
ATOM      1  C   UNL     1       4.575   5.058  17.709  0.00  0.00    +0.000 A 
ATOM      2  C   UNL     1       5.474   4.710  18.716  0.00  0.00    +0.000 A 
ATOM      3  C   UNL     1       6.644   5.454  18.906  0.00  0.00    +0.000 A 
ATOM      4  C   UNL     1       6.945   6.522  18.060  0.00  0.00    +0.000 A 
ATOM      5  C   UNL     1       6.027   6.887  17.072  0.00  0.00    +0.000 A 
ATOM      6  C   UNL     1       4.856   6.145  16.877  0.00  0.00    +0.000 A 
ENDROOT
BRANCH   1   7
ATOM      7  O   UNL     1       3.464   4.252  17.574  0.00  0.00    +0.000 OA
BRANCH   7  14
ATOM      8  C   UNL     1       3.519   1.535  18.452  0.00  0.00    +0.000 C 
ATOM      9  C   UNL     1       2.720   2.608  19.137  0.00  0.00    +0.000 A 
ATOM     10  C   UNL     1       1.915   2.262  20.234  0.00  0.00    +0.000 A 
ATOM     11  C   UNL     1       1.166   3.231  20.908  0.00  0.00    +0.000 A 
ATOM     12  C   UNL     1       1.243   4.558  20.516  0.00  0.00    +0.000 A 
ATOM     13  C   UNL     1       2.036   4.920  19.429  0.00  0.00    +0.000 A 
ATOM     14  C   UNL     1       2.726   3.943  18.698  0.00  0.00    +0.000 A 
ENDBRANCH   7  14
ENDBRANCH   1   7
BRANCH   4  15
ATOM     15  O   UNL     1       8.094   7.266  18.091  0.00  0.00    +0.000 OA
BRANCH  15  16
ATOM     16  C   UNL     1       8.005   8.647  17.726  0.00  0.00    +0.000 C 
BRANCH  16  17
ATOM     17  C   UNL     1       8.777   9.483  18.742  0.00  0.00    +0.000 C 
BRANCH  17  18
ATOM     18  O   UNL     1       8.747  10.864  18.361  0.00  0.00    +0.000 OA
BRANCH  18  19
ATOM     19  C   UNL     1       9.582  11.655  19.209  0.00  0.00    +0.000 C 
ATOM     20  C   UNL     1       9.131  13.119  19.199  0.00  0.00    +0.000 C 
ATOM     21  C   UNL     1       9.477  13.834  17.899  0.00  0.00    +0.000 C 
ATOM     22  C   UNL     1      10.906  13.538  17.455  0.00  0.00    +0.000 C 
ATOM     23  C   UNL     1      11.225  12.055  17.549  0.00  0.00    +0.000 C 
ATOM     24  O   UNL     1      10.960  11.556  18.858  0.00  0.00    +0.000 OA
ENDBRANCH  18  19
ENDBRANCH  17  18
ENDBRANCH  16  17
ENDBRANCH  15  16
ENDBRANCH   4  15
TORSDOF 7
ENDMDL
MODEL 8
REMARK VINA RESULT:      -7.5      4.844      7.848
REMARK  Name = 
REMARK  8 active torsions:
REMARK  status: ('A' for Active; 'I' for Inactive)
REMARK    1  A    between atoms: C_1  and  C_2
REMARK    2  A    between atoms: C_7  and  O_8
REMARK    3  A    between atoms: O_8  and  C_9
REMARK    4  A    between atoms: C_12  and  O_13
REMARK    5  A    between atoms: O_13  and  C_14
REMARK    6  A    between atoms: C_14  and  C_15
REMARK    7  A    between atoms: C_15  and  O_16
REMARK    8  A    between atoms: O_16  and  C_17
REMARK                            x       y       z     vdW  Elec       q    Type
REMARK                         _______ _______ _______ _____ _____    ______ ____
ROOT
ATOM      1  C   UNL     1       1.225   9.374  18.827  0.00  0.00    +0.000 A 
ATOM      2  C   UNL     1       1.936   8.632  17.885  0.00  0.00    +0.000 A 
ATOM      3  C   UNL     1       2.525   7.415  18.244  0.00  0.00    +0.000 A 
ATOM      4  C   UNL     1       2.443   6.953  19.558  0.00  0.00    +0.000 A 
ATOM      5  C   UNL     1       1.702   7.684  20.492  0.00  0.00    +0.000 A 
ATOM      6  C   UNL     1       1.114   8.903  20.138  0.00  0.00    +0.000 A 
ENDROOT
BRANCH   1   7
ATOM      7  O   UNL     1       0.705  10.576  18.394  0.00  0.00    +0.000 OA
BRANCH   7  14
ATOM      8  C   UNL     1      -0.553  12.642  19.911  0.00  0.00    +0.000 C 
ATOM      9  C   UNL     1      -1.308  11.698  19.018  0.00  0.00    +0.000 A 
ATOM     10  C   UNL     1      -2.708  11.791  18.956  0.00  0.00    +0.000 A 
ATOM     11  C   UNL     1      -3.447  10.940  18.129  0.00  0.00    +0.000 A 
ATOM     12  C   UNL     1      -2.793  10.016  17.330  0.00  0.00    +0.000 A 
ATOM     13  C   UNL     1      -1.404   9.908  17.379  0.00  0.00    +0.000 A 
ATOM     14  C   UNL     1      -0.663  10.702  18.265  0.00  0.00    +0.000 A 
ENDBRANCH   7  14
ENDBRANCH   1   7
BRANCH   4  15
ATOM     15  O   UNL     1       3.047   5.827  20.048  0.00  0.00    +0.000 OA
BRANCH  15  16
ATOM     16  C   UNL     1       3.751   4.991  19.124  0.00  0.00    +0.000 C 
BRANCH  16  17
ATOM     17  C   UNL     1       5.252   5.206  19.298  0.00  0.00    +0.000 C 
BRANCH  17  18
ATOM     18  O   UNL     1       5.970   4.466  18.303  0.00  0.00    +0.000 OA
BRANCH  18  19
ATOM     19  C   UNL     1       6.864   5.308  17.574  0.00  0.00    +0.000 C 
ATOM     20  C   UNL     1       6.127   6.534  17.026  0.00  0.00    +0.000 C 
ATOM     21  C   UNL     1       5.212   6.198  15.855  0.00  0.00    +0.000 C 
ATOM     22  C   UNL     1       5.900   5.284  14.846  0.00  0.00    +0.000 C 
ATOM     23  C   UNL     1       6.618   4.133  15.530  0.00  0.00    +0.000 C 
ATOM     24  O   UNL     1       7.525   4.612  16.520  0.00  0.00    +0.000 OA
ENDBRANCH  18  19
ENDBRANCH  17  18
ENDBRANCH  16  17
ENDBRANCH  15  16
ENDBRANCH   4  15
TORSDOF 7
ENDMDL
MODEL 9
REMARK VINA RESULT:      -7.5      0.947      1.385
REMARK  Name = 
REMARK  8 active torsions:
REMARK  status: ('A' for Active; 'I' for Inactive)
REMARK    1  A    between atoms: C_1  and  C_2
REMARK    2  A    between atoms: C_7  and  O_8
REMARK    3  A    between atoms: O_8  and  C_9
REMARK    4  A    between atoms: C_12  and  O_13
REMARK    5  A    between atoms: O_13  and  C_14
REMARK    6  A    between atoms: C_14  and  C_15
REMARK    7  A    between atoms: C_15  and  O_16
REMARK    8  A    between atoms: O_16  and  C_17
REMARK                            x       y       z     vdW  Elec       q    Type
REMARK                         _______ _______ _______ _____ _____    ______ ____
ROOT
ATOM      1  C   UNL     1       4.974   4.600  17.505  0.00  0.00    +0.000 A 
ATOM      2  C   UNL     1       6.311   4.218  17.412  0.00  0.00    +0.000 A 
ATOM      3  C   UNL     1       7.318   5.186  17.323  0.00  0.00    +0.000 A 
ATOM      4  C   UNL     1       6.990   6.541  17.280  0.00  0.00    +0.000 A 
ATOM      5  C   UNL     1       5.650   6.922  17.405  0.00  0.00    +0.000 A 
ATOM      6  C   UNL     1       4.640   5.957  17.492  0.00  0.00    +0.000 A 
ENDROOT
BRANCH   1   7
ATOM      7  O   UNL     1       4.047   3.580  17.558  0.00  0.00    +0.000 OA
BRANCH   7  14
ATOM      8  C   UNL     1       1.336   4.474  17.545  0.00  0.00    +0.000 C 
ATOM      9  C   UNL     1       1.993   3.849  18.744  0.00  0.00    +0.000 A 
ATOM     10  C   UNL     1       1.266   3.739  19.940  0.00  0.00    +0.000 A 
ATOM     11  C   UNL     1       1.836   3.154  21.074  0.00  0.00    +0.000 A 
ATOM     12  C   UNL     1       3.121   2.640  21.013  0.00  0.00    +0.000 A 
ATOM     13  C   UNL     1       3.858   2.740  19.835  0.00  0.00    +0.000 A 
ATOM     14  C   UNL     1       3.324   3.398  18.719  0.00  0.00    +0.000 A 
ENDBRANCH   7  14
ENDBRANCH   1   7
BRANCH   4  15
ATOM     15  O   UNL     1       7.874   7.572  17.108  0.00  0.00    +0.000 OA
BRANCH  15  16
ATOM     16  C   UNL     1       7.487   8.869  17.573  0.00  0.00    +0.000 C 
BRANCH  16  17
ATOM     17  C   UNL     1       8.639   9.480  18.364  0.00  0.00    +0.000 C 
BRANCH  17  18
ATOM     18  O   UNL     1       8.642  10.904  18.200  0.00  0.00    +0.000 OA
BRANCH  18  19
ATOM     19  C   UNL     1       9.950  11.388  17.892  0.00  0.00    +0.000 C 
ATOM     20  C   UNL     1      10.879  11.246  19.102  0.00  0.00    +0.000 C 
ATOM     21  C   UNL     1      10.575  12.255  20.202  0.00  0.00    +0.000 C 
ATOM     22  C   UNL     1      10.367  13.657  19.639  0.00  0.00    +0.000 C 
ATOM     23  C   UNL     1       9.454  13.644  18.425  0.00  0.00    +0.000 C 
ATOM     24  O   UNL     1       9.933  12.738  17.434  0.00  0.00    +0.000 OA
ENDBRANCH  18  19
ENDBRANCH  17  18
ENDBRANCH  16  17
ENDBRANCH  15  16
ENDBRANCH   4  15
TORSDOF 7
ENDMDL
