MODEL 1
REMARK VINA RESULT:      -7.1      0.000      0.000
REMARK  Name = 
REMARK  8 active torsions:
REMARK  status: ('A' for Active; 'I' for Inactive)
REMARK    1  A    between atoms: C_1  and  C_2
REMARK    2  A    between atoms: N_4  and  C_5
REMARK    3  A    between atoms: C_5  and  C_6
REMARK    4  A    between atoms: C_6  and  C_7
REMARK    5  A    between atoms: C_7  and  C_8
REMARK    6  A    between atoms: C_8  and  C_9
REMARK    7  A    between atoms: C_9  and  O_10
REMARK    8  A    between atoms: O_10  and  C_11
REMARK                            x       y       z     vdW  Elec       q    Type
REMARK                         _______ _______ _______ _____ _____    ______ ____
ROOT
ATOM      1  C   UNL     1       3.965   3.383  17.578  0.00  0.00    +0.000 C 
ENDROOT
BRANCH   1   2
ATOM      2  C   UNL     1       4.789   4.017  16.453  0.00  0.00    +0.000 C 
BRANCH   2   6
ATOM      3  C   UNL     1       8.087   5.526  19.822  0.00  0.00    +0.000 C 
ATOM      4  C   UNL     1       7.265   5.733  18.594  0.00  0.00    +0.000 A 
ATOM      5  C   UNL     1       6.402   4.835  18.106  0.00  0.00    +0.000 A 
ATOM      6  N   UNL     1       5.678   5.061  16.955  0.00  0.00    +0.000 N 
ATOM      7  C   UNL     1       5.806   6.235  16.221  0.00  0.00    +0.000 A 
ATOM      8  O   UNL     1       5.239   6.449  15.153  0.00  0.00    +0.000 OA
ATOM      9  N   UNL     1       6.645   7.174  16.758  0.00  0.00    +0.000 N 
ATOM     10  C   UNL     1       7.427   7.013  17.865  0.00  0.00    +0.000 A 
ATOM     11  O   UNL     1       8.222   7.870  18.231  0.00  0.00    +0.000 OA
ATOM     12  H   UNL     1       6.755   8.029  16.238  0.00  0.00    +0.000 HD
ENDBRANCH   2   6
ENDBRANCH   1   2
BRANCH   1  13
ATOM     13  C   UNL     1       2.559   3.984  17.698  0.00  0.00    +0.000 C 
BRANCH  13  14
ATOM     14  C   UNL     1       1.920   3.861  19.087  0.00  0.00    +0.000 C 
BRANCH  14  15
ATOM     15  C   UNL     1       2.398   4.966  20.024  0.00  0.00    +0.000 C 
BRANCH  15  16
ATOM     16  O   UNL     1       3.048   6.001  19.290  0.00  0.00    +0.000 OA
BRANCH  16  17
ATOM     17  C   UNL     1       2.379   7.202  19.288  0.00  0.00    +0.000 A 
ATOM     18  C   UNL     1       1.751   7.784  20.396  0.00  0.00    +0.000 A 
ATOM     19  C   UNL     1       1.109   9.017  20.282  0.00  0.00    +0.000 A 
ATOM     20  C   UNL     1       1.094   9.675  19.058  0.00  0.00    +0.000 A 
ATOM     21 BR   UNL     1       0.227  11.348  18.909  0.00  0.00    +0.000 Br
ATOM     22  C   UNL     1       1.712   9.108  17.945  0.00  0.00    +0.000 A 
ATOM     23  C   UNL     1       2.353   7.871  18.063  0.00  0.00    +0.000 A 
ENDBRANCH  16  17
ENDBRANCH  15  16
ENDBRANCH  14  15
ENDBRANCH  13  14
ENDBRANCH   1  13
TORSDOF 7
ENDMDL
MODEL 2
REMARK VINA RESULT:      -7.0      2.285      3.575
REMARK  Name = 
REMARK  8 active torsions:
REMARK  status: ('A' for Active; 'I' for Inactive)
REMARK    1  A    between atoms: C_1  and  C_2
REMARK    2  A    between atoms: N_4  and  C_5
REMARK    3  A    between atoms: C_5  and  C_6
REMARK    4  A    between atoms: C_6  and  C_7
REMARK    5  A    between atoms: C_7  and  C_8
REMARK    6  A    between atoms: C_8  and  C_9
REMARK    7  A    between atoms: C_9  and  O_10
REMARK    8  A    between atoms: O_10  and  C_11
REMARK                            x       y       z     vdW  Elec       q    Type
REMARK                         _______ _______ _______ _____ _____    ______ ____
ROOT
ATOM      1  C   UNL     1       4.623   2.673  19.327  0.00  0.00    +0.000 C 
ENDROOT
BRANCH   1   2
ATOM      2  C   UNL     1       5.071   4.135  19.254  0.00  0.00    +0.000 C 
BRANCH   2   6
ATOM      3  C   UNL     1       5.201   4.260  14.306  0.00  0.00    +0.000 C 
ATOM      4  C   UNL     1       5.819   4.464  15.649  0.00  0.00    +0.000 A 
ATOM      5  C   UNL     1       5.210   4.190  16.807  0.00  0.00    +0.000 A 
ATOM      6  N   UNL     1       5.813   4.413  18.027  0.00  0.00    +0.000 N 
ATOM      7  C   UNL     1       7.092   4.948  18.130  0.00  0.00    +0.000 A 
ATOM      8  O   UNL     1       7.640   5.232  19.191  0.00  0.00    +0.000 OA
ATOM      9  N   UNL     1       7.733   5.170  16.941  0.00  0.00    +0.000 N 
ATOM     10  C   UNL     1       7.194   5.016  15.697  0.00  0.00    +0.000 A 
ATOM     11  O   UNL     1       7.804   5.323  14.680  0.00  0.00    +0.000 OA
ATOM     12  H   UNL     1       8.659   5.562  16.996  0.00  0.00    +0.000 HD
ENDBRANCH   2   6
ENDBRANCH   1   2
BRANCH   1  13
ATOM     13  C   UNL     1       3.954   2.321  20.662  0.00  0.00    +0.000 C 
BRANCH  13  14
ATOM     14  C   UNL     1       2.492   1.869  20.553  0.00  0.00    +0.000 C 
BRANCH  14  15
ATOM     15  C   UNL     1       1.589   2.655  21.498  0.00  0.00    +0.000 C 
BRANCH  15  16
ATOM     16  O   UNL     1       0.674   3.464  20.763  0.00  0.00    +0.000 OA
BRANCH  16  17
ATOM     17  C   UNL     1       1.268   4.400  19.950  0.00  0.00    +0.000 A 
ATOM     18  C   UNL     1       1.400   4.301  18.560  0.00  0.00    +0.000 A 
ATOM     19  C   UNL     1       2.014   5.319  17.830  0.00  0.00    +0.000 A 
ATOM     20  C   UNL     1       2.497   6.444  18.489  0.00  0.00    +0.000 A 
ATOM     21 BR   UNL     1       3.322   7.824  17.496  0.00  0.00    +0.000 Br
ATOM     22  C   UNL     1       2.375   6.556  19.873  0.00  0.00    +0.000 A 
ATOM     23  C   UNL     1       1.761   5.532  20.601  0.00  0.00    +0.000 A 
ENDBRANCH  16  17
ENDBRANCH  15  16
ENDBRANCH  14  15
ENDBRANCH  13  14
ENDBRANCH   1  13
TORSDOF 7
ENDMDL
MODEL 3
REMARK VINA RESULT:      -7.0      1.754      2.914
REMARK  Name = 
REMARK  8 active torsions:
REMARK  status: ('A' for Active; 'I' for Inactive)
REMARK    1  A    between atoms: C_1  and  C_2
REMARK    2  A    between atoms: N_4  and  C_5
REMARK    3  A    between atoms: C_5  and  C_6
REMARK    4  A    between atoms: C_6  and  C_7
REMARK    5  A    between atoms: C_7  and  C_8
REMARK    6  A    between atoms: C_8  and  C_9
REMARK    7  A    between atoms: C_9  and  O_10
REMARK    8  A    between atoms: O_10  and  C_11
REMARK                            x       y       z     vdW  Elec       q    Type
REMARK                         _______ _______ _______ _____ _____    ______ ____
ROOT
ATOM      1  C   UNL     1       1.999   2.032  19.069  0.00  0.00    +0.000 C 
ENDROOT
BRANCH   1   2
ATOM      2  C   UNL     1       2.875   2.143  17.819  0.00  0.00    +0.000 C 
BRANCH   2   6
ATOM      3  C   UNL     1       4.983   6.347  16.272  0.00  0.00    +0.000 C 
ATOM      4  C   UNL     1       4.887   5.181  17.198  0.00  0.00    +0.000 A 
ATOM      5  C   UNL     1       3.983   4.202  17.085  0.00  0.00    +0.000 A 
ATOM      6  N   UNL     1       3.919   3.152  17.976  0.00  0.00    +0.000 N 
ATOM      7  C   UNL     1       4.785   3.051  19.060  0.00  0.00    +0.000 A 
ATOM      8  O   UNL     1       4.718   2.177  19.919  0.00  0.00    +0.000 OA
ATOM      9  N   UNL     1       5.745   4.023  19.136  0.00  0.00    +0.000 N 
ATOM     10  C   UNL     1       5.851   5.113  18.322  0.00  0.00    +0.000 A 
ATOM     11  O   UNL     1       6.686   5.989  18.512  0.00  0.00    +0.000 OA
ATOM     12  H   UNL     1       6.378   3.969  19.917  0.00  0.00    +0.000 HD
ENDBRANCH   2   6
ENDBRANCH   1   2
BRANCH   1  13
ATOM     13  C   UNL     1       1.312   3.355  19.434  0.00  0.00    +0.000 C 
BRANCH  13  14
ATOM     14  C   UNL     1       1.562   3.838  20.869  0.00  0.00    +0.000 C 
BRANCH  14  15
ATOM     15  C   UNL     1       1.616   5.360  20.947  0.00  0.00    +0.000 C 
BRANCH  15  16
ATOM     16  O   UNL     1       2.388   5.891  19.872  0.00  0.00    +0.000 OA
BRANCH  16  17
ATOM     17  C   UNL     1       2.077   7.186  19.534  0.00  0.00    +0.000 A 
ATOM     18  C   UNL     1       2.305   7.777  18.285  0.00  0.00    +0.000 A 
ATOM     19  C   UNL     1       1.938   9.102  18.048  0.00  0.00    +0.000 A 
ATOM     20  C   UNL     1       1.338   9.842  19.061  0.00  0.00    +0.000 A 
ATOM     21 BR   UNL     1       0.837  11.634  18.734  0.00  0.00    +0.000 Br
ATOM     22  C   UNL     1       1.106   9.269  20.310  0.00  0.00    +0.000 A 
ATOM     23  C   UNL     1       1.477   7.942  20.544  0.00  0.00    +0.000 A 
ENDBRANCH  16  17
ENDBRANCH  15  16
ENDBRANCH  14  15
ENDBRANCH  13  14
ENDBRANCH   1  13
TORSDOF 7
ENDMDL
MODEL 4
REMARK VINA RESULT:      -6.9      2.521      4.555
REMARK  Name = 
REMARK  8 active torsions:
REMARK  status: ('A' for Active; 'I' for Inactive)
REMARK    1  A    between atoms: C_1  and  C_2
REMARK    2  A    between atoms: N_4  and  C_5
REMARK    3  A    between atoms: C_5  and  C_6
REMARK    4  A    between atoms: C_6  and  C_7
REMARK    5  A    between atoms: C_7  and  C_8
REMARK    6  A    between atoms: C_8  and  C_9
REMARK    7  A    between atoms: C_9  and  O_10
REMARK    8  A    between atoms: O_10  and  C_11
REMARK                            x       y       z     vdW  Elec       q    Type
REMARK                         _______ _______ _______ _____ _____    ______ ____
ROOT
ATOM      1  C   UNL     1       5.451   5.553  19.085  0.00  0.00    +0.000 C 
ENDROOT
BRANCH   1   2
ATOM      2  C   UNL     1       5.428   4.023  19.052  0.00  0.00    +0.000 C 
BRANCH   2   6
ATOM      3  C   UNL     1       1.112   2.867  21.185  0.00  0.00    +0.000 C 
ATOM      4  C   UNL     1       2.012   2.976  20.000  0.00  0.00    +0.000 A 
ATOM      5  C   UNL     1       3.278   3.402  20.052  0.00  0.00    +0.000 A 
ATOM      6  N   UNL     1       4.068   3.505  18.927  0.00  0.00    +0.000 N 
ATOM      7  C   UNL     1       3.593   3.182  17.661  0.00  0.00    +0.000 A 
ATOM      8  O   UNL     1       4.234   3.327  16.624  0.00  0.00    +0.000 OA
ATOM      9  N   UNL     1       2.316   2.689  17.621  0.00  0.00    +0.000 N 
ATOM     10  C   UNL     1       1.458   2.596  18.678  0.00  0.00    +0.000 A 
ATOM     11  O   UNL     1       0.297   2.228  18.544  0.00  0.00    +0.000 OA
ATOM     12  H   UNL     1       1.953   2.454  16.712  0.00  0.00    +0.000 HD
ENDBRANCH   2   6
ENDBRANCH   1   2
BRANCH   1  13
ATOM     13  C   UNL     1       5.749   6.174  17.713  0.00  0.00    +0.000 C 
BRANCH  13  14
ATOM     14  C   UNL     1       4.631   7.060  17.148  0.00  0.00    +0.000 C 
BRANCH  14  15
ATOM     15  C   UNL     1       3.335   6.900  17.937  0.00  0.00    +0.000 C 
BRANCH  15  16
ATOM     16  O   UNL     1       2.476   8.017  17.724  0.00  0.00    +0.000 OA
BRANCH  16  17
ATOM     17  C   UNL     1       1.832   8.462  18.853  0.00  0.00    +0.000 A 
ATOM     18  C   UNL     1       1.068   9.632  18.945  0.00  0.00    +0.000 A 
ATOM     19  C   UNL     1       0.447   9.983  20.144  0.00  0.00    +0.000 A 
ATOM     20  C   UNL     1       0.587   9.163  21.258  0.00  0.00    +0.000 A 
ATOM     21 BR   UNL     1      -0.261   9.640  22.878  0.00  0.00    +0.000 Br
ATOM     22  C   UNL     1       1.346   7.997  21.183  0.00  0.00    +0.000 A 
ATOM     23  C   UNL     1       1.968   7.650  19.981  0.00  0.00    +0.000 A 
ENDBRANCH  16  17
ENDBRANCH  15  16
ENDBRANCH  14  15
ENDBRANCH  13  14
ENDBRANCH   1  13
TORSDOF 7
ENDMDL
MODEL 5
REMARK VINA RESULT:      -6.9      3.227      5.972
REMARK  Name = 
REMARK  8 active torsions:
REMARK  status: ('A' for Active; 'I' for Inactive)
REMARK    1  A    between atoms: C_1  and  C_2
REMARK    2  A    between atoms: N_4  and  C_5
REMARK    3  A    between atoms: C_5  and  C_6
REMARK    4  A    between atoms: C_6  and  C_7
REMARK    5  A    between atoms: C_7  and  C_8
REMARK    6  A    between atoms: C_8  and  C_9
REMARK    7  A    between atoms: C_9  and  O_10
REMARK    8  A    between atoms: O_10  and  C_11
REMARK                            x       y       z     vdW  Elec       q    Type
REMARK                         _______ _______ _______ _____ _____    ______ ____
ROOT
ATOM      1  C   UNL     1       2.544   5.726  20.106  0.00  0.00    +0.000 C 
ENDROOT
BRANCH   1   2
ATOM      2  C   UNL     1       2.551   6.805  19.020  0.00  0.00    +0.000 C 
BRANCH   2   6
ATOM      3  C   UNL     1       0.443   9.406  22.666  0.00  0.00    +0.000 C 
ATOM      4  C   UNL     1       0.882   9.234  21.251  0.00  0.00    +0.000 A 
ATOM      5  C   UNL     1       1.467   8.130  20.773  0.00  0.00    +0.000 A 
ATOM      6  N   UNL     1       1.876   8.022  19.461  0.00  0.00    +0.000 N 
ATOM      7  C   UNL     1       1.715   9.061  18.551  0.00  0.00    +0.000 A 
ATOM      8  O   UNL     1       2.127   9.039  17.395  0.00  0.00    +0.000 OA
ATOM      9  N   UNL     1       1.061  10.164  19.030  0.00  0.00    +0.000 N 
ATOM     10  C   UNL     1       0.665  10.366  20.320  0.00  0.00    +0.000 A 
ATOM     11  O   UNL     1       0.165  11.422  20.690  0.00  0.00    +0.000 OA
ATOM     12  H   UNL     1       0.940  10.929  18.386  0.00  0.00    +0.000 HD
ENDBRANCH   2   6
ENDBRANCH   1   2
BRANCH   1  13
ATOM     13  C   UNL     1       1.658   4.526  19.749  0.00  0.00    +0.000 C 
BRANCH  13  14
ATOM     14  C   UNL     1       1.990   3.852  18.411  0.00  0.00    +0.000 C 
BRANCH  14  15
ATOM     15  C   UNL     1       3.181   2.909  18.539  0.00  0.00    +0.000 C 
BRANCH  15  16
ATOM     16  O   UNL     1       4.026   3.009  17.395  0.00  0.00    +0.000 OA
BRANCH  16  17
ATOM     17  C   UNL     1       4.824   4.127  17.374  0.00  0.00    +0.000 A 
ATOM     18  C   UNL     1       4.917   5.039  16.315  0.00  0.00    +0.000 A 
ATOM     19  C   UNL     1       5.754   6.151  16.406  0.00  0.00    +0.000 A 
ATOM     20  C   UNL     1       6.503   6.357  17.560  0.00  0.00    +0.000 A 
ATOM     21 BR   UNL     1       7.632   7.867  17.681  0.00  0.00    +0.000 Br
ATOM     22  C   UNL     1       6.423   5.457  18.621  0.00  0.00    +0.000 A 
ATOM     23  C   UNL     1       5.584   4.344  18.525  0.00  0.00    +0.000 A 
ENDBRANCH  16  17
ENDBRANCH  15  16
ENDBRANCH  14  15
ENDBRANCH  13  14
ENDBRANCH   1  13
TORSDOF 7
ENDMDL
MODEL 6
REMARK VINA RESULT:      -6.8      1.627      2.783
REMARK  Name = 
REMARK  8 active torsions:
REMARK  status: ('A' for Active; 'I' for Inactive)
REMARK    1  A    between atoms: C_1  and  C_2
REMARK    2  A    between atoms: N_4  and  C_5
REMARK    3  A    between atoms: C_5  and  C_6
REMARK    4  A    between atoms: C_6  and  C_7
REMARK    5  A    between atoms: C_7  and  C_8
REMARK    6  A    between atoms: C_8  and  C_9
REMARK    7  A    between atoms: C_9  and  O_10
REMARK    8  A    between atoms: O_10  and  C_11
REMARK                            x       y       z     vdW  Elec       q    Type
REMARK                         _______ _______ _______ _____ _____    ______ ____
ROOT
ATOM      1  C   UNL     1       3.237   3.643  17.093  0.00  0.00    +0.000 C 
ENDROOT
BRANCH   1   2
ATOM      2  C   UNL     1       4.413   4.455  17.642  0.00  0.00    +0.000 C 
BRANCH   2   6
ATOM      3  C   UNL     1       6.109   3.648  13.062  0.00  0.00    +0.000 C 
ATOM      4  C   UNL     1       6.184   4.301  14.401  0.00  0.00    +0.000 A 
ATOM      5  C   UNL     1       5.322   4.075  15.398  0.00  0.00    +0.000 A 
ATOM      6  N   UNL     1       5.417   4.716  16.614  0.00  0.00    +0.000 N 
ATOM      7  C   UNL     1       6.413   5.650  16.879  0.00  0.00    +0.000 A 
ATOM      8  O   UNL     1       6.495   6.299  17.918  0.00  0.00    +0.000 OA
ATOM      9  N   UNL     1       7.327   5.833  15.877  0.00  0.00    +0.000 N 
ATOM     10  C   UNL     1       7.280   5.271  14.634  0.00  0.00    +0.000 A 
ATOM     11  O   UNL     1       8.088   5.556  13.759  0.00  0.00    +0.000 OA
ATOM     12  H   UNL     1       8.053   6.509  16.048  0.00  0.00    +0.000 HD
ENDBRANCH   2   6
ENDBRANCH   1   2
BRANCH   1  13
ATOM     13  C   UNL     1       2.174   3.340  18.157  0.00  0.00    +0.000 C 
BRANCH  13  14
ATOM     14  C   UNL     1       2.558   3.742  19.588  0.00  0.00    +0.000 C 
BRANCH  14  15
ATOM     15  C   UNL     1       1.522   4.675  20.206  0.00  0.00    +0.000 C 
BRANCH  15  16
ATOM     16  O   UNL     1       2.159   5.771  20.858  0.00  0.00    +0.000 OA
BRANCH  16  17
ATOM     17  C   UNL     1       1.907   6.996  20.289  0.00  0.00    +0.000 A 
ATOM     18  C   UNL     1       2.265   7.377  18.990  0.00  0.00    +0.000 A 
ATOM     19  C   UNL     1       1.948   8.648  18.509  0.00  0.00    +0.000 A 
ATOM     20  C   UNL     1       1.267   9.543  19.327  0.00  0.00    +0.000 A 
ATOM     21 BR   UNL     1       0.834  11.261  18.670  0.00  0.00    +0.000 Br
ATOM     22  C   UNL     1       0.906   9.179  20.623  0.00  0.00    +0.000 A 
ATOM     23  C   UNL     1       1.227   7.905  21.101  0.00  0.00    +0.000 A 
ENDBRANCH  16  17
ENDBRANCH  15  16
ENDBRANCH  14  15
ENDBRANCH  13  14
ENDBRANCH   1  13
TORSDOF 7
ENDMDL
MODEL 7
REMARK VINA RESULT:      -6.6      2.970      4.065
REMARK  Name = 
REMARK  8 active torsions:
REMARK  status: ('A' for Active; 'I' for Inactive)
REMARK    1  A    between atoms: C_1  and  C_2
REMARK    2  A    between atoms: N_4  and  C_5
REMARK    3  A    between atoms: C_5  and  C_6
REMARK    4  A    between atoms: C_6  and  C_7
REMARK    5  A    between atoms: C_7  and  C_8
REMARK    6  A    between atoms: C_8  and  C_9
REMARK    7  A    between atoms: C_9  and  O_10
REMARK    8  A    between atoms: O_10  and  C_11
REMARK                            x       y       z     vdW  Elec       q    Type
REMARK                         _______ _______ _______ _____ _____    ______ ____
ROOT
ATOM      1  C   UNL     1       2.688   6.215  19.656  0.00  0.00    +0.000 C 
ENDROOT
BRANCH   1   2
ATOM      2  C   UNL     1       3.033   4.791  19.211  0.00  0.00    +0.000 C 
BRANCH   2   6
ATOM      3  C   UNL     1       7.879   5.799  19.302  0.00  0.00    +0.000 C 
ATOM      4  C   UNL     1       6.661   5.229  18.656  0.00  0.00    +0.000 A 
ATOM      5  C   UNL     1       5.432   5.288  19.181  0.00  0.00    +0.000 A 
ATOM      6  N   UNL     1       4.337   4.729  18.558  0.00  0.00    +0.000 N 
ATOM      7  C   UNL     1       4.443   4.056  17.345  0.00  0.00    +0.000 A 
ATOM      8  O   UNL     1       3.511   3.480  16.790  0.00  0.00    +0.000 OA
ATOM      9  N   UNL     1       5.691   4.051  16.784  0.00  0.00    +0.000 N 
ATOM     10  C   UNL     1       6.830   4.542  17.353  0.00  0.00    +0.000 A 
ATOM     11  O   UNL     1       7.928   4.418  16.825  0.00  0.00    +0.000 OA
ATOM     12  H   UNL     1       5.788   3.564  15.908  0.00  0.00    +0.000 HD
ENDBRANCH   2   6
ENDBRANCH   1   2
BRANCH   1  13
ATOM     13  C   UNL     1       2.452   7.167  18.477  0.00  0.00    +0.000 C 
BRANCH  13  14
ATOM     14  C   UNL     1       2.022   8.587  18.868  0.00  0.00    +0.000 C 
BRANCH  14  15
ATOM     15  C   UNL     1       1.030   9.169  17.867  0.00  0.00    +0.000 C 
BRANCH  15  16
ATOM     16  O   UNL     1       0.504  10.406  18.342  0.00  0.00    +0.000 OA
BRANCH  16  17
ATOM     17  C   UNL     1      -0.845  10.567  18.137  0.00  0.00    +0.000 A 
ATOM     18  C   UNL     1      -1.621   9.837  17.228  0.00  0.00    +0.000 A 
ATOM     19  C   UNL     1      -2.991  10.077  17.109  0.00  0.00    +0.000 A 
ATOM     20  C   UNL     1      -3.591  11.049  17.902  0.00  0.00    +0.000 A 
ATOM     21 BR   UNL     1      -5.446  11.367  17.741  0.00  0.00    +0.000 Br
ATOM     22  C   UNL     1      -2.831  11.785  18.809  0.00  0.00    +0.000 A 
ATOM     23  C   UNL     1      -1.460  11.542  18.924  0.00  0.00    +0.000 A 
ENDBRANCH  16  17
ENDBRANCH  15  16
ENDBRANCH  14  15
ENDBRANCH  13  14
ENDBRANCH   1  13
TORSDOF 7
ENDMDL
MODEL 8
REMARK VINA RESULT:      -6.6      4.871      7.011
REMARK  Name = 
REMARK  8 active torsions:
REMARK  status: ('A' for Active; 'I' for Inactive)
REMARK    1  A    between atoms: C_1  and  C_2
REMARK    2  A    between atoms: N_4  and  C_5
REMARK    3  A    between atoms: C_5  and  C_6
REMARK    4  A    between atoms: C_6  and  C_7
REMARK    5  A    between atoms: C_7  and  C_8
REMARK    6  A    between atoms: C_8  and  C_9
REMARK    7  A    between atoms: C_9  and  O_10
REMARK    8  A    between atoms: O_10  and  C_11
REMARK                            x       y       z     vdW  Elec       q    Type
REMARK                         _______ _______ _______ _____ _____    ______ ____
ROOT
ATOM      1  C   UNL     1       8.595   9.708  17.781  0.00  0.00    +0.000 C 
ENDROOT
BRANCH   1   2
ATOM      2  C   UNL     1       9.103   9.930  19.208  0.00  0.00    +0.000 C 
BRANCH   2   6
ATOM      3  C   UNL     1      12.108  13.212  17.040  0.00  0.00    +0.000 C 
ATOM      4  C   UNL     1      11.357  12.686  18.217  0.00  0.00    +0.000 A 
ATOM      5  C   UNL     1      10.620  11.571  18.202  0.00  0.00    +0.000 A 
ATOM      6  N   UNL     1       9.926  11.132  19.309  0.00  0.00    +0.000 N 
ATOM      7  C   UNL     1       9.939  11.830  20.512  0.00  0.00    +0.000 A 
ATOM      8  O   UNL     1       9.280  11.518  21.500  0.00  0.00    +0.000 OA
ATOM      9  N   UNL     1      10.743  12.937  20.539  0.00  0.00    +0.000 N 
ATOM     10  C   UNL     1      11.426  13.459  19.479  0.00  0.00    +0.000 A 
ATOM     11  O   UNL     1      12.053  14.509  19.562  0.00  0.00    +0.000 OA
ATOM     12  H   UNL     1      10.762  13.458  21.400  0.00  0.00    +0.000 HD
ENDBRANCH   2   6
ENDBRANCH   1   2
BRANCH   1  13
ATOM     13  C   UNL     1       7.436   8.706  17.709  0.00  0.00    +0.000 C 
BRANCH  13  14
ATOM     14  C   UNL     1       7.814   7.255  18.038  0.00  0.00    +0.000 C 
BRANCH  14  15
ATOM     15  C   UNL     1       7.342   6.293  16.953  0.00  0.00    +0.000 C 
BRANCH  15  16
ATOM     16  O   UNL     1       6.068   6.689  16.450  0.00  0.00    +0.000 OA
BRANCH  16  17
ATOM     17  C   UNL     1       5.024   5.893  16.856  0.00  0.00    +0.000 A 
ATOM     18  C   UNL     1       4.902   4.521  16.603  0.00  0.00    +0.000 A 
ATOM     19  C   UNL     1       3.800   3.807  17.074  0.00  0.00    +0.000 A 
ATOM     20  C   UNL     1       2.815   4.463  17.804  0.00  0.00    +0.000 A 
ATOM     21 BR   UNL     1       1.328   3.491  18.446  0.00  0.00    +0.000 Br
ATOM     22  C   UNL     1       2.922   5.828  18.063  0.00  0.00    +0.000 A 
ATOM     23  C   UNL     1       4.026   6.541  17.587  0.00  0.00    +0.000 A 
ENDBRANCH  16  17
ENDBRANCH  15  16
ENDBRANCH  14  15
ENDBRANCH  13  14
ENDBRANCH   1  13
TORSDOF 7
ENDMDL
MODEL 9
REMARK VINA RESULT:      -6.6      2.344      3.554
REMARK  Name = 
REMARK  8 active torsions:
REMARK  status: ('A' for Active; 'I' for Inactive)
REMARK    1  A    between atoms: C_1  and  C_2
REMARK    2  A    between atoms: N_4  and  C_5
REMARK    3  A    between atoms: C_5  and  C_6
REMARK    4  A    between atoms: C_6  and  C_7
REMARK    5  A    between atoms: C_7  and  C_8
REMARK    6  A    between atoms: C_8  and  C_9
REMARK    7  A    between atoms: C_9  and  O_10
REMARK    8  A    between atoms: O_10  and  C_11
REMARK                            x       y       z     vdW  Elec       q    Type
REMARK                         _______ _______ _______ _____ _____    ______ ____
ROOT
ATOM      1  C   UNL     1       2.239   5.616  18.828  0.00  0.00    +0.000 C 
ENDROOT
BRANCH   1   2
ATOM      2  C   UNL     1       3.273   4.721  19.515  0.00  0.00    +0.000 C 
BRANCH   2   6
ATOM      3  C   UNL     1       7.991   6.138  19.026  0.00  0.00    +0.000 C 
ATOM      4  C   UNL     1       6.790   5.372  18.583  0.00  0.00    +0.000 A 
ATOM      5  C   UNL     1       5.604   5.409  19.199  0.00  0.00    +0.000 A 
ATOM      6  N   UNL     1       4.526   4.668  18.766  0.00  0.00    +0.000 N 
ATOM      7  C   UNL     1       4.606   3.823  17.664  0.00  0.00    +0.000 A 
ATOM      8  O   UNL     1       3.697   3.090  17.286  0.00  0.00    +0.000 OA
ATOM      9  N   UNL     1       5.804   3.835  17.002  0.00  0.00    +0.000 N 
ATOM     10  C   UNL     1       6.928   4.505  17.389  0.00  0.00    +0.000 A 
ATOM     11  O   UNL     1       7.992   4.392  16.790  0.00  0.00    +0.000 OA
ATOM     12  H   UNL     1       5.883   3.226  16.204  0.00  0.00    +0.000 HD
ENDBRANCH   2   6
ENDBRANCH   1   2
BRANCH   1  13
ATOM     13  C   UNL     1       2.577   7.109  18.936  0.00  0.00    +0.000 C 
BRANCH  13  14
ATOM     14  C   UNL     1       2.295   7.928  17.669  0.00  0.00    +0.000 C 
BRANCH  14  15
ATOM     15  C   UNL     1       1.955   9.377  18.003  0.00  0.00    +0.000 C 
BRANCH  15  16
ATOM     16  O   UNL     1       0.549   9.595  17.920  0.00  0.00    +0.000 OA
BRANCH  16  17
ATOM     17  C   UNL     1       0.012  10.261  18.995  0.00  0.00    +0.000 A 
ATOM     18  C   UNL     1      -1.044  11.179  18.939  0.00  0.00    +0.000 A 
ATOM     19  C   UNL     1      -1.518  11.790  20.100  0.00  0.00    +0.000 A 
ATOM     20  C   UNL     1      -0.938  11.482  21.326  0.00  0.00    +0.000 A 
ATOM     21 BR   UNL     1      -1.587  12.307  22.897  0.00  0.00    +0.000 Br
ATOM     22  C   UNL     1       0.115  10.572  21.398  0.00  0.00    +0.000 A 
ATOM     23  C   UNL     1       0.588   9.964  20.232  0.00  0.00    +0.000 A 
ENDBRANCH  16  17
ENDBRANCH  15  16
ENDBRANCH  14  15
ENDBRANCH  13  14
ENDBRANCH   1  13
TORSDOF 7
ENDMDL
