MODEL 1
REMARK VINA RESULT:      -7.7      0.000      0.000
REMARK  Name = 
REMARK  5 active torsions:
REMARK  status: ('A' for Active; 'I' for Inactive)
REMARK    1  A    between atoms: C_5  and  C_6
REMARK    2  A    between atoms: C_6  and  N_7
REMARK    3  A    between atoms: C_15  and  O_16
REMARK    4  A    between atoms: O_16  and  C_17
REMARK    5  A    between atoms: C_17  and  C_18
REMARK                            x       y       z     vdW  Elec       q    Type
REMARK                         _______ _______ _______ _____ _____    ______ ____
ROOT
ATOM      1  N   UNL     1       3.650   3.933  18.830  0.00  0.00    +0.000 NA
ATOM      2  C   UNL     1       3.425   3.095  20.046  0.00  0.00    +0.000 C 
ATOM      3  C   UNL     1       2.205   3.490  20.923  0.00  0.00    +0.000 C 
ATOM      4  O   UNL     1       2.199   4.897  21.243  0.00  0.00    +0.000 OA
ATOM      5  C   UNL     1       2.100   5.610  20.014  0.00  0.00    +0.000 C 
ATOM      6  C   UNL     1       3.336   5.339  19.167  0.00  0.00    +0.000 C 
ATOM      7  C   UNL     1       3.061   6.284  17.998  0.00  0.00    +0.000 C 
ATOM      8  C   UNL     1       2.732   7.584  18.740  0.00  0.00    +0.000 C 
ATOM      9  C   UNL     1       2.212   7.142  20.129  0.00  0.00    +0.000 C 
ENDROOT
BRANCH   1  10
ATOM     10  C   UNL     1       5.099   3.963  18.491  0.00  0.00    +0.000 C 
BRANCH  10  15
ATOM     11  F   UNL     1       7.241   4.876  13.403  0.00  0.00    +0.000 F 
ATOM     12  C   UNL     1       6.676   4.788  14.615  0.00  0.00    +0.000 A 
ATOM     13  C   UNL     1       7.343   5.300  15.726  0.00  0.00    +0.000 A 
ATOM     14  C   UNL     1       6.796   5.145  17.003  0.00  0.00    +0.000 A 
ATOM     15  C   UNL     1       5.578   4.474  17.159  0.00  0.00    +0.000 A 
ATOM     16  C   UNL     1       4.902   3.998  16.015  0.00  0.00    +0.000 A 
ATOM     17  C   UNL     1       5.453   4.149  14.746  0.00  0.00    +0.000 A 
ENDBRANCH  10  15
ENDBRANCH   1  10
BRANCH   9  18
ATOM     18  O   UNL     1       0.977   7.787  20.384  0.00  0.00    +0.000 OA
BRANCH  18  19
ATOM     19  C   UNL     1       0.998   9.162  20.014  0.00  0.00    +0.000 C 
BRANCH  19  20
ATOM     20  C   UNL     1       0.301   9.916  21.108  0.00  0.00    +0.000 A 
ATOM     21  C   UNL     1       0.028  11.280  20.944  0.00  0.00    +0.000 A 
ATOM     22  C   UNL     1      -0.590  11.959  21.977  0.00  0.00    +0.000 A 
ATOM     23  N   UNL     1      -0.964  11.381  23.136  0.00  0.00    +0.000 NA
ATOM     24  C   UNL     1      -0.694  10.061  23.273  0.00  0.00    +0.000 A 
ATOM     25  C   UNL     1      -0.068   9.298  22.298  0.00  0.00    +0.000 A 
ENDBRANCH  19  20
ENDBRANCH  18  19
ENDBRANCH   9  18
TORSDOF 5
ENDMDL
MODEL 2
REMARK VINA RESULT:      -7.7      5.188      7.518
REMARK  Name = 
REMARK  5 active torsions:
REMARK  status: ('A' for Active; 'I' for Inactive)
REMARK    1  A    between atoms: C_5  and  C_6
REMARK    2  A    between atoms: C_6  and  N_7
REMARK    3  A    between atoms: C_15  and  O_16
REMARK    4  A    between atoms: O_16  and  C_17
REMARK    5  A    between atoms: C_17  and  C_18
REMARK                            x       y       z     vdW  Elec       q    Type
REMARK                         _______ _______ _______ _____ _____    ______ ____
ROOT
ATOM      1  N   UNL     1       6.089   4.369  17.416  0.00  0.00    +0.000 NA
ATOM      2  C   UNL     1       5.164   4.711  16.294  0.00  0.00    +0.000 C 
ATOM      3  C   UNL     1       5.613   5.887  15.381  0.00  0.00    +0.000 C 
ATOM      4  O   UNL     1       5.974   7.058  16.143  0.00  0.00    +0.000 OA
ATOM      5  C   UNL     1       7.078   6.701  16.970  0.00  0.00    +0.000 C 
ATOM      6  C   UNL     1       6.649   5.627  17.959  0.00  0.00    +0.000 C 
ATOM      7  C   UNL     1       7.927   5.512  18.787  0.00  0.00    +0.000 C 
ATOM      8  C   UNL     1       8.207   6.985  19.106  0.00  0.00    +0.000 C 
ATOM      9  C   UNL     1       7.533   7.785  17.966  0.00  0.00    +0.000 C 
ENDROOT
BRANCH   1  10
ATOM     10  C   UNL     1       5.319   3.800  18.556  0.00  0.00    +0.000 C 
BRANCH  10  15
ATOM     11  F   UNL     1      -0.089   2.468  19.088  0.00  0.00    +0.000 F 
ATOM     12  C   UNL     1       1.182   2.798  18.822  0.00  0.00    +0.000 A 
ATOM     13  C   UNL     1       2.080   1.812  18.417  0.00  0.00    +0.000 A 
ATOM     14  C   UNL     1       3.425   2.133  18.212  0.00  0.00    +0.000 A 
ATOM     15  C   UNL     1       3.863   3.446  18.414  0.00  0.00    +0.000 A 
ATOM     16  C   UNL     1       2.928   4.435  18.787  0.00  0.00    +0.000 A 
ATOM     17  C   UNL     1       1.592   4.111  18.996  0.00  0.00    +0.000 A 
ENDBRANCH  10  15
ENDBRANCH   1  10
BRANCH   9  18
ATOM     18  O   UNL     1       8.473   8.697  17.428  0.00  0.00    +0.000 OA
BRANCH  18  19
ATOM     19  C   UNL     1       8.123  10.052  17.688  0.00  0.00    +0.000 C 
BRANCH  19  20
ATOM     20  C   UNL     1       9.287  10.671  18.406  0.00  0.00    +0.000 A 
ATOM     21  C   UNL     1       9.319  10.664  19.807  0.00  0.00    +0.000 A 
ATOM     22  C   UNL     1      10.387  11.265  20.446  0.00  0.00    +0.000 A 
ATOM     23  N   UNL     1      11.417  11.846  19.798  0.00  0.00    +0.000 NA
ATOM     24  C   UNL     1      11.368  11.838  18.445  0.00  0.00    +0.000 A 
ATOM     25  C   UNL     1      10.333  11.272  17.715  0.00  0.00    +0.000 A 
ENDBRANCH  19  20
ENDBRANCH  18  19
ENDBRANCH   9  18
TORSDOF 5
ENDMDL
MODEL 3
REMARK VINA RESULT:      -7.6      5.096      7.201
REMARK  Name = 
REMARK  5 active torsions:
REMARK  status: ('A' for Active; 'I' for Inactive)
REMARK    1  A    between atoms: C_5  and  C_6
REMARK    2  A    between atoms: C_6  and  N_7
REMARK    3  A    between atoms: C_15  and  O_16
REMARK    4  A    between atoms: O_16  and  C_17
REMARK    5  A    between atoms: C_17  and  C_18
REMARK                            x       y       z     vdW  Elec       q    Type
REMARK                         _______ _______ _______ _____ _____    ______ ____
ROOT
ATOM      1  N   UNL     1       5.848   4.122  16.489  0.00  0.00    +0.000 NA
ATOM      2  C   UNL     1       5.011   4.886  15.517  0.00  0.00    +0.000 C 
ATOM      3  C   UNL     1       5.564   6.276  15.094  0.00  0.00    +0.000 C 
ATOM      4  O   UNL     1       5.924   7.086  16.232  0.00  0.00    +0.000 OA
ATOM      5  C   UNL     1       6.958   6.399  16.930  0.00  0.00    +0.000 C 
ATOM      6  C   UNL     1       6.424   5.077  17.462  0.00  0.00    +0.000 C 
ATOM      7  C   UNL     1       7.643   4.605  18.254  0.00  0.00    +0.000 C 
ATOM      8  C   UNL     1       7.962   5.856  19.079  0.00  0.00    +0.000 C 
ATOM      9  C   UNL     1       7.395   7.041  18.261  0.00  0.00    +0.000 C 
ENDROOT
BRANCH   1  10
ATOM     10  C   UNL     1       4.986   3.241  17.324  0.00  0.00    +0.000 C 
BRANCH  10  15
ATOM     11  F   UNL     1       0.467   4.361  20.427  0.00  0.00    +0.000 F 
ATOM     12  C   UNL     1       1.527   4.217  19.621  0.00  0.00    +0.000 A 
ATOM     13  C   UNL     1       1.349   3.720  18.331  0.00  0.00    +0.000 A 
ATOM     14  C   UNL     1       2.458   3.495  17.510  0.00  0.00    +0.000 A 
ATOM     15  C   UNL     1       3.743   3.770  17.988  0.00  0.00    +0.000 A 
ATOM     16  C   UNL     1       3.895   4.308  19.284  0.00  0.00    +0.000 A 
ATOM     17  C   UNL     1       2.790   4.525  20.101  0.00  0.00    +0.000 A 
ENDBRANCH  10  15
ENDBRANCH   1  10
BRANCH   9  18
ATOM     18  O   UNL     1       8.404   8.024  18.118  0.00  0.00    +0.000 OA
BRANCH  18  19
ATOM     19  C   UNL     1       7.879   9.283  17.707  0.00  0.00    +0.000 C 
BRANCH  19  20
ATOM     20  C   UNL     1       8.713  10.338  18.372  0.00  0.00    +0.000 A 
ATOM     21  C   UNL     1       8.846  11.596  17.770  0.00  0.00    +0.000 A 
ATOM     22  C   UNL     1       9.642  12.543  18.388  0.00  0.00    +0.000 A 
ATOM     23  N   UNL     1      10.289  12.333  19.551  0.00  0.00    +0.000 NA
ATOM     24  C   UNL     1      10.145  11.112  20.118  0.00  0.00    +0.000 A 
ATOM     25  C   UNL     1       9.378  10.094  19.569  0.00  0.00    +0.000 A 
ENDBRANCH  19  20
ENDBRANCH  18  19
ENDBRANCH   9  18
TORSDOF 5
ENDMDL
MODEL 4
REMARK VINA RESULT:      -7.6      0.404      1.015
REMARK  Name = 
REMARK  5 active torsions:
REMARK  status: ('A' for Active; 'I' for Inactive)
REMARK    1  A    between atoms: C_5  and  C_6
REMARK    2  A    between atoms: C_6  and  N_7
REMARK    3  A    between atoms: C_15  and  O_16
REMARK    4  A    between atoms: O_16  and  C_17
REMARK    5  A    between atoms: C_17  and  C_18
REMARK                            x       y       z     vdW  Elec       q    Type
REMARK                         _______ _______ _______ _____ _____    ______ ____
ROOT
ATOM      1  N   UNL     1       3.374   3.698  18.751  0.00  0.00    +0.000 NA
ATOM      2  C   UNL     1       2.993   2.692  19.787  0.00  0.00    +0.000 C 
ATOM      3  C   UNL     1       1.754   3.051  20.654  0.00  0.00    +0.000 C 
ATOM      4  O   UNL     1       1.849   4.377  21.214  0.00  0.00    +0.000 OA
ATOM      5  C   UNL     1       1.900   5.294  20.126  0.00  0.00    +0.000 C 
ATOM      6  C   UNL     1       3.163   5.051  19.312  0.00  0.00    +0.000 C 
ATOM      7  C   UNL     1       3.054   6.202  18.314  0.00  0.00    +0.000 C 
ATOM      8  C   UNL     1       2.790   7.384  19.253  0.00  0.00    +0.000 C 
ATOM      9  C   UNL     1       2.138   6.767  20.513  0.00  0.00    +0.000 C 
ENDROOT
BRANCH   1  10
ATOM     10  C   UNL     1       4.841   3.641  18.500  0.00  0.00    +0.000 C 
BRANCH  10  15
ATOM     11  F   UNL     1       7.346   4.960  13.674  0.00  0.00    +0.000 F 
ATOM     12  C   UNL     1       6.709   4.779  14.839  0.00  0.00    +0.000 A 
ATOM     13  C   UNL     1       7.369   5.055  16.035  0.00  0.00    +0.000 A 
ATOM     14  C   UNL     1       6.739   4.798  17.256  0.00  0.00    +0.000 A 
ATOM     15  C   UNL     1       5.446   4.264  17.271  0.00  0.00    +0.000 A 
ATOM     16  C   UNL     1       4.784   4.029  16.047  0.00  0.00    +0.000 A 
ATOM     17  C   UNL     1       5.416   4.280  14.834  0.00  0.00    +0.000 A 
ENDBRANCH  10  15
ENDBRANCH   1  10
BRANCH   9  18
ATOM     18  O   UNL     1       0.950   7.478  20.811  0.00  0.00    +0.000 OA
BRANCH  18  19
ATOM     19  C   UNL     1       0.905   8.749  20.170  0.00  0.00    +0.000 C 
BRANCH  19  20
ATOM     20  C   UNL     1       0.337   9.717  21.166  0.00  0.00    +0.000 A 
ATOM     21  C   UNL     1      -0.220   9.237  22.358  0.00  0.00    +0.000 A 
ATOM     22  C   UNL     1      -0.763  10.147  23.247  0.00  0.00    +0.000 A 
ATOM     23  N   UNL     1      -0.773  11.478  23.042  0.00  0.00    +0.000 NA
ATOM     24  C   UNL     1      -0.225  11.922  21.886  0.00  0.00    +0.000 A 
ATOM     25  C   UNL     1       0.332  11.087  20.928  0.00  0.00    +0.000 A 
ENDBRANCH  19  20
ENDBRANCH  18  19
ENDBRANCH   9  18
TORSDOF 5
ENDMDL
MODEL 5
REMARK VINA RESULT:      -7.6      1.443      1.876
REMARK  Name = 
REMARK  5 active torsions:
REMARK  status: ('A' for Active; 'I' for Inactive)
REMARK    1  A    between atoms: C_5  and  C_6
REMARK    2  A    between atoms: C_6  and  N_7
REMARK    3  A    between atoms: C_15  and  O_16
REMARK    4  A    between atoms: O_16  and  C_17
REMARK    5  A    between atoms: C_17  and  C_18
REMARK                            x       y       z     vdW  Elec       q    Type
REMARK                         _______ _______ _______ _____ _____    ______ ____
ROOT
ATOM      1  N   UNL     1       2.307   3.408  18.395  0.00  0.00    +0.000 NA
ATOM      2  C   UNL     1       2.364   2.514  19.590  0.00  0.00    +0.000 C 
ATOM      3  C   UNL     1       1.722   3.077  20.888  0.00  0.00    +0.000 C 
ATOM      4  O   UNL     1       2.197   4.403  21.198  0.00  0.00    +0.000 OA
ATOM      5  C   UNL     1       1.816   5.252  20.120  0.00  0.00    +0.000 C 
ATOM      6  C   UNL     1       2.516   4.803  18.844  0.00  0.00    +0.000 C 
ATOM      7  C   UNL     1       2.061   5.910  17.895  0.00  0.00    +0.000 C 
ATOM      8  C   UNL     1       2.386   7.160  18.720  0.00  0.00    +0.000 C 
ATOM      9  C   UNL     1       2.349   6.696  20.196  0.00  0.00    +0.000 C 
ENDROOT
BRANCH   1  10
ATOM     10  C   UNL     1       3.468   3.144  17.502  0.00  0.00    +0.000 C 
BRANCH  10  15
ATOM     11  F   UNL     1       7.350   7.133  18.075  0.00  0.00    +0.000 F 
ATOM     12  C   UNL     1       6.523   6.096  17.885  0.00  0.00    +0.000 A 
ATOM     13  C   UNL     1       5.950   5.891  16.631  0.00  0.00    +0.000 A 
ATOM     14  C   UNL     1       5.027   4.858  16.445  0.00  0.00    +0.000 A 
ATOM     15  C   UNL     1       4.683   4.032  17.520  0.00  0.00    +0.000 A 
ATOM     16  C   UNL     1       5.304   4.236  18.771  0.00  0.00    +0.000 A 
ATOM     17  C   UNL     1       6.217   5.269  18.955  0.00  0.00    +0.000 A 
ENDBRANCH  10  15
ENDBRANCH   1  10
BRANCH   9  18
ATOM     18  O   UNL     1       1.518   7.574  20.933  0.00  0.00    +0.000 OA
BRANCH  18  19
ATOM     19  C   UNL     1       1.215   8.764  20.213  0.00  0.00    +0.000 C 
BRANCH  19  20
ATOM     20  C   UNL     1       0.529   9.690  21.174  0.00  0.00    +0.000 A 
ATOM     21  C   UNL     1       0.492  11.064  20.905  0.00  0.00    +0.000 A 
ATOM     22  C   UNL     1      -0.120  11.900  21.820  0.00  0.00    +0.000 A 
ATOM     23  N   UNL     1      -0.704  11.469  22.955  0.00  0.00    +0.000 NA
ATOM     24  C   UNL     1      -0.661  10.136  23.195  0.00  0.00    +0.000 A 
ATOM     25  C   UNL     1      -0.059   9.220  22.344  0.00  0.00    +0.000 A 
ENDBRANCH  19  20
ENDBRANCH  18  19
ENDBRANCH   9  18
TORSDOF 5
ENDMDL
MODEL 6
REMARK VINA RESULT:      -7.6      0.677      1.216
REMARK  Name = 
REMARK  5 active torsions:
REMARK  status: ('A' for Active; 'I' for Inactive)
REMARK    1  A    between atoms: C_5  and  C_6
REMARK    2  A    between atoms: C_6  and  N_7
REMARK    3  A    between atoms: C_15  and  O_16
REMARK    4  A    between atoms: O_16  and  C_17
REMARK    5  A    between atoms: C_17  and  C_18
REMARK                            x       y       z     vdW  Elec       q    Type
REMARK                         _______ _______ _______ _____ _____    ______ ____
ROOT
ATOM      1  N   UNL     1       3.750   4.204  18.774  0.00  0.00    +0.000 NA
ATOM      2  C   UNL     1       3.496   3.356  19.977  0.00  0.00    +0.000 C 
ATOM      3  C   UNL     1       2.231   3.717  20.804  0.00  0.00    +0.000 C 
ATOM      4  O   UNL     1       2.175   5.122  21.126  0.00  0.00    +0.000 OA
ATOM      5  C   UNL     1       2.110   5.837  19.896  0.00  0.00    +0.000 C 
ATOM      6  C   UNL     1       3.387   5.601  19.100  0.00  0.00    +0.000 C 
ATOM      7  C   UNL     1       3.137   6.542  17.923  0.00  0.00    +0.000 C 
ATOM      8  C   UNL     1       2.744   7.831  18.654  0.00  0.00    +0.000 C 
ATOM      9  C   UNL     1       2.178   7.371  20.018  0.00  0.00    +0.000 C 
ENDROOT
BRANCH   1  10
ATOM     10  C   UNL     1       5.211   4.271  18.496  0.00  0.00    +0.000 C 
BRANCH  10  15
ATOM     11  F   UNL     1       7.150   5.115  13.316  0.00  0.00    +0.000 F 
ATOM     12  C   UNL     1       6.710   4.776  14.535  0.00  0.00    +0.000 A 
ATOM     13  C   UNL     1       5.395   4.344  14.697  0.00  0.00    +0.000 A 
ATOM     14  C   UNL     1       4.905   4.062  15.976  0.00  0.00    +0.000 A 
ATOM     15  C   UNL     1       5.740   4.213  17.088  0.00  0.00    +0.000 A 
ATOM     16  C   UNL     1       7.079   4.615  16.894  0.00  0.00    +0.000 A 
ATOM     17  C   UNL     1       7.561   4.902  15.621  0.00  0.00    +0.000 A 
ENDBRANCH  10  15
ENDBRANCH   1  10
BRANCH   9  18
ATOM     18  O   UNL     1       0.918   7.984  20.223  0.00  0.00    +0.000 OA
BRANCH  18  19
ATOM     19  C   UNL     1       0.632   8.187  21.603  0.00  0.00    +0.000 C 
BRANCH  19  20
ATOM     20  C   UNL     1      -0.109   9.488  21.705  0.00  0.00    +0.000 A 
ATOM     21  C   UNL     1      -0.331  10.251  20.552  0.00  0.00    +0.000 A 
ATOM     22  C   UNL     1      -0.992  11.459  20.676  0.00  0.00    +0.000 A 
ATOM     23  N   UNL     1      -1.455  11.943  21.846  0.00  0.00    +0.000 NA
ATOM     24  C   UNL     1      -1.233  11.188  22.948  0.00  0.00    +0.000 A 
ATOM     25  C   UNL     1      -0.570   9.970  22.926  0.00  0.00    +0.000 A 
ENDBRANCH  19  20
ENDBRANCH  18  19
ENDBRANCH   9  18
TORSDOF 5
ENDMDL
MODEL 7
REMARK VINA RESULT:      -7.5      1.887      2.301
REMARK  Name = 
REMARK  5 active torsions:
REMARK  status: ('A' for Active; 'I' for Inactive)
REMARK    1  A    between atoms: C_5  and  C_6
REMARK    2  A    between atoms: C_6  and  N_7
REMARK    3  A    between atoms: C_15  and  O_16
REMARK    4  A    between atoms: O_16  and  C_17
REMARK    5  A    between atoms: C_17  and  C_18
REMARK                            x       y       z     vdW  Elec       q    Type
REMARK                         _______ _______ _______ _____ _____    ______ ____
ROOT
ATOM      1  N   UNL     1       3.187   4.576  17.881  0.00  0.00    +0.000 NA
ATOM      2  C   UNL     1       3.272   3.484  18.896  0.00  0.00    +0.000 C 
ATOM      3  C   UNL     1       2.301   3.604  20.103  0.00  0.00    +0.000 C 
ATOM      4  O   UNL     1       2.362   4.906  20.722  0.00  0.00    +0.000 OA
ATOM      5  C   UNL     1       1.962   5.860  19.743  0.00  0.00    +0.000 C 
ATOM      6  C   UNL     1       2.955   5.855  18.589  0.00  0.00    +0.000 C 
ATOM      7  C   UNL     1       2.396   7.011  17.762  0.00  0.00    +0.000 C 
ATOM      8  C   UNL     1       2.249   8.098  18.832  0.00  0.00    +0.000 C 
ATOM      9  C   UNL     1       2.087   7.335  20.169  0.00  0.00    +0.000 C 
ENDROOT
BRANCH   1  10
ATOM     10  C   UNL     1       4.510   4.768  17.225  0.00  0.00    +0.000 C 
BRANCH  10  15
ATOM     11  F   UNL     1       9.015   7.751  18.677  0.00  0.00    +0.000 F 
ATOM     12  C   UNL     1       7.868   7.103  18.433  0.00  0.00    +0.000 A 
ATOM     13  C   UNL     1       7.548   5.967  19.174  0.00  0.00    +0.000 A 
ATOM     14  C   UNL     1       6.391   5.240  18.875  0.00  0.00    +0.000 A 
ATOM     15  C   UNL     1       5.559   5.660  17.832  0.00  0.00    +0.000 A 
ATOM     16  C   UNL     1       5.884   6.835  17.122  0.00  0.00    +0.000 A 
ATOM     17  C   UNL     1       7.039   7.552  17.417  0.00  0.00    +0.000 A 
ENDBRANCH  10  15
ENDBRANCH   1  10
BRANCH   9  18
ATOM     18  O   UNL     1       0.948   7.833  20.847  0.00  0.00    +0.000 OA
BRANCH  18  19
ATOM     19  C   UNL     1       1.290   8.756  21.875  0.00  0.00    +0.000 C 
BRANCH  19  20
ATOM     20  C   UNL     1       0.230   9.820  21.873  0.00  0.00    +0.000 A 
ATOM     21  C   UNL     1      -0.118  10.448  20.671  0.00  0.00    +0.000 A 
ATOM     22  C   UNL     1      -1.076  11.444  20.700  0.00  0.00    +0.000 A 
ATOM     23  N   UNL     1      -1.713  11.838  21.820  0.00  0.00    +0.000 NA
ATOM     24  C   UNL     1      -1.364  11.216  22.971  0.00  0.00    +0.000 A 
ATOM     25  C   UNL     1      -0.406  10.215  23.045  0.00  0.00    +0.000 A 
ENDBRANCH  19  20
ENDBRANCH  18  19
ENDBRANCH   9  18
TORSDOF 5
ENDMDL
MODEL 8
REMARK VINA RESULT:      -7.5      1.902      2.454
REMARK  Name = 
REMARK  5 active torsions:
REMARK  status: ('A' for Active; 'I' for Inactive)
REMARK    1  A    between atoms: C_5  and  C_6
REMARK    2  A    between atoms: C_6  and  N_7
REMARK    3  A    between atoms: C_15  and  O_16
REMARK    4  A    between atoms: O_16  and  C_17
REMARK    5  A    between atoms: C_17  and  C_18
REMARK                            x       y       z     vdW  Elec       q    Type
REMARK                         _______ _______ _______ _____ _____    ______ ____
ROOT
ATOM      1  N   UNL     1       3.528   4.571  18.884  0.00  0.00    +0.000 NA
ATOM      2  C   UNL     1       3.121   3.947  20.178  0.00  0.00    +0.000 C 
ATOM      3  C   UNL     1       1.834   4.523  20.832  0.00  0.00    +0.000 C 
ATOM      4  O   UNL     1       1.873   5.962  20.929  0.00  0.00    +0.000 OA
ATOM      5  C   UNL     1       1.954   6.474  19.602  0.00  0.00    +0.000 C 
ATOM      6  C   UNL     1       3.260   6.024  18.961  0.00  0.00    +0.000 C 
ATOM      7  C   UNL     1       3.172   6.781  17.637  0.00  0.00    +0.000 C 
ATOM      8  C   UNL     1       2.837   8.195  18.126  0.00  0.00    +0.000 C 
ATOM      9  C   UNL     1       2.140   7.999  19.493  0.00  0.00    +0.000 C 
ENDROOT
BRANCH   1  10
ATOM     10  C   UNL     1       5.006   4.490  18.721  0.00  0.00    +0.000 C 
BRANCH  10  15
ATOM     11  F   UNL     1       7.207   4.961  13.598  0.00  0.00    +0.000 F 
ATOM     12  C   UNL     1       6.718   4.713  14.820  0.00  0.00    +0.000 A 
ATOM     13  C   UNL     1       5.440   4.174  14.955  0.00  0.00    +0.000 A 
ATOM     14  C   UNL     1       4.892   3.983  16.227  0.00  0.00    +0.000 A 
ATOM     15  C   UNL     1       5.632   4.334  17.361  0.00  0.00    +0.000 A 
ATOM     16  C   UNL     1       6.939   4.842  17.200  0.00  0.00    +0.000 A 
ATOM     17  C   UNL     1       7.478   5.037  15.933  0.00  0.00    +0.000 A 
ENDBRANCH  10  15
ENDBRANCH   1  10
BRANCH   9  18
ATOM     18  O   UNL     1       0.923   8.725  19.496  0.00  0.00    +0.000 OA
BRANCH  18  19
ATOM     19  C   UNL     1       0.993   9.902  18.699  0.00  0.00    +0.000 C 
BRANCH  19  20
ATOM     20  C   UNL     1      -0.413  10.402  18.540  0.00  0.00    +0.000 A 
ATOM     21  C   UNL     1      -1.223   9.879  17.524  0.00  0.00    +0.000 A 
ATOM     22  C   UNL     1      -2.505  10.376  17.380  0.00  0.00    +0.000 A 
ATOM     23  N   UNL     1      -3.033  11.328  18.174  0.00  0.00    +0.000 NA
ATOM     24  C   UNL     1      -2.234  11.819  19.152  0.00  0.00    +0.000 A 
ATOM     25  C   UNL     1      -0.931  11.392  19.368  0.00  0.00    +0.000 A 
ENDBRANCH  19  20
ENDBRANCH  18  19
ENDBRANCH   9  18
TORSDOF 5
ENDMDL
MODEL 9
REMARK VINA RESULT:      -7.5      4.029      8.819
REMARK  Name = 
REMARK  5 active torsions:
REMARK  status: ('A' for Active; 'I' for Inactive)
REMARK    1  A    between atoms: C_5  and  C_6
REMARK    2  A    between atoms: C_6  and  N_7
REMARK    3  A    between atoms: C_15  and  O_16
REMARK    4  A    between atoms: O_16  and  C_17
REMARK    5  A    between atoms: C_17  and  C_18
REMARK                            x       y       z     vdW  Elec       q    Type
REMARK                         _______ _______ _______ _____ _____    ______ ____
ROOT
ATOM      1  N   UNL     1       0.782   9.839  19.312  0.00  0.00    +0.000 NA
ATOM      2  C   UNL     1       0.027   9.531  20.563  0.00  0.00    +0.000 C 
ATOM      3  C   UNL     1       0.723   8.555  21.552  0.00  0.00    +0.000 C 
ATOM      4  O   UNL     1       1.174   7.351  20.897  0.00  0.00    +0.000 OA
ATOM      5  C   UNL     1       2.132   7.735  19.917  0.00  0.00    +0.000 C 
ATOM      6  C   UNL     1       1.463   8.605  18.862  0.00  0.00    +0.000 C 
ATOM      7  C   UNL     1       2.628   8.775  17.888  0.00  0.00    +0.000 C 
ATOM      8  C   UNL     1       3.084   7.322  17.716  0.00  0.00    +0.000 C 
ATOM      9  C   UNL     1       2.642   6.598  19.010  0.00  0.00    +0.000 C 
ENDROOT
BRANCH   1  10
ATOM     10  C   UNL     1      -0.165  10.148  18.206  0.00  0.00    +0.000 C 
BRANCH  10  15
ATOM     11  F   UNL     1      -5.432  12.034  18.288  0.00  0.00    +0.000 F 
ATOM     12  C   UNL     1      -4.199  11.519  18.391  0.00  0.00    +0.000 A 
ATOM     13  C   UNL     1      -3.238  12.179  19.154  0.00  0.00    +0.000 A 
ATOM     14  C   UNL     1      -1.929  11.690  19.205  0.00  0.00    +0.000 A 
ATOM     15  C   UNL     1      -1.591  10.537  18.488  0.00  0.00    +0.000 A 
ATOM     16  C   UNL     1      -2.591   9.865  17.753  0.00  0.00    +0.000 A 
ATOM     17  C   UNL     1      -3.891  10.358  17.700  0.00  0.00    +0.000 A 
ENDBRANCH  10  15
ENDBRANCH   1  10
BRANCH   9  18
ATOM     18  O   UNL     1       3.750   5.895  19.544  0.00  0.00    +0.000 OA
BRANCH  18  19
ATOM     19  C   UNL     1       3.906   4.607  18.958  0.00  0.00    +0.000 C 
BRANCH  19  20
ATOM     20  C   UNL     1       5.193   4.634  18.186  0.00  0.00    +0.000 A 
ATOM     21  C   UNL     1       5.207   4.219  16.849  0.00  0.00    +0.000 A 
ATOM     22  C   UNL     1       6.410   4.227  16.168  0.00  0.00    +0.000 A 
ATOM     23  N   UNL     1       7.576   4.629  16.711  0.00  0.00    +0.000 NA
ATOM     24  C   UNL     1       7.540   5.030  18.004  0.00  0.00    +0.000 A 
ATOM     25  C   UNL     1       6.385   5.047  18.773  0.00  0.00    +0.000 A 
ENDBRANCH  19  20
ENDBRANCH  18  19
ENDBRANCH   9  18
TORSDOF 5
ENDMDL
