MODEL 1
REMARK VINA RESULT:      -8.1      0.000      0.000
REMARK  Name = 
REMARK  8 active torsions:
REMARK  status: ('A' for Active; 'I' for Inactive)
REMARK    1  A    between atoms: C_1  and  C_2
REMARK    2  A    between atoms: C_5  and  N_6
REMARK    3  A    between atoms: N_9  and  C_10
REMARK    4  A    between atoms: C_14  and  C_15
REMARK    5  A    between atoms: C_15  and  C_17
REMARK    6  A    between atoms: C_18  and  C_19
REMARK    7  A    between atoms: N_21  and  C_22
REMARK    8  A    between atoms: C_23  and  O_24
REMARK                            x       y       z     vdW  Elec       q    Type
REMARK                         _______ _______ _______ _____ _____    ______ ____
ROOT
ATOM      1  N   UNL     1       4.059   3.805  18.838  0.00  0.00    +0.000 N 
ATOM      2  C   UNL     1       3.610   2.464  19.071  0.00  0.00    +0.000 A 
ATOM      3  O   UNL     1       3.924   1.423  18.509  0.00  0.00    +0.000 OA
ATOM      4  N   UNL     1       2.685   2.528  20.148  0.00  0.00    +0.000 N 
ATOM      5  C   UNL     1       3.418   2.156  21.364  0.00  0.00    +0.000 C 
ATOM      6  C   UNL     1       2.256   3.875  20.141  0.00  0.00    +0.000 A 
ATOM      7  C   UNL     1       1.013   4.329  20.490  0.00  0.00    +0.000 A 
ATOM      8  C   UNL     1       0.828   5.702  20.457  0.00  0.00    +0.000 A 
ATOM      9  C   UNL     1       1.901   6.617  20.247  0.00  0.00    +0.000 A 
ATOM     10  C   UNL     1       3.100   6.083  19.699  0.00  0.00    +0.000 A 
ATOM     11  C   UNL     1       3.185   4.697  19.513  0.00  0.00    +0.000 A 
ENDROOT
BRANCH   1  16
ATOM     12  C   UNL     1       7.369   5.089  14.363  0.00  0.00    +0.000 C 
ATOM     13  C   UNL     1       6.517   4.791  15.559  0.00  0.00    +0.000 A 
ATOM     14  C   UNL     1       7.033   4.839  16.863  0.00  0.00    +0.000 A 
ATOM     15  C   UNL     1       6.259   4.449  17.967  0.00  0.00    +0.000 A 
ATOM     16  C   UNL     1       4.943   4.041  17.774  0.00  0.00    +0.000 A 
ATOM     17  C   UNL     1       4.413   4.056  16.469  0.00  0.00    +0.000 A 
ATOM     18  C   UNL     1       5.188   4.418  15.370  0.00  0.00    +0.000 A 
ENDBRANCH   1  16
BRANCH   9  19
ATOM     19  C   UNL     1       1.552   8.009  20.767  0.00  0.00    +0.000 C 
ATOM     20  O   UNL     1       1.963   8.230  21.916  0.00  0.00    +0.000 OA
BRANCH  19  21
ATOM     21  C   UNL     1       0.877   9.110  20.091  0.00  0.00    +0.000 A 
ATOM     22  C   UNL     1       1.130   9.520  18.719  0.00  0.00    +0.000 A 
ATOM     23  C   UNL     1       2.090   9.025  17.684  0.00  0.00    +0.000 C 
ATOM     24  N   UNL     1       0.326  10.533  18.352  0.00  0.00    +0.000 NA
ATOM     25  N   UNL     1      -0.411  10.780  19.428  0.00  0.00    +0.000 N 
ATOM     26  C   UNL     1      -1.474  11.744  19.327  0.00  0.00    +0.000 C 
ATOM     27  C   UNL     1      -0.060  10.024  20.529  0.00  0.00    +0.000 A 
BRANCH  27  28
ATOM     28  O   UNL     1      -0.595  10.218  21.732  0.00  0.00    +0.000 OA
ATOM     29  H   UNL     1      -1.379  10.789  21.665  0.00  0.00    +0.000 HD
ENDBRANCH  27  28
ENDBRANCH  19  21
ENDBRANCH   9  19
TORSDOF 4
ENDMDL
MODEL 2
REMARK VINA RESULT:      -7.6      2.968      7.633
REMARK  Name = 
REMARK  8 active torsions:
REMARK  status: ('A' for Active; 'I' for Inactive)
REMARK    1  A    between atoms: C_1  and  C_2
REMARK    2  A    between atoms: C_5  and  N_6
REMARK    3  A    between atoms: N_9  and  C_10
REMARK    4  A    between atoms: C_14  and  C_15
REMARK    5  A    between atoms: C_15  and  C_17
REMARK    6  A    between atoms: C_18  and  C_19
REMARK    7  A    between atoms: N_21  and  C_22
REMARK    8  A    between atoms: C_23  and  O_24
REMARK                            x       y       z     vdW  Elec       q    Type
REMARK                         _______ _______ _______ _____ _____    ______ ____
ROOT
ATOM      1  N   UNL     1       2.555   6.578  19.260  0.00  0.00    +0.000 N 
ATOM      2  C   UNL     1       2.198   5.679  20.317  0.00  0.00    +0.000 A 
ATOM      3  O   UNL     1       1.419   5.834  21.249  0.00  0.00    +0.000 OA
ATOM      4  N   UNL     1       2.929   4.481  20.093  0.00  0.00    +0.000 N 
ATOM      5  C   UNL     1       2.020   3.545  19.420  0.00  0.00    +0.000 C 
ATOM      6  C   UNL     1       4.010   4.894  19.284  0.00  0.00    +0.000 A 
ATOM      7  C   UNL     1       5.272   4.365  19.289  0.00  0.00    +0.000 A 
ATOM      8  C   UNL     1       6.165   4.894  18.370  0.00  0.00    +0.000 A 
ATOM      9  C   UNL     1       5.767   5.809  17.351  0.00  0.00    +0.000 A 
ATOM     10  C   UNL     1       4.514   6.459  17.528  0.00  0.00    +0.000 A 
ATOM     11  C   UNL     1       3.716   6.077  18.615  0.00  0.00    +0.000 A 
ENDROOT
BRANCH   1  16
ATOM     12  C   UNL     1       0.064  11.712  18.996  0.00  0.00    +0.000 C 
ATOM     13  C   UNL     1       0.681  10.350  19.093  0.00  0.00    +0.000 A 
ATOM     14  C   UNL     1       0.810   9.684  20.321  0.00  0.00    +0.000 A 
ATOM     15  C   UNL     1       1.491   8.460  20.417  0.00  0.00    +0.000 A 
ATOM     16  C   UNL     1       2.018   7.874  19.271  0.00  0.00    +0.000 A 
ATOM     17  C   UNL     1       1.829   8.519  18.032  0.00  0.00    +0.000 A 
ATOM     18  C   UNL     1       1.176   9.745  17.940  0.00  0.00    +0.000 A 
ENDBRANCH   1  16
BRANCH   9  19
ATOM     19  C   UNL     1       6.765   5.822  16.197  0.00  0.00    +0.000 C 
ATOM     20  O   UNL     1       7.761   6.530  16.408  0.00  0.00    +0.000 OA
BRANCH  19  21
ATOM     21  C   UNL     1       6.741   5.083  14.940  0.00  0.00    +0.000 A 
ATOM     22  C   UNL     1       5.833   3.989  14.639  0.00  0.00    +0.000 A 
ATOM     23  C   UNL     1       4.771   3.313  15.449  0.00  0.00    +0.000 C 
ATOM     24  N   UNL     1       6.010   3.533  13.388  0.00  0.00    +0.000 NA
ATOM     25  N   UNL     1       6.988   4.282  12.896  0.00  0.00    +0.000 N 
ATOM     26  C   UNL     1       7.342   4.128  11.509  0.00  0.00    +0.000 C 
ATOM     27  C   UNL     1       7.530   5.163  13.810  0.00  0.00    +0.000 A 
BRANCH  27  28
ATOM     28  O   UNL     1       8.601   5.905  13.543  0.00  0.00    +0.000 OA
ATOM     29  H   UNL     1       9.403   5.354  13.540  0.00  0.00    +0.000 HD
ENDBRANCH  27  28
ENDBRANCH  19  21
ENDBRANCH   9  19
TORSDOF 4
ENDMDL
MODEL 3
REMARK VINA RESULT:      -7.4      1.013      1.833
REMARK  Name = 
REMARK  8 active torsions:
REMARK  status: ('A' for Active; 'I' for Inactive)
REMARK    1  A    between atoms: C_1  and  C_2
REMARK    2  A    between atoms: C_5  and  N_6
REMARK    3  A    between atoms: N_9  and  C_10
REMARK    4  A    between atoms: C_14  and  C_15
REMARK    5  A    between atoms: C_15  and  C_17
REMARK    6  A    between atoms: C_18  and  C_19
REMARK    7  A    between atoms: N_21  and  C_22
REMARK    8  A    between atoms: C_23  and  O_24
REMARK                            x       y       z     vdW  Elec       q    Type
REMARK                         _______ _______ _______ _____ _____    ______ ____
ROOT
ATOM      1  N   UNL     1       4.006   4.059  18.565  0.00  0.00    +0.000 N 
ATOM      2  C   UNL     1       3.601   2.698  18.759  0.00  0.00    +0.000 A 
ATOM      3  O   UNL     1       3.887   1.696  18.117  0.00  0.00    +0.000 OA
ATOM      4  N   UNL     1       2.765   2.684  19.908  0.00  0.00    +0.000 N 
ATOM      5  C   UNL     1       3.601   2.263  21.039  0.00  0.00    +0.000 C 
ATOM      6  C   UNL     1       2.313   4.018  20.011  0.00  0.00    +0.000 A 
ATOM      7  C   UNL     1       1.096   4.426  20.483  0.00  0.00    +0.000 A 
ATOM      8  C   UNL     1       0.884   5.794  20.541  0.00  0.00    +0.000 A 
ATOM      9  C   UNL     1       1.920   6.743  20.298  0.00  0.00    +0.000 A 
ATOM     10  C   UNL     1       3.080   6.266  19.626  0.00  0.00    +0.000 A 
ATOM     11  C   UNL     1       3.174   4.894  19.357  0.00  0.00    +0.000 A 
ENDROOT
BRANCH   1  16
ATOM     12  C   UNL     1       7.500   4.985  14.142  0.00  0.00    +0.000 C 
ATOM     13  C   UNL     1       6.564   4.705  15.278  0.00  0.00    +0.000 A 
ATOM     14  C   UNL     1       5.193   4.488  15.070  0.00  0.00    +0.000 A 
ATOM     15  C   UNL     1       4.307   4.341  16.148  0.00  0.00    +0.000 A 
ATOM     16  C   UNL     1       4.797   4.372  17.449  0.00  0.00    +0.000 A 
ATOM     17  C   UNL     1       6.183   4.526  17.648  0.00  0.00    +0.000 A 
ATOM     18  C   UNL     1       7.059   4.699  16.580  0.00  0.00    +0.000 A 
ENDBRANCH   1  16
BRANCH   9  19
ATOM     19  C   UNL     1       1.590   8.096  20.920  0.00  0.00    +0.000 C 
ATOM     20  O   UNL     1       2.204   8.324  21.973  0.00  0.00    +0.000 OA
BRANCH  19  21
ATOM     21  C   UNL     1       0.725   9.160  20.424  0.00  0.00    +0.000 A 
ATOM     22  C   UNL     1      -0.228   9.899  21.237  0.00  0.00    +0.000 A 
ATOM     23  C   UNL     1      -0.615   9.791  22.678  0.00  0.00    +0.000 C 
ATOM     24  N   UNL     1      -0.851  10.851  20.521  0.00  0.00    +0.000 NA
ATOM     25  N   UNL     1      -0.340  10.738  19.302  0.00  0.00    +0.000 N 
ATOM     26  C   UNL     1      -0.713  11.709  18.307  0.00  0.00    +0.000 C 
ATOM     27  C   UNL     1       0.537   9.681  19.160  0.00  0.00    +0.000 A 
BRANCH  27  28
ATOM     28  O   UNL     1       1.050   9.328  17.985  0.00  0.00    +0.000 OA
ATOM     29  H   UNL     1       2.020   9.403  18.002  0.00  0.00    +0.000 HD
ENDBRANCH  27  28
ENDBRANCH  19  21
ENDBRANCH   9  19
TORSDOF 4
ENDMDL
MODEL 4
REMARK VINA RESULT:      -7.0      2.882      7.638
REMARK  Name = 
REMARK  8 active torsions:
REMARK  status: ('A' for Active; 'I' for Inactive)
REMARK    1  A    between atoms: C_1  and  C_2
REMARK    2  A    between atoms: C_5  and  N_6
REMARK    3  A    between atoms: N_9  and  C_10
REMARK    4  A    between atoms: C_14  and  C_15
REMARK    5  A    between atoms: C_15  and  C_17
REMARK    6  A    between atoms: C_18  and  C_19
REMARK    7  A    between atoms: N_21  and  C_22
REMARK    8  A    between atoms: C_23  and  O_24
REMARK                            x       y       z     vdW  Elec       q    Type
REMARK                         _______ _______ _______ _____ _____    ______ ____
ROOT
ATOM      1  N   UNL     1       2.675   6.365  18.908  0.00  0.00    +0.000 N 
ATOM      2  C   UNL     1       2.299   5.424  19.921  0.00  0.00    +0.000 A 
ATOM      3  O   UNL     1       1.561   5.565  20.887  0.00  0.00    +0.000 OA
ATOM      4  N   UNL     1       2.950   4.202  19.600  0.00  0.00    +0.000 N 
ATOM      5  C   UNL     1       1.966   3.364  18.904  0.00  0.00    +0.000 C 
ATOM      6  C   UNL     1       4.027   4.602  18.779  0.00  0.00    +0.000 A 
ATOM      7  C   UNL     1       5.255   4.003  18.707  0.00  0.00    +0.000 A 
ATOM      8  C   UNL     1       6.148   4.535  17.790  0.00  0.00    +0.000 A 
ATOM      9  C   UNL     1       5.773   5.533  16.844  0.00  0.00    +0.000 A 
ATOM     10  C   UNL     1       4.567   6.242  17.103  0.00  0.00    +0.000 A 
ATOM     11  C   UNL     1       3.783   5.840  18.193  0.00  0.00    +0.000 A 
ENDROOT
BRANCH   1  16
ATOM     12  C   UNL     1       0.519  11.654  19.006  0.00  0.00    +0.000 C 
ATOM     13  C   UNL     1       1.046  10.251  19.003  0.00  0.00    +0.000 A 
ATOM     14  C   UNL     1       1.045   9.461  20.163  0.00  0.00    +0.000 A 
ATOM     15  C   UNL     1       1.643   8.191  20.178  0.00  0.00    +0.000 A 
ATOM     16  C   UNL     1       2.216   7.687  19.016  0.00  0.00    +0.000 A 
ATOM     17  C   UNL     1       2.156   8.461  17.840  0.00  0.00    +0.000 A 
ATOM     18  C   UNL     1       1.586   9.731  17.830  0.00  0.00    +0.000 A 
ENDBRANCH   1  16
BRANCH   9  19
ATOM     19  C   UNL     1       6.733   5.561  15.658  0.00  0.00    +0.000 C 
ATOM     20  O   UNL     1       7.760   6.225  15.863  0.00  0.00    +0.000 OA
BRANCH  19  21
ATOM     21  C   UNL     1       6.642   4.877  14.373  0.00  0.00    +0.000 A 
ATOM     22  C   UNL     1       7.562   5.071  13.264  0.00  0.00    +0.000 A 
ATOM     23  C   UNL     1       8.747   5.967  13.088  0.00  0.00    +0.000 C 
ATOM     24  N   UNL     1       7.258   4.272  12.227  0.00  0.00    +0.000 NA
ATOM     25  N   UNL     1       6.190   3.595  12.631  0.00  0.00    +0.000 N 
ATOM     26  C   UNL     1       5.679   2.549  11.785  0.00  0.00    +0.000 C 
ATOM     27  C   UNL     1       5.719   3.983  13.869  0.00  0.00    +0.000 A 
BRANCH  27  28
ATOM     28  O   UNL     1       4.586   3.513  14.384  0.00  0.00    +0.000 OA
ATOM     29  H   UNL     1       4.494   3.792  15.311  0.00  0.00    +0.000 HD
ENDBRANCH  27  28
ENDBRANCH  19  21
ENDBRANCH   9  19
TORSDOF 4
ENDMDL
MODEL 5
REMARK VINA RESULT:      -6.9      1.582      2.089
REMARK  Name = 
REMARK  8 active torsions:
REMARK  status: ('A' for Active; 'I' for Inactive)
REMARK    1  A    between atoms: C_1  and  C_2
REMARK    2  A    between atoms: C_5  and  N_6
REMARK    3  A    between atoms: N_9  and  C_10
REMARK    4  A    between atoms: C_14  and  C_15
REMARK    5  A    between atoms: C_15  and  C_17
REMARK    6  A    between atoms: C_18  and  C_19
REMARK    7  A    between atoms: N_21  and  C_22
REMARK    8  A    between atoms: C_23  and  O_24
REMARK                            x       y       z     vdW  Elec       q    Type
REMARK                         _______ _______ _______ _____ _____    ______ ____
ROOT
ATOM      1  N   UNL     1       4.541   4.181  17.456  0.00  0.00    +0.000 N 
ATOM      2  C   UNL     1       4.125   2.885  17.906  0.00  0.00    +0.000 A 
ATOM      3  O   UNL     1       4.447   1.775  17.502  0.00  0.00    +0.000 OA
ATOM      4  N   UNL     1       3.226   3.099  18.985  0.00  0.00    +0.000 N 
ATOM      5  C   UNL     1       3.997   2.932  20.223  0.00  0.00    +0.000 C 
ATOM      6  C   UNL     1       2.769   4.421  18.782  0.00  0.00    +0.000 A 
ATOM      7  C   UNL     1       1.527   4.903  19.091  0.00  0.00    +0.000 A 
ATOM      8  C   UNL     1       1.313   6.251  18.852  0.00  0.00    +0.000 A 
ATOM      9  C   UNL     1       2.361   7.141  18.475  0.00  0.00    +0.000 A 
ATOM     10  C   UNL     1       3.557   6.548  17.983  0.00  0.00    +0.000 A 
ATOM     11  C   UNL     1       3.665   5.152  18.009  0.00  0.00    +0.000 A 
ENDROOT
BRANCH   1  16
ATOM     12  C   UNL     1       7.716   4.819  12.751  0.00  0.00    +0.000 C 
ATOM     13  C   UNL     1       6.900   4.693  14.001  0.00  0.00    +0.000 A 
ATOM     14  C   UNL     1       7.452   4.927  15.270  0.00  0.00    +0.000 A 
ATOM     15  C   UNL     1       6.712   4.697  16.440  0.00  0.00    +0.000 A 
ATOM     16  C   UNL     1       5.394   4.264  16.345  0.00  0.00    +0.000 A 
ATOM     17  C   UNL     1       4.827   4.093  15.066  0.00  0.00    +0.000 A 
ATOM     18  C   UNL     1       5.568   4.296  13.906  0.00  0.00    +0.000 A 
ENDBRANCH   1  16
BRANCH   9  19
ATOM     19  C   UNL     1       1.997   8.590  18.783  0.00  0.00    +0.000 C 
ATOM     20  O   UNL     1       2.506   9.409  18.003  0.00  0.00    +0.000 OA
BRANCH  19  21
ATOM     21  C   UNL     1       1.102   9.126  19.802  0.00  0.00    +0.000 A 
ATOM     22  C   UNL     1      -0.051   9.970  19.531  0.00  0.00    +0.000 A 
ATOM     23  C   UNL     1      -0.607  10.533  18.262  0.00  0.00    +0.000 C 
ATOM     24  N   UNL     1      -0.715  10.272  20.660  0.00  0.00    +0.000 NA
ATOM     25  N   UNL     1      -0.031   9.666  21.621  0.00  0.00    +0.000 N 
ATOM     26  C   UNL     1      -0.557   9.690  22.961  0.00  0.00    +0.000 C 
ATOM     27  C   UNL     1       1.120   9.044  21.180  0.00  0.00    +0.000 A 
BRANCH  27  28
ATOM     28  O   UNL     1       2.002   8.495  22.010  0.00  0.00    +0.000 OA
ATOM     29  H   UNL     1       2.203   9.103  22.742  0.00  0.00    +0.000 HD
ENDBRANCH  27  28
ENDBRANCH  19  21
ENDBRANCH   9  19
TORSDOF 4
ENDMDL
MODEL 6
REMARK VINA RESULT:      -6.9      2.488      9.114
REMARK  Name = 
REMARK  8 active torsions:
REMARK  status: ('A' for Active; 'I' for Inactive)
REMARK    1  A    between atoms: C_1  and  C_2
REMARK    2  A    between atoms: C_5  and  N_6
REMARK    3  A    between atoms: N_9  and  C_10
REMARK    4  A    between atoms: C_14  and  C_15
REMARK    5  A    between atoms: C_15  and  C_17
REMARK    6  A    between atoms: C_18  and  C_19
REMARK    7  A    between atoms: N_21  and  C_22
REMARK    8  A    between atoms: C_23  and  O_24
REMARK                            x       y       z     vdW  Elec       q    Type
REMARK                         _______ _______ _______ _____ _____    ______ ____
ROOT
ATOM      1  N   UNL     1       0.106  11.604  20.147  0.00  0.00    +0.000 N 
ATOM      2  C   UNL     1       0.308  12.621  19.158  0.00  0.00    +0.000 A 
ATOM      3  O   UNL     1      -0.291  13.674  18.984  0.00  0.00    +0.000 OA
ATOM      4  N   UNL     1       1.404  12.197  18.359  0.00  0.00    +0.000 N 
ATOM      5  C   UNL     1       2.594  12.895  18.861  0.00  0.00    +0.000 C 
ATOM      6  C   UNL     1       1.445  10.800  18.562  0.00  0.00    +0.000 A 
ATOM      7  C   UNL     1       1.832   9.861  17.645  0.00  0.00    +0.000 A 
ATOM      8  C   UNL     1       1.844   8.545  18.079  0.00  0.00    +0.000 A 
ATOM      9  C   UNL     1       1.641   8.184  19.443  0.00  0.00    +0.000 A 
ATOM     10  C   UNL     1       1.054   9.168  20.285  0.00  0.00    +0.000 A 
ATOM     11  C   UNL     1       0.824  10.444  19.754  0.00  0.00    +0.000 A 
ENDROOT
BRANCH   1  16
ATOM     12  C   UNL     1      -3.988  12.421  24.046  0.00  0.00    +0.000 C 
ATOM     13  C   UNL     1      -2.923  12.251  23.006  0.00  0.00    +0.000 A 
ATOM     14  C   UNL     1      -3.148  12.575  21.659  0.00  0.00    +0.000 A 
ATOM     15  C   UNL     1      -2.184  12.305  20.676  0.00  0.00    +0.000 A 
ATOM     16  C   UNL     1      -0.967  11.740  21.041  0.00  0.00    +0.000 A 
ATOM     17  C   UNL     1      -0.725  11.476  22.405  0.00  0.00    +0.000 A 
ATOM     18  C   UNL     1      -1.690  11.719  23.377  0.00  0.00    +0.000 A 
ENDBRANCH   1  16
BRANCH   9  19
ATOM     19  C   UNL     1       2.208   6.799  19.740  0.00  0.00    +0.000 C 
ATOM     20  O   UNL     1       2.097   6.459  20.927  0.00  0.00    +0.000 OA
BRANCH  19  21
ATOM     21  C   UNL     1       2.789   5.818  18.830  0.00  0.00    +0.000 A 
ATOM     22  C   UNL     1       2.276   4.473  18.624  0.00  0.00    +0.000 A 
ATOM     23  C   UNL     1       1.135   3.728  19.243  0.00  0.00    +0.000 C 
ATOM     24  N   UNL     1       2.985   3.813  17.693  0.00  0.00    +0.000 NA
ATOM     25  N   UNL     1       3.919   4.676  17.313  0.00  0.00    +0.000 N 
ATOM     26  C   UNL     1       4.783   4.317  16.220  0.00  0.00    +0.000 C 
ATOM     27  C   UNL     1       3.910   5.858  18.026  0.00  0.00    +0.000 A 
BRANCH  27  28
ATOM     28  O   UNL     1       4.847   6.791  17.880  0.00  0.00    +0.000 OA
ATOM     29  H   UNL     1       4.447   7.677  17.886  0.00  0.00    +0.000 HD
ENDBRANCH  27  28
ENDBRANCH  19  21
ENDBRANCH   9  19
TORSDOF 4
ENDMDL
MODEL 7
REMARK VINA RESULT:      -6.9      1.090      1.752
REMARK  Name = 
REMARK  8 active torsions:
REMARK  status: ('A' for Active; 'I' for Inactive)
REMARK    1  A    between atoms: C_1  and  C_2
REMARK    2  A    between atoms: C_5  and  N_6
REMARK    3  A    between atoms: N_9  and  C_10
REMARK    4  A    between atoms: C_14  and  C_15
REMARK    5  A    between atoms: C_15  and  C_17
REMARK    6  A    between atoms: C_18  and  C_19
REMARK    7  A    between atoms: N_21  and  C_22
REMARK    8  A    between atoms: C_23  and  O_24
REMARK                            x       y       z     vdW  Elec       q    Type
REMARK                         _______ _______ _______ _____ _____    ______ ____
ROOT
ATOM      1  N   UNL     1       4.078   3.757  18.762  0.00  0.00    +0.000 N 
ATOM      2  C   UNL     1       3.665   2.406  19.003  0.00  0.00    +0.000 A 
ATOM      3  O   UNL     1       4.005   1.371  18.445  0.00  0.00    +0.000 OA
ATOM      4  N   UNL     1       2.742   2.451  20.083  0.00  0.00    +0.000 N 
ATOM      5  C   UNL     1       3.489   2.104  21.298  0.00  0.00    +0.000 C 
ATOM      6  C   UNL     1       2.279   3.786  20.071  0.00  0.00    +0.000 A 
ATOM      7  C   UNL     1       1.026   4.209  20.422  0.00  0.00    +0.000 A 
ATOM      8  C   UNL     1       0.805   5.577  20.384  0.00  0.00    +0.000 A 
ATOM      9  C   UNL     1       1.853   6.519  20.166  0.00  0.00    +0.000 A 
ATOM     10  C   UNL     1       3.064   6.013  19.616  0.00  0.00    +0.000 A 
ATOM     11  C   UNL     1       3.184   4.629  19.436  0.00  0.00    +0.000 A 
ENDROOT
BRANCH   1  16
ATOM     12  C   UNL     1       7.347   5.117  14.279  0.00  0.00    +0.000 C 
ATOM     13  C   UNL     1       6.507   4.798  15.478  0.00  0.00    +0.000 A 
ATOM     14  C   UNL     1       7.036   4.821  16.777  0.00  0.00    +0.000 A 
ATOM     15  C   UNL     1       6.271   4.411  17.881  0.00  0.00    +0.000 A 
ATOM     16  C   UNL     1       4.953   4.011  17.694  0.00  0.00    +0.000 A 
ATOM     17  C   UNL     1       4.410   4.052  16.394  0.00  0.00    +0.000 A 
ATOM     18  C   UNL     1       5.175   4.433  15.296  0.00  0.00    +0.000 A 
ENDBRANCH   1  16
BRANCH   9  19
ATOM     19  C   UNL     1       1.470   7.903  20.680  0.00  0.00    +0.000 C 
ATOM     20  O   UNL     1       1.228   7.934  21.896  0.00  0.00    +0.000 OA
BRANCH  19  21
ATOM     21  C   UNL     1       1.416   9.176  19.970  0.00  0.00    +0.000 A 
ATOM     22  C   UNL     1       0.703  10.354  20.435  0.00  0.00    +0.000 A 
ATOM     23  C   UNL     1      -0.148  10.603  21.640  0.00  0.00    +0.000 C 
ATOM     24  N   UNL     1       0.870  11.392  19.597  0.00  0.00    +0.000 NA
ATOM     25  N   UNL     1       1.646  10.918  18.631  0.00  0.00    +0.000 N 
ATOM     26  C   UNL     1       2.121  11.828  17.622  0.00  0.00    +0.000 C 
ATOM     27  C   UNL     1       1.926   9.572  18.750  0.00  0.00    +0.000 A 
BRANCH  27  28
ATOM     28  O   UNL     1       2.579   8.890  17.813  0.00  0.00    +0.000 OA
ATOM     29  H   UNL     1       2.218   9.093  16.933  0.00  0.00    +0.000 HD
ENDBRANCH  27  28
ENDBRANCH  19  21
ENDBRANCH   9  19
TORSDOF 4
ENDMDL
MODEL 8
REMARK VINA RESULT:      -6.8      4.669      8.094
REMARK  Name = 
REMARK  8 active torsions:
REMARK  status: ('A' for Active; 'I' for Inactive)
REMARK    1  A    between atoms: C_1  and  C_2
REMARK    2  A    between atoms: C_5  and  N_6
REMARK    3  A    between atoms: N_9  and  C_10
REMARK    4  A    between atoms: C_14  and  C_15
REMARK    5  A    between atoms: C_15  and  C_17
REMARK    6  A    between atoms: C_18  and  C_19
REMARK    7  A    between atoms: N_21  and  C_22
REMARK    8  A    between atoms: C_23  and  O_24
REMARK                            x       y       z     vdW  Elec       q    Type
REMARK                         _______ _______ _______ _____ _____    ______ ____
ROOT
ATOM      1  N   UNL     1       0.133  10.830  19.145  0.00  0.00    +0.000 N 
ATOM      2  C   UNL     1      -1.113  10.925  18.444  0.00  0.00    +0.000 A 
ATOM      3  O   UNL     1      -1.736  10.067  17.833  0.00  0.00    +0.000 OA
ATOM      4  N   UNL     1      -1.559  12.266  18.591  0.00  0.00    +0.000 N 
ATOM      5  C   UNL     1      -2.538  12.273  19.686  0.00  0.00    +0.000 C 
ATOM      6  C   UNL     1      -0.378  12.981  18.890  0.00  0.00    +0.000 A 
ATOM      7  C   UNL     1      -0.102  14.272  18.531  0.00  0.00    +0.000 A 
ATOM      8  C   UNL     1       1.103  14.791  18.978  0.00  0.00    +0.000 A 
ATOM      9  C   UNL     1       1.939  14.103  19.905  0.00  0.00    +0.000 A 
ATOM     10  C   UNL     1       1.698  12.711  20.074  0.00  0.00    +0.000 A 
ATOM     11  C   UNL     1       0.600  12.143  19.415  0.00  0.00    +0.000 A 
ENDROOT
BRANCH   1  16
ATOM     12  C   UNL     1       3.347   6.116  18.856  0.00  0.00    +0.000 C 
ATOM     13  C   UNL     1       2.525   7.364  18.973  0.00  0.00    +0.000 A 
ATOM     14  C   UNL     1       1.876   7.710  20.168  0.00  0.00    +0.000 A 
ATOM     15  C   UNL     1       1.017   8.819  20.234  0.00  0.00    +0.000 A 
ATOM     16  C   UNL     1       0.833   9.614  19.109  0.00  0.00    +0.000 A 
ATOM     17  C   UNL     1       1.539   9.296  17.931  0.00  0.00    +0.000 A 
ATOM     18  C   UNL     1       2.370   8.182  17.857  0.00  0.00    +0.000 A 
ENDBRANCH   1  16
BRANCH   9  19
ATOM     19  C   UNL     1       2.886  15.064  20.616  0.00  0.00    +0.000 C 
ATOM     20  O   UNL     1       2.333  16.094  21.032  0.00  0.00    +0.000 OA
BRANCH  19  21
ATOM     21  C   UNL     1       4.304  14.913  20.926  0.00  0.00    +0.000 A 
ATOM     22  C   UNL     1       5.382  15.045  19.959  0.00  0.00    +0.000 A 
ATOM     23  C   UNL     1       5.383  15.308  18.487  0.00  0.00    +0.000 C 
ATOM     24  N   UNL     1       6.584  14.901  20.542  0.00  0.00    +0.000 NA
ATOM     25  N   UNL     1       6.311  14.679  21.821  0.00  0.00    +0.000 N 
ATOM     26  C   UNL     1       7.403  14.603  22.755  0.00  0.00    +0.000 C 
ATOM     27  C   UNL     1       4.961  14.581  22.093  0.00  0.00    +0.000 A 
BRANCH  27  28
ATOM     28  O   UNL     1       4.495  14.234  23.290  0.00  0.00    +0.000 OA
ATOM     29  H   UNL     1       4.962  14.721  23.990  0.00  0.00    +0.000 HD
ENDBRANCH  27  28
ENDBRANCH  19  21
ENDBRANCH   9  19
TORSDOF 4
ENDMDL
MODEL 9
REMARK VINA RESULT:      -6.7      6.225      9.814
REMARK  Name = 
REMARK  8 active torsions:
REMARK  status: ('A' for Active; 'I' for Inactive)
REMARK    1  A    between atoms: C_1  and  C_2
REMARK    2  A    between atoms: C_5  and  N_6
REMARK    3  A    between atoms: N_9  and  C_10
REMARK    4  A    between atoms: C_14  and  C_15
REMARK    5  A    between atoms: C_15  and  C_17
REMARK    6  A    between atoms: C_18  and  C_19
REMARK    7  A    between atoms: N_21  and  C_22
REMARK    8  A    between atoms: C_23  and  O_24
REMARK                            x       y       z     vdW  Elec       q    Type
REMARK                         _______ _______ _______ _____ _____    ______ ____
ROOT
ATOM      1  N   UNL     1      -0.362  12.549  19.419  0.00  0.00    +0.000 N 
ATOM      2  C   UNL     1       0.710  11.688  19.015  0.00  0.00    +0.000 A 
ATOM      3  O   UNL     1       1.909  11.920  18.920  0.00  0.00    +0.000 OA
ATOM      4  N   UNL     1       0.129  10.422  18.736  0.00  0.00    +0.000 N 
ATOM      5  C   UNL     1       0.331   9.587  19.927  0.00  0.00    +0.000 C 
ATOM      6  C   UNL     1      -1.228  10.724  18.485  0.00  0.00    +0.000 A 
ATOM      7  C   UNL     1      -2.054  10.068  17.615  0.00  0.00    +0.000 A 
ATOM      8  C   UNL     1      -3.369  10.504  17.566  0.00  0.00    +0.000 A 
ATOM      9  C   UNL     1      -3.896  11.459  18.485  0.00  0.00    +0.000 A 
ATOM     10  C   UNL     1      -2.952  12.234  19.214  0.00  0.00    +0.000 A 
ATOM     11  C   UNL     1      -1.592  11.933  19.068  0.00  0.00    +0.000 A 
ENDROOT
BRANCH   1  16
ATOM     12  C   UNL     1       0.420  18.133  20.338  0.00  0.00    +0.000 C 
ATOM     13  C   UNL     1       0.183  16.667  20.133  0.00  0.00    +0.000 A 
ATOM     14  C   UNL     1       0.171  15.764  21.207  0.00  0.00    +0.000 A 
ATOM     15  C   UNL     1       0.063  14.381  20.993  0.00  0.00    +0.000 A 
ATOM     16  C   UNL     1      -0.074  13.894  19.698  0.00  0.00    +0.000 A 
ATOM     17  C   UNL     1      -0.125  14.813  18.630  0.00  0.00    +0.000 A 
ATOM     18  C   UNL     1       0.009  16.182  18.839  0.00  0.00    +0.000 A 
ENDBRANCH   1  16
BRANCH   9  19
ATOM     19  C   UNL     1      -5.417  11.372  18.562  0.00  0.00    +0.000 C 
ATOM     20  O   UNL     1      -5.964  11.208  17.461  0.00  0.00    +0.000 OA
BRANCH  19  21
ATOM     21  C   UNL     1      -6.290  11.390  19.730  0.00  0.00    +0.000 A 
ATOM     22  C   UNL     1      -7.043  10.246  20.219  0.00  0.00    +0.000 A 
ATOM     23  C   UNL     1      -7.182   8.845  19.714  0.00  0.00    +0.000 C 
ATOM     24  N   UNL     1      -7.722  10.547  21.340  0.00  0.00    +0.000 NA
ATOM     25  N   UNL     1      -7.436  11.822  21.570  0.00  0.00    +0.000 N 
ATOM     26  C   UNL     1      -7.917  12.426  22.784  0.00  0.00    +0.000 C 
ATOM     27  C   UNL     1      -6.661  12.405  20.588  0.00  0.00    +0.000 A 
BRANCH  27  28
ATOM     28  O   UNL     1      -6.380  13.706  20.575  0.00  0.00    +0.000 OA
ATOM     29  H   UNL     1      -6.185  14.002  19.670  0.00  0.00    +0.000 HD
ENDBRANCH  27  28
ENDBRANCH  19  21
ENDBRANCH   9  19
TORSDOF 4
ENDMDL
