MODEL 1
REMARK VINA RESULT:      -7.9      0.000      0.000
REMARK  Name = 
REMARK  6 active torsions:
REMARK  status: ('A' for Active; 'I' for Inactive)
REMARK    1  A    between atoms: C_1  and  C_2
REMARK    2  A    between atoms: C_2  and  C_3
REMARK    3  A    between atoms: C_3  and  C_4
REMARK    4  A    between atoms: C_4  and  C_6
REMARK    5  A    between atoms: C_12  and  C_13
REMARK    6  A    between atoms: C_13  and  C_14
REMARK                            x       y       z     vdW  Elec       q    Type
REMARK                         _______ _______ _______ _____ _____    ______ ____
ROOT
ATOM      1  C   UNL     1       3.583   3.234  18.884  0.00  0.00    +0.000 A 
ATOM      2  C   UNL     1       4.684   3.523  19.601  0.00  0.00    +0.000 A 
ATOM      3  N   UNL     1       5.854   4.027  19.083  0.00  0.00    +0.000 N 
ATOM      4  C   UNL     1       6.021   4.161  17.698  0.00  0.00    +0.000 A 
ATOM      5  C   UNL     1       7.222   4.604  17.141  0.00  0.00    +0.000 A 
ATOM      6  C   UNL     1       7.336   4.790  15.755  0.00  0.00    +0.000 A 
ATOM      7  C   UNL     1       6.248   4.552  14.901  0.00  0.00    +0.000 A 
ATOM      8  C   UNL     1       5.049   4.096  15.458  0.00  0.00    +0.000 A 
ATOM      9  C   UNL     1       4.939   3.920  16.842  0.00  0.00    +0.000 A 
ATOM     10  C   UNL     1       3.644   3.491  17.421  0.00  0.00    +0.000 A 
ATOM     11  O   UNL     1       2.667   3.372  16.691  0.00  0.00    +0.000 OA
ATOM     12  H   UNL     1       6.672   4.057  19.682  0.00  0.00    +0.000 HD
ENDROOT
BRANCH   1  13
ATOM     13  C   UNL     1       2.399   2.632  19.571  0.00  0.00    +0.000 C 
ATOM     14  O   UNL     1       1.852   1.632  19.109  0.00  0.00    +0.000 OA
BRANCH  13  15
ATOM     15  C   UNL     1       1.876   3.343  20.811  0.00  0.00    +0.000 C 
BRANCH  15  17
ATOM     16  C   UNL     1       1.810   5.836  20.606  0.00  0.00    +0.000 C 
ATOM     17  C   UNL     1       1.001   4.551  20.500  0.00  0.00    +0.000 C 
ENDBRANCH  15  17
ENDBRANCH  13  15
ENDBRANCH   1  13
BRANCH   7  18
ATOM     18  C   UNL     1       6.328   4.837  13.421  0.00  0.00    +0.000 C 
BRANCH  18  19
ATOM     19  C   UNL     1       6.286   3.626  12.520  0.00  0.00    +0.000 A 
ATOM     20  C   UNL     1       5.060   3.079  12.109  0.00  0.00    +0.000 A 
ATOM     21  C   UNL     1       5.027   2.012  11.209  0.00  0.00    +0.000 A 
ATOM     22  C   UNL     1       6.214   1.475  10.717  0.00  0.00    +0.000 A 
ATOM     23  C   UNL     1       7.437   1.994  11.136  0.00  0.00    +0.000 A 
ATOM     24  C   UNL     1       7.474   3.060  12.036  0.00  0.00    +0.000 A 
ENDBRANCH  18  19
ENDBRANCH   7  18
TORSDOF 5
ENDMDL
MODEL 2
REMARK VINA RESULT:      -7.8      3.817      6.124
REMARK  Name = 
REMARK  6 active torsions:
REMARK  status: ('A' for Active; 'I' for Inactive)
REMARK    1  A    between atoms: C_1  and  C_2
REMARK    2  A    between atoms: C_2  and  C_3
REMARK    3  A    between atoms: C_3  and  C_4
REMARK    4  A    between atoms: C_4  and  C_6
REMARK    5  A    between atoms: C_12  and  C_13
REMARK    6  A    between atoms: C_13  and  C_14
REMARK                            x       y       z     vdW  Elec       q    Type
REMARK                         _______ _______ _______ _____ _____    ______ ____
ROOT
ATOM      1  C   UNL     1       1.357   9.287  19.471  0.00  0.00    +0.000 A 
ATOM      2  C   UNL     1       1.227   8.809  20.722  0.00  0.00    +0.000 A 
ATOM      3  N   UNL     1       1.572   7.539  21.122  0.00  0.00    +0.000 N 
ATOM      4  C   UNL     1       1.983   6.583  20.182  0.00  0.00    +0.000 A 
ATOM      5  C   UNL     1       2.272   5.268  20.549  0.00  0.00    +0.000 A 
ATOM      6  C   UNL     1       2.744   4.352  19.597  0.00  0.00    +0.000 A 
ATOM      7  C   UNL     1       2.951   4.737  18.263  0.00  0.00    +0.000 A 
ATOM      8  C   UNL     1       2.649   6.051  17.893  0.00  0.00    +0.000 A 
ATOM      9  C   UNL     1       2.186   6.962  18.849  0.00  0.00    +0.000 A 
ATOM     10  C   UNL     1       1.926   8.366  18.452  0.00  0.00    +0.000 A 
ATOM     11  O   UNL     1       2.192   8.730  17.312  0.00  0.00    +0.000 OA
ATOM     12  H   UNL     1       1.286   7.230  22.044  0.00  0.00    +0.000 HD
ENDROOT
BRANCH   1  13
ATOM     13  C   UNL     1       0.883  10.672  19.164  0.00  0.00    +0.000 C 
ATOM     14  O   UNL     1       1.677  11.534  18.793  0.00  0.00    +0.000 OA
BRANCH  13  15
ATOM     15  C   UNL     1      -0.592  10.971  19.394  0.00  0.00    +0.000 C 
BRANCH  15  17
ATOM     16  C   UNL     1      -1.668  10.009  17.351  0.00  0.00    +0.000 C 
ATOM     17  C   UNL     1      -1.359  11.288  18.117  0.00  0.00    +0.000 C 
ENDBRANCH  15  17
ENDBRANCH  13  15
ENDBRANCH   1  13
BRANCH   7  18
ATOM     18  C   UNL     1       3.546   3.789  17.250  0.00  0.00    +0.000 C 
BRANCH  18  19
ATOM     19  C   UNL     1       4.928   4.142  16.757  0.00  0.00    +0.000 A 
ATOM     20  C   UNL     1       5.188   4.279  15.385  0.00  0.00    +0.000 A 
ATOM     21  C   UNL     1       6.447   4.687  14.939  0.00  0.00    +0.000 A 
ATOM     22  C   UNL     1       7.461   4.954  15.857  0.00  0.00    +0.000 A 
ATOM     23  C   UNL     1       7.221   4.799  17.220  0.00  0.00    +0.000 A 
ATOM     24  C   UNL     1       5.964   4.390  17.669  0.00  0.00    +0.000 A 
ENDBRANCH  18  19
ENDBRANCH   7  18
TORSDOF 5
ENDMDL
MODEL 3
REMARK VINA RESULT:      -7.8      3.895      6.239
REMARK  Name = 
REMARK  6 active torsions:
REMARK  status: ('A' for Active; 'I' for Inactive)
REMARK    1  A    between atoms: C_1  and  C_2
REMARK    2  A    between atoms: C_2  and  C_3
REMARK    3  A    between atoms: C_3  and  C_4
REMARK    4  A    between atoms: C_4  and  C_6
REMARK    5  A    between atoms: C_12  and  C_13
REMARK    6  A    between atoms: C_13  and  C_14
REMARK                            x       y       z     vdW  Elec       q    Type
REMARK                         _______ _______ _______ _____ _____    ______ ____
ROOT
ATOM      1  C   UNL     1       1.310   9.406  19.485  0.00  0.00    +0.000 A 
ATOM      2  C   UNL     1       1.152   8.931  20.733  0.00  0.00    +0.000 A 
ATOM      3  N   UNL     1       1.480   7.660  21.142  0.00  0.00    +0.000 N 
ATOM      4  C   UNL     1       1.904   6.700  20.212  0.00  0.00    +0.000 A 
ATOM      5  C   UNL     1       2.176   5.383  20.587  0.00  0.00    +0.000 A 
ATOM      6  C   UNL     1       2.661   4.462  19.646  0.00  0.00    +0.000 A 
ATOM      7  C   UNL     1       2.898   4.844  18.316  0.00  0.00    +0.000 A 
ATOM      8  C   UNL     1       2.613   6.159  17.938  0.00  0.00    +0.000 A 
ATOM      9  C   UNL     1       2.137   7.075  18.883  0.00  0.00    +0.000 A 
ATOM     10  C   UNL     1       1.894   8.480  18.478  0.00  0.00    +0.000 A 
ATOM     11  O   UNL     1       2.186   8.840  17.344  0.00  0.00    +0.000 OA
ATOM     12  H   UNL     1       1.173   7.354  22.059  0.00  0.00    +0.000 HD
ENDROOT
BRANCH   1  13
ATOM     13  C   UNL     1       0.852  10.794  19.166  0.00  0.00    +0.000 C 
ATOM     14  O   UNL     1       1.665  11.661  18.850  0.00  0.00    +0.000 OA
BRANCH  13  15
ATOM     15  C   UNL     1      -0.633  11.089  19.314  0.00  0.00    +0.000 C 
BRANCH  15  17
ATOM     16  C   UNL     1      -1.737  10.050  17.323  0.00  0.00    +0.000 C 
ATOM     17  C   UNL     1      -1.339  11.358  17.992  0.00  0.00    +0.000 C 
ENDBRANCH  15  17
ENDBRANCH  13  15
ENDBRANCH   1  13
BRANCH   7  18
ATOM     18  C   UNL     1       3.507   3.890  17.317  0.00  0.00    +0.000 C 
BRANCH  18  19
ATOM     19  C   UNL     1       4.889   4.250  16.828  0.00  0.00    +0.000 A 
ATOM     20  C   UNL     1       5.927   4.511  17.736  0.00  0.00    +0.000 A 
ATOM     21  C   UNL     1       7.222   4.761  17.278  0.00  0.00    +0.000 A 
ATOM     22  C   UNL     1       7.493   4.763  15.912  0.00  0.00    +0.000 A 
ATOM     23  C   UNL     1       6.466   4.529  15.000  0.00  0.00    +0.000 A 
ATOM     24  C   UNL     1       5.170   4.279  15.454  0.00  0.00    +0.000 A 
ENDBRANCH  18  19
ENDBRANCH   7  18
TORSDOF 5
ENDMDL
MODEL 4
REMARK VINA RESULT:      -7.8      4.443      8.576
REMARK  Name = 
REMARK  6 active torsions:
REMARK  status: ('A' for Active; 'I' for Inactive)
REMARK    1  A    between atoms: C_1  and  C_2
REMARK    2  A    between atoms: C_2  and  C_3
REMARK    3  A    between atoms: C_3  and  C_4
REMARK    4  A    between atoms: C_4  and  C_6
REMARK    5  A    between atoms: C_12  and  C_13
REMARK    6  A    between atoms: C_13  and  C_14
REMARK                            x       y       z     vdW  Elec       q    Type
REMARK                         _______ _______ _______ _____ _____    ______ ____
ROOT
ATOM      1  C   UNL     1       3.638   5.311  19.082  0.00  0.00    +0.000 A 
ATOM      2  C   UNL     1       3.109   5.023  20.285  0.00  0.00    +0.000 A 
ATOM      3  N   UNL     1       2.196   5.804  20.954  0.00  0.00    +0.000 N 
ATOM      4  C   UNL     1       1.839   7.066  20.457  0.00  0.00    +0.000 A 
ATOM      5  C   UNL     1       0.968   7.909  21.150  0.00  0.00    +0.000 A 
ATOM      6  C   UNL     1       0.578   9.137  20.596  0.00  0.00    +0.000 A 
ATOM      7  C   UNL     1       1.037   9.539  19.332  0.00  0.00    +0.000 A 
ATOM      8  C   UNL     1       1.919   8.700  18.644  0.00  0.00    +0.000 A 
ATOM      9  C   UNL     1       2.298   7.472  19.198  0.00  0.00    +0.000 A 
ATOM     10  C   UNL     1       3.188   6.570  18.430  0.00  0.00    +0.000 A 
ATOM     11  O   UNL     1       3.517   6.874  17.290  0.00  0.00    +0.000 OA
ATOM     12  H   UNL     1       1.985   5.578  21.920  0.00  0.00    +0.000 HD
ENDROOT
BRANCH   1  13
ATOM     13  C   UNL     1       4.669   4.399  18.499  0.00  0.00    +0.000 C 
ATOM     14  O   UNL     1       5.790   4.321  19.001  0.00  0.00    +0.000 OA
BRANCH  13  15
ATOM     15  C   UNL     1       4.292   3.636  17.237  0.00  0.00    +0.000 C 
BRANCH  15  17
ATOM     16  C   UNL     1       3.450   1.588  18.404  0.00  0.00    +0.000 C 
ATOM     17  C   UNL     1       3.105   2.698  17.421  0.00  0.00    +0.000 C 
ENDBRANCH  15  17
ENDBRANCH  13  15
ENDBRANCH   1  13
BRANCH   7  18
ATOM     18  C   UNL     1       0.553  10.813  18.683  0.00  0.00    +0.000 C 
BRANCH  18  19
ATOM     19  C   UNL     1      -0.913  10.847  18.323  0.00  0.00    +0.000 A 
ATOM     20  C   UNL     1      -1.449   9.928  17.408  0.00  0.00    +0.000 A 
ATOM     21  C   UNL     1      -2.820   9.911  17.142  0.00  0.00    +0.000 A 
ATOM     22  C   UNL     1      -3.667  10.815  17.778  0.00  0.00    +0.000 A 
ATOM     23  C   UNL     1      -3.142  11.748  18.669  0.00  0.00    +0.000 A 
ATOM     24  C   UNL     1      -1.772  11.769  18.937  0.00  0.00    +0.000 A 
ENDBRANCH  18  19
ENDBRANCH   7  18
TORSDOF 5
ENDMDL
MODEL 5
REMARK VINA RESULT:      -7.7      4.366      8.627
REMARK  Name = 
REMARK  6 active torsions:
REMARK  status: ('A' for Active; 'I' for Inactive)
REMARK    1  A    between atoms: C_1  and  C_2
REMARK    2  A    between atoms: C_2  and  C_3
REMARK    3  A    between atoms: C_3  and  C_4
REMARK    4  A    between atoms: C_4  and  C_6
REMARK    5  A    between atoms: C_12  and  C_13
REMARK    6  A    between atoms: C_13  and  C_14
REMARK                            x       y       z     vdW  Elec       q    Type
REMARK                         _______ _______ _______ _____ _____    ______ ____
ROOT
ATOM      1  C   UNL     1       4.043   5.291  18.729  0.00  0.00    +0.000 A 
ATOM      2  C   UNL     1       3.521   4.933  19.916  0.00  0.00    +0.000 A 
ATOM      3  N   UNL     1       2.570   5.645  20.608  0.00  0.00    +0.000 N 
ATOM      4  C   UNL     1       2.157   6.907  20.158  0.00  0.00    +0.000 A 
ATOM      5  C   UNL     1       1.245   7.682  20.876  0.00  0.00    +0.000 A 
ATOM      6  C   UNL     1       0.802   8.912  20.366  0.00  0.00    +0.000 A 
ATOM      7  C   UNL     1       1.248   9.383  19.122  0.00  0.00    +0.000 A 
ATOM      8  C   UNL     1       2.172   8.612  18.409  0.00  0.00    +0.000 A 
ATOM      9  C   UNL     1       2.604   7.383  18.919  0.00  0.00    +0.000 A 
ATOM     10  C   UNL     1       3.538   6.552  18.123  0.00  0.00    +0.000 A 
ATOM     11  O   UNL     1       3.859   6.915  16.997  0.00  0.00    +0.000 OA
ATOM     12  H   UNL     1       2.364   5.372  21.563  0.00  0.00    +0.000 HD
ENDROOT
BRANCH   1  13
ATOM     13  C   UNL     1       5.118   4.450  18.118  0.00  0.00    +0.000 C 
ATOM     14  O   UNL     1       6.219   4.356  18.659  0.00  0.00    +0.000 OA
BRANCH  13  15
ATOM     15  C   UNL     1       4.808   3.781  16.787  0.00  0.00    +0.000 C 
BRANCH  15  17
ATOM     16  C   UNL     1       5.707   4.899  14.736  0.00  0.00    +0.000 C 
ATOM     17  C   UNL     1       5.961   3.833  15.793  0.00  0.00    +0.000 C 
ENDBRANCH  15  17
ENDBRANCH  13  15
ENDBRANCH   1  13
BRANCH   7  18
ATOM     18  C   UNL     1       0.710  10.658  18.520  0.00  0.00    +0.000 C 
BRANCH  18  19
ATOM     19  C   UNL     1      -0.790  10.723  18.360  0.00  0.00    +0.000 A 
ATOM     20  C   UNL     1      -1.552  11.635  19.105  0.00  0.00    +0.000 A 
ATOM     21  C   UNL     1      -2.928  11.749  18.893  0.00  0.00    +0.000 A 
ATOM     22  C   UNL     1      -3.557  10.948  17.942  0.00  0.00    +0.000 A 
ATOM     23  C   UNL     1      -2.814  10.022  17.213  0.00  0.00    +0.000 A 
ATOM     24  C   UNL     1      -1.439   9.905  17.424  0.00  0.00    +0.000 A 
ENDBRANCH  18  19
ENDBRANCH   7  18
TORSDOF 5
ENDMDL
MODEL 6
REMARK VINA RESULT:      -7.7      4.174      8.461
REMARK  Name = 
REMARK  6 active torsions:
REMARK  status: ('A' for Active; 'I' for Inactive)
REMARK    1  A    between atoms: C_1  and  C_2
REMARK    2  A    between atoms: C_2  and  C_3
REMARK    3  A    between atoms: C_3  and  C_4
REMARK    4  A    between atoms: C_4  and  C_6
REMARK    5  A    between atoms: C_12  and  C_13
REMARK    6  A    between atoms: C_13  and  C_14
REMARK                            x       y       z     vdW  Elec       q    Type
REMARK                         _______ _______ _______ _____ _____    ______ ____
ROOT
ATOM      1  C   UNL     1       5.401   5.060  17.395  0.00  0.00    +0.000 A 
ATOM      2  C   UNL     1       5.078   4.500  18.574  0.00  0.00    +0.000 A 
ATOM      3  N   UNL     1       4.087   4.948  19.416  0.00  0.00    +0.000 N 
ATOM      4  C   UNL     1       3.406   6.143  19.142  0.00  0.00    +0.000 A 
ATOM      5  C   UNL     1       2.445   6.658  20.014  0.00  0.00    +0.000 A 
ATOM      6  C   UNL     1       1.734   7.820  19.680  0.00  0.00    +0.000 A 
ATOM      7  C   UNL     1       1.957   8.481  18.462  0.00  0.00    +0.000 A 
ATOM      8  C   UNL     1       2.929   7.972  17.595  0.00  0.00    +0.000 A 
ATOM      9  C   UNL     1       3.630   6.808  17.930  0.00  0.00    +0.000 A 
ATOM     10  C   UNL     1       4.615   6.250  16.973  0.00  0.00    +0.000 A 
ATOM     11  O   UNL     1       4.747   6.770  15.872  0.00  0.00    +0.000 OA
ATOM     12  H   UNL     1       4.033   4.554  20.349  0.00  0.00    +0.000 HD
ENDROOT
BRANCH   1  13
ATOM     13  C   UNL     1       6.545   4.502  16.609  0.00  0.00    +0.000 C 
ATOM     14  O   UNL     1       7.705   4.737  16.944  0.00  0.00    +0.000 OA
BRANCH  13  15
ATOM     15  C   UNL     1       6.208   3.700  15.360  0.00  0.00    +0.000 C 
BRANCH  15  17
ATOM     16  C   UNL     1       6.061   3.619  12.863  0.00  0.00    +0.000 C 
ATOM     17  C   UNL     1       6.576   4.405  14.061  0.00  0.00    +0.000 C 
ENDBRANCH  15  17
ENDBRANCH  13  15
ENDBRANCH   1  13
BRANCH   7  18
ATOM     18  C   UNL     1       1.135   9.677  18.049  0.00  0.00    +0.000 C 
BRANCH  18  19
ATOM     19  C   UNL     1       1.550  10.996  18.655  0.00  0.00    +0.000 A 
ATOM     20  C   UNL     1       2.409  11.865  17.965  0.00  0.00    +0.000 A 
ATOM     21  C   UNL     1       2.722  13.120  18.493  0.00  0.00    +0.000 A 
ATOM     22  C   UNL     1       2.190  13.515  19.718  0.00  0.00    +0.000 A 
ATOM     23  C   UNL     1       1.356  12.651  20.424  0.00  0.00    +0.000 A 
ATOM     24  C   UNL     1       1.041  11.396  19.899  0.00  0.00    +0.000 A 
ENDBRANCH  18  19
ENDBRANCH   7  18
TORSDOF 5
ENDMDL
MODEL 7
REMARK VINA RESULT:      -7.6      2.045      2.957
REMARK  Name = 
REMARK  6 active torsions:
REMARK  status: ('A' for Active; 'I' for Inactive)
REMARK    1  A    between atoms: C_1  and  C_2
REMARK    2  A    between atoms: C_2  and  C_3
REMARK    3  A    between atoms: C_3  and  C_4
REMARK    4  A    between atoms: C_4  and  C_6
REMARK    5  A    between atoms: C_12  and  C_13
REMARK    6  A    between atoms: C_13  and  C_14
REMARK                            x       y       z     vdW  Elec       q    Type
REMARK                         _______ _______ _______ _____ _____    ______ ____
ROOT
ATOM      1  C   UNL     1       2.764   4.524  20.200  0.00  0.00    +0.000 A 
ATOM      2  C   UNL     1       2.232   5.726  19.917  0.00  0.00    +0.000 A 
ATOM      3  N   UNL     1       2.681   6.578  18.935  0.00  0.00    +0.000 N 
ATOM      4  C   UNL     1       3.850   6.285  18.219  0.00  0.00    +0.000 A 
ATOM      5  C   UNL     1       4.366   7.164  17.266  0.00  0.00    +0.000 A 
ATOM      6  C   UNL     1       5.501   6.813  16.518  0.00  0.00    +0.000 A 
ATOM      7  C   UNL     1       6.131   5.572  16.697  0.00  0.00    +0.000 A 
ATOM      8  C   UNL     1       5.620   4.698  17.661  0.00  0.00    +0.000 A 
ATOM      9  C   UNL     1       4.484   5.049  18.398  0.00  0.00    +0.000 A 
ATOM     10  C   UNL     1       3.921   4.087  19.375  0.00  0.00    +0.000 A 
ATOM     11  O   UNL     1       4.412   2.968  19.469  0.00  0.00    +0.000 OA
ATOM     12  H   UNL     1       2.313   7.523  18.912  0.00  0.00    +0.000 HD
ENDROOT
BRANCH   1  13
ATOM     13  C   UNL     1       2.211   3.728  21.339  0.00  0.00    +0.000 C 
ATOM     14  O   UNL     1       2.638   3.894  22.481  0.00  0.00    +0.000 OA
BRANCH  13  15
ATOM     15  C   UNL     1       1.161   2.676  21.010  0.00  0.00    +0.000 C 
BRANCH  15  17
ATOM     16  C   UNL     1       1.118   1.858  18.645  0.00  0.00    +0.000 C 
ATOM     17  C   UNL     1       0.528   2.852  19.636  0.00  0.00    +0.000 C 
ENDBRANCH  15  17
ENDBRANCH  13  15
ENDBRANCH   1  13
BRANCH   7  18
ATOM     18  C   UNL     1       7.294   5.144  15.837  0.00  0.00    +0.000 C 
BRANCH  18  19
ATOM     19  C   UNL     1       6.946   4.716  14.432  0.00  0.00    +0.000 A 
ATOM     20  C   UNL     1       7.740   5.108  13.343  0.00  0.00    +0.000 A 
ATOM     21  C   UNL     1       7.461   4.640  12.057  0.00  0.00    +0.000 A 
ATOM     22  C   UNL     1       6.382   3.785  11.844  0.00  0.00    +0.000 A 
ATOM     23  C   UNL     1       5.572   3.408  12.912  0.00  0.00    +0.000 A 
ATOM     24  C   UNL     1       5.848   3.875  14.199  0.00  0.00    +0.000 A 
ENDBRANCH  18  19
ENDBRANCH   7  18
TORSDOF 5
ENDMDL
MODEL 8
REMARK VINA RESULT:      -7.6      4.538      8.734
REMARK  Name = 
REMARK  6 active torsions:
REMARK  status: ('A' for Active; 'I' for Inactive)
REMARK    1  A    between atoms: C_1  and  C_2
REMARK    2  A    between atoms: C_2  and  C_3
REMARK    3  A    between atoms: C_3  and  C_4
REMARK    4  A    between atoms: C_4  and  C_6
REMARK    5  A    between atoms: C_12  and  C_13
REMARK    6  A    between atoms: C_13  and  C_14
REMARK                            x       y       z     vdW  Elec       q    Type
REMARK                         _______ _______ _______ _____ _____    ______ ____
ROOT
ATOM      1  C   UNL     1       3.922   5.724  18.708  0.00  0.00    +0.000 A 
ATOM      2  C   UNL     1       3.434   5.323  19.896  0.00  0.00    +0.000 A 
ATOM      3  N   UNL     1       2.463   5.982  20.613  0.00  0.00    +0.000 N 
ATOM      4  C   UNL     1       1.990   7.232  20.191  0.00  0.00    +0.000 A 
ATOM      5  C   UNL     1       1.056   7.954  20.936  0.00  0.00    +0.000 A 
ATOM      6  C   UNL     1       0.553   9.173  20.454  0.00  0.00    +0.000 A 
ATOM      7  C   UNL     1       0.960   9.684  19.213  0.00  0.00    +0.000 A 
ATOM      8  C   UNL     1       1.906   8.966  18.473  0.00  0.00    +0.000 A 
ATOM      9  C   UNL     1       2.398   7.748  18.955  0.00  0.00    +0.000 A 
ATOM     10  C   UNL     1       3.355   6.972  18.131  0.00  0.00    +0.000 A 
ATOM     11  O   UNL     1       3.644   7.368  17.008  0.00  0.00    +0.000 OA
ATOM     12  H   UNL     1       2.283   5.684  21.566  0.00  0.00    +0.000 HD
ENDROOT
BRANCH   1  13
ATOM     13  C   UNL     1       5.024   4.941  18.068  0.00  0.00    +0.000 C 
ATOM     14  O   UNL     1       4.776   3.900  17.460  0.00  0.00    +0.000 OA
BRANCH  13  15
ATOM     15  C   UNL     1       6.445   5.450  18.259  0.00  0.00    +0.000 C 
BRANCH  15  17
ATOM     16  C   UNL     1       7.689   7.516  17.592  0.00  0.00    +0.000 C 
ATOM     17  C   UNL     1       6.961   6.277  17.089  0.00  0.00    +0.000 C 
ENDBRANCH  15  17
ENDBRANCH  13  15
ENDBRANCH   1  13
BRANCH   7  18
ATOM     18  C   UNL     1       0.359  10.944  18.640  0.00  0.00    +0.000 C 
BRANCH  18  19
ATOM     19  C   UNL     1      -1.086  10.843  18.213  0.00  0.00    +0.000 A 
ATOM     20  C   UNL     1      -1.523   9.785  17.402  0.00  0.00    +0.000 A 
ATOM     21  C   UNL     1      -2.875   9.651  17.079  0.00  0.00    +0.000 A 
ATOM     22  C   UNL     1      -3.802  10.576  17.555  0.00  0.00    +0.000 A 
ATOM     23  C   UNL     1      -3.376  11.644  18.341  0.00  0.00    +0.000 A 
ATOM     24  C   UNL     1      -2.025  11.781  18.665  0.00  0.00    +0.000 A 
ENDBRANCH  18  19
ENDBRANCH   7  18
TORSDOF 5
ENDMDL
MODEL 9
REMARK VINA RESULT:      -7.6      3.725      8.627
REMARK  Name = 
REMARK  6 active torsions:
REMARK  status: ('A' for Active; 'I' for Inactive)
REMARK    1  A    between atoms: C_1  and  C_2
REMARK    2  A    between atoms: C_2  and  C_3
REMARK    3  A    between atoms: C_3  and  C_4
REMARK    4  A    between atoms: C_4  and  C_6
REMARK    5  A    between atoms: C_12  and  C_13
REMARK    6  A    between atoms: C_13  and  C_14
REMARK                            x       y       z     vdW  Elec       q    Type
REMARK                         _______ _______ _______ _____ _____    ______ ____
ROOT
ATOM      1  C   UNL     1       5.796   5.126  16.925  0.00  0.00    +0.000 A 
ATOM      2  C   UNL     1       5.488   4.423  18.030  0.00  0.00    +0.000 A 
ATOM      3  N   UNL     1       4.466   4.725  18.899  0.00  0.00    +0.000 N 
ATOM      4  C   UNL     1       3.727   5.907  18.746  0.00  0.00    +0.000 A 
ATOM      5  C   UNL     1       2.731   6.273  19.653  0.00  0.00    +0.000 A 
ATOM      6  C   UNL     1       1.964   7.428  19.438  0.00  0.00    +0.000 A 
ATOM      7  C   UNL     1       2.167   8.230  18.305  0.00  0.00    +0.000 A 
ATOM      8  C   UNL     1       3.174   7.870  17.403  0.00  0.00    +0.000 A 
ATOM      9  C   UNL     1       3.930   6.713  17.619  0.00  0.00    +0.000 A 
ATOM     10  C   UNL     1       4.954   6.315  16.624  0.00  0.00    +0.000 A 
ATOM     11  O   UNL     1       5.071   6.960  15.589  0.00  0.00    +0.000 OA
ATOM     12  H   UNL     1       4.421   4.228  19.781  0.00  0.00    +0.000 HD
ENDROOT
BRANCH   1  13
ATOM     13  C   UNL     1       6.976   4.717  16.102  0.00  0.00    +0.000 C 
ATOM     14  O   UNL     1       8.034   4.401  16.644  0.00  0.00    +0.000 OA
BRANCH  13  15
ATOM     15  C   UNL     1       6.824   4.775  14.589  0.00  0.00    +0.000 C 
BRANCH  15  17
ATOM     16  C   UNL     1       6.073   3.500  12.571  0.00  0.00    +0.000 C 
ATOM     17  C   UNL     1       5.796   3.795  14.038  0.00  0.00    +0.000 C 
ENDBRANCH  15  17
ENDBRANCH  13  15
ENDBRANCH   1  13
BRANCH   7  18
ATOM     18  C   UNL     1       1.289   9.423  18.012  0.00  0.00    +0.000 C 
BRANCH  18  19
ATOM     19  C   UNL     1       0.910  10.264  19.207  0.00  0.00    +0.000 A 
ATOM     20  C   UNL     1       1.404  11.569  19.352  0.00  0.00    +0.000 A 
ATOM     21  C   UNL     1       0.984  12.372  20.415  0.00  0.00    +0.000 A 
ATOM     22  C   UNL     1       0.075  11.878  21.347  0.00  0.00    +0.000 A 
ATOM     23  C   UNL     1      -0.404  10.575  21.227  0.00  0.00    +0.000 A 
ATOM     24  C   UNL     1       0.015   9.770  20.166  0.00  0.00    +0.000 A 
ENDBRANCH  18  19
ENDBRANCH   7  18
TORSDOF 5
ENDMDL
