MODEL 1
REMARK VINA RESULT:      -7.5      0.000      0.000
REMARK  Name = 
REMARK  6 active torsions:
REMARK  status: ('A' for Active; 'I' for Inactive)
REMARK    1  A    between atoms: O_1  and  C_2
REMARK    2  A    between atoms: C_2  and  C_3
REMARK    3  A    between atoms: C_3  and  C_4
REMARK    4  A    between atoms: N_7  and  C_8
REMARK    5  A    between atoms: C_10  and  O_11
REMARK    6  A    between atoms: C_13  and  O_14
REMARK                            x       y       z     vdW  Elec       q    Type
REMARK                         _______ _______ _______ _____ _____    ______ ____
ROOT
ATOM      1  C   UNL     1       5.623   5.166  18.804  0.00  0.00    +0.000 A 
ATOM      2  N   UNL     1       6.503   4.940  19.820  0.00  0.00    +0.000 NA
ATOM      3  C   UNL     1       7.737   5.502  19.845  0.00  0.00    +0.000 A 
ATOM      4  N   UNL     1       8.121   6.332  18.846  0.00  0.00    +0.000 NA
ATOM      5  C   UNL     1       7.286   6.627  17.819  0.00  0.00    +0.000 A 
ATOM      6  C   UNL     1       6.009   6.056  17.763  0.00  0.00    +0.000 A 
ATOM      7 BR   UNL     1       4.862   6.631  16.317  0.00  0.00    +0.000 Br
ENDROOT
BRANCH   1  11
ATOM      8  C   UNL     1       1.720   3.974  17.780  0.00  0.00    +0.000 C 
ATOM      9  C   UNL     1       2.995   3.428  17.097  0.00  0.00    +0.000 C 
ATOM     10  C   UNL     1       4.140   3.260  18.107  0.00  0.00    +0.000 C 
ATOM     11  N   UNL     1       4.354   4.506  18.844  0.00  0.00    +0.000 N 
ATOM     12  C   UNL     1       3.196   5.105  19.501  0.00  0.00    +0.000 C 
ATOM     13  C   UNL     1       2.085   5.307  18.466  0.00  0.00    +0.000 C 
BRANCH   8  14
ATOM     14  C   UNL     1       1.087   2.936  18.750  0.00  0.00    +0.000 C 
BRANCH  14  15
ATOM     15  C   UNL     1       0.547   3.564  20.040  0.00  0.00    +0.000 C 
BRANCH  15  16
ATOM     16  O   UNL     1       0.891   2.766  21.139  0.00  0.00    +0.000 OA
ATOM     17  H   UNL     1       1.194   1.898  20.766  0.00  0.00    +0.000 HD
ENDBRANCH  15  16
ENDBRANCH  14  15
ENDBRANCH   8  14
ENDBRANCH   1  11
BRANCH   3  18
ATOM     18  O   UNL     1       8.584   5.233  20.853  0.00  0.00    +0.000 OA
ATOM     19  H   UNL     1       8.718   4.329  21.169  0.00  0.00    +0.000 HD
ENDBRANCH   3  18
BRANCH   5  20
ATOM     20  O   UNL     1       7.687   7.479  16.855  0.00  0.00    +0.000 OA
ATOM     21  H   UNL     1       7.084   7.773  16.159  0.00  0.00    +0.000 HD
ENDBRANCH   5  20
TORSDOF 6
ENDMDL
MODEL 2
REMARK VINA RESULT:      -7.0      1.165      1.853
REMARK  Name = 
REMARK  6 active torsions:
REMARK  status: ('A' for Active; 'I' for Inactive)
REMARK    1  A    between atoms: O_1  and  C_2
REMARK    2  A    between atoms: C_2  and  C_3
REMARK    3  A    between atoms: C_3  and  C_4
REMARK    4  A    between atoms: N_7  and  C_8
REMARK    5  A    between atoms: C_10  and  O_11
REMARK    6  A    between atoms: C_13  and  O_14
REMARK                            x       y       z     vdW  Elec       q    Type
REMARK                         _______ _______ _______ _____ _____    ______ ____
ROOT
ATOM      1  C   UNL     1       5.510   5.337  18.845  0.00  0.00    +0.000 A 
ATOM      2  N   UNL     1       6.393   5.102  19.857  0.00  0.00    +0.000 NA
ATOM      3  C   UNL     1       7.685   5.511  19.796  0.00  0.00    +0.000 A 
ATOM      4  N   UNL     1       8.128   6.190  18.711  0.00  0.00    +0.000 NA
ATOM      5  C   UNL     1       7.297   6.486  17.681  0.00  0.00    +0.000 A 
ATOM      6  C   UNL     1       5.960   6.071  17.712  0.00  0.00    +0.000 A 
ATOM      7 BR   UNL     1       4.838   6.641  16.245  0.00  0.00    +0.000 Br
ENDROOT
BRANCH   1  11
ATOM      8  C   UNL     1       1.969   3.850  20.563  0.00  0.00    +0.000 C 
ATOM      9  C   UNL     1       2.379   5.340  20.589  0.00  0.00    +0.000 C 
ATOM     10  C   UNL     1       3.069   5.751  19.280  0.00  0.00    +0.000 C 
ATOM     11  N   UNL     1       4.174   4.841  18.980  0.00  0.00    +0.000 N 
ATOM     12  C   UNL     1       3.880   3.411  18.959  0.00  0.00    +0.000 C 
ATOM     13  C   UNL     1       3.236   3.014  20.292  0.00  0.00    +0.000 C 
BRANCH   8  14
ATOM     14  C   UNL     1       0.823   3.577  19.547  0.00  0.00    +0.000 C 
BRANCH  14  15
ATOM     15  C   UNL     1       0.615   2.087  19.255  0.00  0.00    +0.000 C 
BRANCH  15  16
ATOM     16  O   UNL     1       1.071   1.786  17.965  0.00  0.00    +0.000 OA
ATOM     17  H   UNL     1       1.199   2.656  17.507  0.00  0.00    +0.000 HD
ENDBRANCH  15  16
ENDBRANCH  14  15
ENDBRANCH   8  14
ENDBRANCH   1  11
BRANCH   3  18
ATOM     18  O   UNL     1       8.530   5.239  20.805  0.00  0.00    +0.000 OA
ATOM     19  H   UNL     1       8.675   5.871  21.523  0.00  0.00    +0.000 HD
ENDBRANCH   3  18
BRANCH   5  20
ATOM     20  O   UNL     1       7.761   7.188  16.628  0.00  0.00    +0.000 OA
ATOM     21  H   UNL     1       7.787   8.155  16.639  0.00  0.00    +0.000 HD
ENDBRANCH   5  20
TORSDOF 6
ENDMDL
MODEL 3
REMARK VINA RESULT:      -7.0      1.414      1.503
REMARK  Name = 
REMARK  6 active torsions:
REMARK  status: ('A' for Active; 'I' for Inactive)
REMARK    1  A    between atoms: O_1  and  C_2
REMARK    2  A    between atoms: C_2  and  C_3
REMARK    3  A    between atoms: C_3  and  C_4
REMARK    4  A    between atoms: N_7  and  C_8
REMARK    5  A    between atoms: C_10  and  O_11
REMARK    6  A    between atoms: C_13  and  O_14
REMARK                            x       y       z     vdW  Elec       q    Type
REMARK                         _______ _______ _______ _____ _____    ______ ____
ROOT
ATOM      1  C   UNL     1       5.547   4.619  18.764  0.00  0.00    +0.000 A 
ATOM      2  N   UNL     1       6.535   4.910  19.655  0.00  0.00    +0.000 NA
ATOM      3  C   UNL     1       7.823   5.093  19.271  0.00  0.00    +0.000 A 
ATOM      4  N   UNL     1       8.155   5.004  17.960  0.00  0.00    +0.000 NA
ATOM      5  C   UNL     1       7.217   4.748  17.015  0.00  0.00    +0.000 A 
ATOM      6  C   UNL     1       5.882   4.548  17.382  0.00  0.00    +0.000 A 
ATOM      7 BR   UNL     1       4.612   4.301  15.947  0.00  0.00    +0.000 Br
ENDROOT
BRANCH   1  11
ATOM      8  C   UNL     1       1.402   3.901  18.881  0.00  0.00    +0.000 C 
ATOM      9  C   UNL     1       2.462   2.797  18.659  0.00  0.00    +0.000 C 
ATOM     10  C   UNL     1       3.721   3.056  19.501  0.00  0.00    +0.000 C 
ATOM     11  N   UNL     1       4.221   4.410  19.263  0.00  0.00    +0.000 N 
ATOM     12  C   UNL     1       3.279   5.513  19.427  0.00  0.00    +0.000 C 
ATOM     13  C   UNL     1       2.054   5.258  18.543  0.00  0.00    +0.000 C 
BRANCH   8  14
ATOM     14  C   UNL     1       0.796   3.849  20.313  0.00  0.00    +0.000 C 
BRANCH  14  15
ATOM     15  C   UNL     1       1.279   2.647  21.131  0.00  0.00    +0.000 C 
BRANCH  15  16
ATOM     16  O   UNL     1       1.969   3.090  22.267  0.00  0.00    +0.000 OA
ATOM     17  H   UNL     1       2.852   3.409  21.947  0.00  0.00    +0.000 HD
ENDBRANCH  15  16
ENDBRANCH  14  15
ENDBRANCH   8  14
ENDBRANCH   1  11
BRANCH   3  18
ATOM     18  O   UNL     1       8.773   5.355  20.184  0.00  0.00    +0.000 OA
ATOM     19  H   UNL     1       9.699   5.118  20.028  0.00  0.00    +0.000 HD
ENDBRANCH   3  18
BRANCH   5  20
ATOM     20  O   UNL     1       7.575   4.695  15.716  0.00  0.00    +0.000 OA
ATOM     21  H   UNL     1       7.909   5.475  15.253  0.00  0.00    +0.000 HD
ENDBRANCH   5  20
TORSDOF 6
ENDMDL
MODEL 4
REMARK VINA RESULT:      -6.7      1.890      2.197
REMARK  Name = 
REMARK  6 active torsions:
REMARK  status: ('A' for Active; 'I' for Inactive)
REMARK    1  A    between atoms: O_1  and  C_2
REMARK    2  A    between atoms: C_2  and  C_3
REMARK    3  A    between atoms: C_3  and  C_4
REMARK    4  A    between atoms: N_7  and  C_8
REMARK    5  A    between atoms: C_10  and  O_11
REMARK    6  A    between atoms: C_13  and  O_14
REMARK                            x       y       z     vdW  Elec       q    Type
REMARK                         _______ _______ _______ _____ _____    ______ ____
ROOT
ATOM      1  C   UNL     1       5.485   5.711  17.708  0.00  0.00    +0.000 A 
ATOM      2  N   UNL     1       6.202   6.771  18.176  0.00  0.00    +0.000 NA
ATOM      3  C   UNL     1       7.311   7.227  17.542  0.00  0.00    +0.000 A 
ATOM      4  N   UNL     1       7.726   6.635  16.396  0.00  0.00    +0.000 NA
ATOM      5  C   UNL     1       7.042   5.595  15.857  0.00  0.00    +0.000 A 
ATOM      6  C   UNL     1       5.898   5.098  16.493  0.00  0.00    +0.000 A 
ATOM      7 BR   UNL     1       4.940   3.690  15.580  0.00  0.00    +0.000 Br
ENDROOT
BRANCH   1  11
ATOM      8  C   UNL     1       1.999   3.628  18.811  0.00  0.00    +0.000 C 
ATOM      9  C   UNL     1       3.425   3.041  18.923  0.00  0.00    +0.000 C 
ATOM     10  C   UNL     1       4.438   4.116  19.346  0.00  0.00    +0.000 C 
ATOM     11  N   UNL     1       4.346   5.276  18.460  0.00  0.00    +0.000 N 
ATOM     12  C   UNL     1       3.029   5.880  18.278  0.00  0.00    +0.000 C 
ATOM     13  C   UNL     1       2.047   4.801  17.810  0.00  0.00    +0.000 C 
BRANCH   8  14
ATOM     14  C   UNL     1       1.420   4.026  20.199  0.00  0.00    +0.000 C 
BRANCH  14  15
ATOM     15  C   UNL     1       1.356   2.855  21.186  0.00  0.00    +0.000 C 
BRANCH  15  16
ATOM     16  O   UNL     1       2.221   3.092  22.263  0.00  0.00    +0.000 OA
ATOM     17  H   UNL     1       2.452   4.056  22.224  0.00  0.00    +0.000 HD
ENDBRANCH  15  16
ENDBRANCH  14  15
ENDBRANCH   8  14
ENDBRANCH   1  11
BRANCH   3  18
ATOM     18  O   UNL     1       8.006   8.260  18.049  0.00  0.00    +0.000 OA
ATOM     19  H   UNL     1       8.244   8.293  18.986  0.00  0.00    +0.000 HD
ENDBRANCH   3  18
BRANCH   5  20
ATOM     20  O   UNL     1       7.464   5.047  14.700  0.00  0.00    +0.000 OA
ATOM     21  H   UNL     1       6.918   5.069  13.902  0.00  0.00    +0.000 HD
ENDBRANCH   5  20
TORSDOF 6
ENDMDL
MODEL 5
REMARK VINA RESULT:      -6.7      2.825      6.055
REMARK  Name = 
REMARK  6 active torsions:
REMARK  status: ('A' for Active; 'I' for Inactive)
REMARK    1  A    between atoms: O_1  and  C_2
REMARK    2  A    between atoms: C_2  and  C_3
REMARK    3  A    between atoms: C_3  and  C_4
REMARK    4  A    between atoms: N_7  and  C_8
REMARK    5  A    between atoms: C_10  and  O_11
REMARK    6  A    between atoms: C_13  and  O_14
REMARK                            x       y       z     vdW  Elec       q    Type
REMARK                         _______ _______ _______ _____ _____    ______ ____
ROOT
ATOM      1  C   UNL     1       3.332   4.855  19.020  0.00  0.00    +0.000 A 
ATOM      2  N   UNL     1       3.067   6.048  19.622  0.00  0.00    +0.000 NA
ATOM      3  C   UNL     1       2.008   6.218  20.452  0.00  0.00    +0.000 A 
ATOM      4  N   UNL     1       1.185   5.176  20.718  0.00  0.00    +0.000 NA
ATOM      5  C   UNL     1       1.406   3.952  20.178  0.00  0.00    +0.000 A 
ATOM      6  C   UNL     1       2.487   3.748  19.312  0.00  0.00    +0.000 A 
ATOM      7 BR   UNL     1       2.773   1.941  18.690  0.00  0.00    +0.000 Br
ENDROOT
BRANCH   1  11
ATOM      8  C   UNL     1       6.649   5.969  16.683  0.00  0.00    +0.000 C 
ATOM      9  C   UNL     1       6.702   5.773  18.215  0.00  0.00    +0.000 C 
ATOM     10  C   UNL     1       5.808   4.606  18.659  0.00  0.00    +0.000 C 
ATOM     11  N   UNL     1       4.453   4.775  18.133  0.00  0.00    +0.000 N 
ATOM     12  C   UNL     1       4.313   4.990  16.696  0.00  0.00    +0.000 C 
ATOM     13  C   UNL     1       5.175   6.187  16.284  0.00  0.00    +0.000 C 
BRANCH   8  14
ATOM     14  C   UNL     1       7.326   4.794  15.920  0.00  0.00    +0.000 C 
BRANCH  14  15
ATOM     15  C   UNL     1       7.085   4.838  14.407  0.00  0.00    +0.000 C 
BRANCH  15  16
ATOM     16  O   UNL     1       8.075   5.614  13.789  0.00  0.00    +0.000 OA
ATOM     17  H   UNL     1       7.667   6.503  13.625  0.00  0.00    +0.000 HD
ENDBRANCH  15  16
ENDBRANCH  14  15
ENDBRANCH   8  14
ENDBRANCH   1  11
BRANCH   3  18
ATOM     18  O   UNL     1       1.767   7.418  21.007  0.00  0.00    +0.000 OA
ATOM     19  H   UNL     1       2.408   7.835  21.601  0.00  0.00    +0.000 HD
ENDBRANCH   3  18
BRANCH   5  20
ATOM     20  O   UNL     1       0.585   2.928  20.485  0.00  0.00    +0.000 OA
ATOM     21  H   UNL     1       0.924   2.106  20.865  0.00  0.00    +0.000 HD
ENDBRANCH   5  20
TORSDOF 6
ENDMDL
MODEL 6
REMARK VINA RESULT:      -6.7      1.511      1.653
REMARK  Name = 
REMARK  6 active torsions:
REMARK  status: ('A' for Active; 'I' for Inactive)
REMARK    1  A    between atoms: O_1  and  C_2
REMARK    2  A    between atoms: C_2  and  C_3
REMARK    3  A    between atoms: C_3  and  C_4
REMARK    4  A    between atoms: N_7  and  C_8
REMARK    5  A    between atoms: C_10  and  O_11
REMARK    6  A    between atoms: C_13  and  O_14
REMARK                            x       y       z     vdW  Elec       q    Type
REMARK                         _______ _______ _______ _____ _____    ______ ____
ROOT
ATOM      1  C   UNL     1       5.197   4.829  18.254  0.00  0.00    +0.000 A 
ATOM      2  N   UNL     1       6.380   4.153  18.302  0.00  0.00    +0.000 NA
ATOM      3  C   UNL     1       7.523   4.661  17.778  0.00  0.00    +0.000 A 
ATOM      4  N   UNL     1       7.514   5.886  17.200  0.00  0.00    +0.000 NA
ATOM      5  C   UNL     1       6.380   6.628  17.145  0.00  0.00    +0.000 A 
ATOM      6  C   UNL     1       5.184   6.126  17.670  0.00  0.00    +0.000 A 
ATOM      7 BR   UNL     1       3.657   7.310  17.639  0.00  0.00    +0.000 Br
ENDROOT
BRANCH   1  11
ATOM      8  C   UNL     1       1.207   4.148  19.401  0.00  0.00    +0.000 C 
ATOM      9  C   UNL     1       1.733   3.959  17.960  0.00  0.00    +0.000 C 
ATOM     10  C   UNL     1       3.159   3.387  17.958  0.00  0.00    +0.000 C 
ATOM     11  N   UNL     1       4.033   4.201  18.802  0.00  0.00    +0.000 N 
ATOM     12  C   UNL     1       3.600   4.451  20.174  0.00  0.00    +0.000 C 
ATOM     13  C   UNL     1       2.196   5.065  20.150  0.00  0.00    +0.000 C 
BRANCH   8  14
ATOM     14  C   UNL     1       0.963   2.790  20.118  0.00  0.00    +0.000 C 
BRANCH  14  15
ATOM     15  C   UNL     1       1.137   2.869  21.639  0.00  0.00    +0.000 C 
BRANCH  15  16
ATOM     16  O   UNL     1       2.231   2.089  22.035  0.00  0.00    +0.000 OA
ATOM     17  H   UNL     1       3.033   2.516  21.637  0.00  0.00    +0.000 HD
ENDBRANCH  15  16
ENDBRANCH  14  15
ENDBRANCH   8  14
ENDBRANCH   1  11
BRANCH   3  18
ATOM     18  O   UNL     1       8.664   3.952  17.824  0.00  0.00    +0.000 OA
ATOM     19  H   UNL     1       8.795   3.254  18.481  0.00  0.00    +0.000 HD
ENDBRANCH   3  18
BRANCH   5  20
ATOM     20  O   UNL     1       6.411   7.856  16.589  0.00  0.00    +0.000 OA
ATOM     21  H   UNL     1       6.235   8.650  17.111  0.00  0.00    +0.000 HD
ENDBRANCH   5  20
TORSDOF 6
ENDMDL
MODEL 7
REMARK VINA RESULT:      -6.7      2.320      6.094
REMARK  Name = 
REMARK  6 active torsions:
REMARK  status: ('A' for Active; 'I' for Inactive)
REMARK    1  A    between atoms: O_1  and  C_2
REMARK    2  A    between atoms: C_2  and  C_3
REMARK    3  A    between atoms: C_3  and  C_4
REMARK    4  A    between atoms: N_7  and  C_8
REMARK    5  A    between atoms: C_10  and  O_11
REMARK    6  A    between atoms: C_13  and  O_14
REMARK                            x       y       z     vdW  Elec       q    Type
REMARK                         _______ _______ _______ _____ _____    ______ ____
ROOT
ATOM      1  C   UNL     1       3.957   4.204  18.819  0.00  0.00    +0.000 A 
ATOM      2  N   UNL     1       4.278   2.943  18.416  0.00  0.00    +0.000 NA
ATOM      3  C   UNL     1       3.507   1.870  18.723  0.00  0.00    +0.000 A 
ATOM      4  N   UNL     1       2.368   2.038  19.436  0.00  0.00    +0.000 NA
ATOM      5  C   UNL     1       1.971   3.270  19.843  0.00  0.00    +0.000 A 
ATOM      6  C   UNL     1       2.750   4.395  19.548  0.00  0.00    +0.000 A 
ATOM      7 BR   UNL     1       2.034   6.110  20.078  0.00  0.00    +0.000 Br
ENDROOT
BRANCH   1  11
ATOM      8  C   UNL     1       7.154   6.330  17.098  0.00  0.00    +0.000 C 
ATOM      9  C   UNL     1       5.855   5.968  16.343  0.00  0.00    +0.000 C 
ATOM     10  C   UNL     1       4.630   6.063  17.265  0.00  0.00    +0.000 C 
ATOM     11  N   UNL     1       4.846   5.274  18.478  0.00  0.00    +0.000 N 
ATOM     12  C   UNL     1       6.063   5.534  19.241  0.00  0.00    +0.000 C 
ATOM     13  C   UNL     1       7.274   5.388  18.313  0.00  0.00    +0.000 C 
BRANCH   8  14
ATOM     14  C   UNL     1       7.208   7.837  17.480  0.00  0.00    +0.000 C 
BRANCH  14  15
ATOM     15  C   UNL     1       8.414   8.196  18.355  0.00  0.00    +0.000 C 
BRANCH  15  16
ATOM     16  O   UNL     1       8.657   9.574  18.290  0.00  0.00    +0.000 OA
ATOM     17  H   UNL     1       9.643   9.681  18.282  0.00  0.00    +0.000 HD
ENDBRANCH  15  16
ENDBRANCH  14  15
ENDBRANCH   8  14
ENDBRANCH   1  11
BRANCH   3  18
ATOM     18  O   UNL     1       3.872   0.638  18.328  0.00  0.00    +0.000 OA
ATOM     19  H   UNL     1       4.503   0.113  18.839  0.00  0.00    +0.000 HD
ENDBRANCH   3  18
BRANCH   5  20
ATOM     20  O   UNL     1       0.817   3.408  20.527  0.00  0.00    +0.000 OA
ATOM     21  H   UNL     1       0.708   4.095  21.198  0.00  0.00    +0.000 HD
ENDBRANCH   5  20
TORSDOF 6
ENDMDL
MODEL 8
REMARK VINA RESULT:      -6.7      0.869      1.265
REMARK  Name = 
REMARK  6 active torsions:
REMARK  status: ('A' for Active; 'I' for Inactive)
REMARK    1  A    between atoms: O_1  and  C_2
REMARK    2  A    between atoms: C_2  and  C_3
REMARK    3  A    between atoms: C_3  and  C_4
REMARK    4  A    between atoms: N_7  and  C_8
REMARK    5  A    between atoms: C_10  and  O_11
REMARK    6  A    between atoms: C_13  and  O_14
REMARK                            x       y       z     vdW  Elec       q    Type
REMARK                         _______ _______ _______ _____ _____    ______ ____
ROOT
ATOM      1  C   UNL     1       5.577   5.183  18.659  0.00  0.00    +0.000 A 
ATOM      2  N   UNL     1       6.372   4.971  19.746  0.00  0.00    +0.000 NA
ATOM      3  C   UNL     1       7.616   5.503  19.844  0.00  0.00    +0.000 A 
ATOM      4  N   UNL     1       8.095   6.287  18.849  0.00  0.00    +0.000 NA
ATOM      5  C   UNL     1       7.347   6.566  17.753  0.00  0.00    +0.000 A 
ATOM      6  C   UNL     1       6.063   6.025  17.620  0.00  0.00    +0.000 A 
ATOM      7 BR   UNL     1       5.043   6.576  16.074  0.00  0.00    +0.000 Br
ENDROOT
BRANCH   1  11
ATOM      8  C   UNL     1       2.564   2.307  18.066  0.00  0.00    +0.000 C 
ATOM      9  C   UNL     1       3.532   2.304  19.272  0.00  0.00    +0.000 C 
ATOM     10  C   UNL     1       3.834   3.733  19.747  0.00  0.00    +0.000 C 
ATOM     11  N   UNL     1       4.291   4.555  18.625  0.00  0.00    +0.000 N 
ATOM     12  C   UNL     1       3.447   4.595  17.434  0.00  0.00    +0.000 C 
ATOM     13  C   UNL     1       3.198   3.163  16.951  0.00  0.00    +0.000 C 
BRANCH   8  14
ATOM     14  C   UNL     1       1.135   2.776  18.465  0.00  0.00    +0.000 C 
BRANCH  14  15
ATOM     15  C   UNL     1       0.847   2.632  19.963  0.00  0.00    +0.000 C 
BRANCH  15  16
ATOM     16  O   UNL     1       0.480   3.873  20.500  0.00  0.00    +0.000 OA
ATOM     17  H   UNL     1       1.326   4.364  20.666  0.00  0.00    +0.000 HD
ENDBRANCH  15  16
ENDBRANCH  14  15
ENDBRANCH   8  14
ENDBRANCH   1  11
BRANCH   3  18
ATOM     18  O   UNL     1       8.378   5.250  20.922  0.00  0.00    +0.000 OA
ATOM     19  H   UNL     1       8.587   5.944  21.563  0.00  0.00    +0.000 HD
ENDBRANCH   3  18
BRANCH   5  20
ATOM     20  O   UNL     1       7.842   7.373  16.794  0.00  0.00    +0.000 OA
ATOM     21  H   UNL     1       8.764   7.311  16.508  0.00  0.00    +0.000 HD
ENDBRANCH   5  20
TORSDOF 6
ENDMDL
MODEL 9
REMARK VINA RESULT:      -6.6      1.701      2.254
REMARK  Name = 
REMARK  6 active torsions:
REMARK  status: ('A' for Active; 'I' for Inactive)
REMARK    1  A    between atoms: O_1  and  C_2
REMARK    2  A    between atoms: C_2  and  C_3
REMARK    3  A    between atoms: C_3  and  C_4
REMARK    4  A    between atoms: N_7  and  C_8
REMARK    5  A    between atoms: C_10  and  O_11
REMARK    6  A    between atoms: C_13  and  O_14
REMARK                            x       y       z     vdW  Elec       q    Type
REMARK                         _______ _______ _______ _____ _____    ______ ____
ROOT
ATOM      1  C   UNL     1       5.376   4.536  18.866  0.00  0.00    +0.000 A 
ATOM      2  N   UNL     1       6.198   4.909  19.887  0.00  0.00    +0.000 NA
ATOM      3  C   UNL     1       7.519   5.150  19.699  0.00  0.00    +0.000 A 
ATOM      4  N   UNL     1       8.056   5.038  18.460  0.00  0.00    +0.000 NA
ATOM      5  C   UNL     1       7.291   4.701  17.392  0.00  0.00    +0.000 A 
ATOM      6  C   UNL     1       5.926   4.439  17.557  0.00  0.00    +0.000 A 
ATOM      7 BR   UNL     1       4.910   4.078  15.953  0.00  0.00    +0.000 Br
ENDROOT
BRANCH   1  11
ATOM      8  C   UNL     1       1.809   3.935  21.015  0.00  0.00    +0.000 C 
ATOM      9  C   UNL     1       2.409   5.327  20.714  0.00  0.00    +0.000 C 
ATOM     10  C   UNL     1       3.047   5.369  19.317  0.00  0.00    +0.000 C 
ATOM     11  N   UNL     1       4.001   4.270  19.162  0.00  0.00    +0.000 N 
ATOM     12  C   UNL     1       3.524   2.920  19.450  0.00  0.00    +0.000 C 
ATOM     13  C   UNL     1       2.935   2.891  20.864  0.00  0.00    +0.000 C 
BRANCH   8  14
ATOM     14  C   UNL     1       0.566   3.630  20.131  0.00  0.00    +0.000 C 
BRANCH  14  15
ATOM     15  C   UNL     1       0.682   2.312  19.358  0.00  0.00    +0.000 C 
BRANCH  15  16
ATOM     16  O   UNL     1       0.647   2.564  17.980  0.00  0.00    +0.000 OA
ATOM     17  H   UNL     1      -0.309   2.694  17.747  0.00  0.00    +0.000 HD
ENDBRANCH  15  16
ENDBRANCH  14  15
ENDBRANCH   8  14
ENDBRANCH   1  11
BRANCH   3  18
ATOM     18  O   UNL     1       8.300   5.492  20.737  0.00  0.00    +0.000 OA
ATOM     19  H   UNL     1       9.172   5.091  20.863  0.00  0.00    +0.000 HD
ENDBRANCH   3  18
BRANCH   5  20
ATOM     20  O   UNL     1       7.850   4.627  16.167  0.00  0.00    +0.000 OA
ATOM     21  H   UNL     1       8.460   5.305  15.849  0.00  0.00    +0.000 HD
ENDBRANCH   5  20
TORSDOF 6
ENDMDL
