MODEL 1
REMARK VINA RESULT:      -7.2      0.000      0.000
REMARK  Name = 
REMARK  1 active torsions:
REMARK  status: ('A' for Active; 'I' for Inactive)
REMARK    1  A    between atoms: C_1  and  N_2
REMARK                            x       y       z     vdW  Elec       q    Type
REMARK                         _______ _______ _______ _____ _____    ______ ____
ROOT
ATOM      1  C   UNL     1       4.438   2.389  20.191  0.00  0.00    +0.000 C 
ATOM      2  N   UNL     1       3.396   3.333  19.795  0.00  0.00    +0.000 NA
ATOM      3  C   UNL     1       3.996   4.528  19.169  0.00  0.00    +0.000 C 
ATOM      4  C   UNL     1       2.944   5.582  18.764  0.00  0.00    +0.000 C 
ATOM      5  N   UNL     1       2.114   5.954  19.917  0.00  0.00    +0.000 N 
ATOM      6  C   UNL     1       1.604   7.236  20.115  0.00  0.00    +0.000 A 
ATOM      7  N   UNL     1       0.948   7.476  21.229  0.00  0.00    +0.000 NA
ATOM      8  C   UNL     1       0.457   8.760  21.518  0.00  0.00    +0.000 A 
ATOM      9  N   UNL     1      -0.155   8.872  22.713  0.00  0.00    +0.000 NA
ATOM     10  C   UNL     1      -0.622  10.097  23.059  0.00  0.00    +0.000 A 
ATOM     11  C   UNL     1      -0.509  11.225  22.254  0.00  0.00    +0.000 A 
ATOM     12 BR   UNL     1      -1.182  12.889  22.829  0.00  0.00    +0.000 Br
ATOM     13  C   UNL     1       0.118  11.108  21.019  0.00  0.00    +0.000 A 
ATOM     14  C   UNL     1       0.605   9.853  20.666  0.00  0.00    +0.000 A 
ATOM     15  N   UNL     1       1.274   9.590  19.475  0.00  0.00    +0.000 N 
ATOM     16  C   UNL     1       1.593  10.376  18.411  0.00  0.00    +0.000 A 
ATOM     17  N   UNL     1       2.231   9.656  17.514  0.00  0.00    +0.000 NA
ATOM     18  N   UNL     1       2.327   8.369  18.001  0.00  0.00    +0.000 NA
ATOM     19  C   UNL     1       1.760   8.348  19.190  0.00  0.00    +0.000 A 
ATOM     20  C   UNL     1       1.517   4.792  20.602  0.00  0.00    +0.000 C 
ATOM     21  C   UNL     1       2.598   3.754  20.967  0.00  0.00    +0.000 C 
ENDROOT
TORSDOF 0
ENDMDL
MODEL 2
REMARK VINA RESULT:      -7.1      3.061      6.368
REMARK  Name = 
REMARK  1 active torsions:
REMARK  status: ('A' for Active; 'I' for Inactive)
REMARK    1  A    between atoms: C_1  and  N_2
REMARK                            x       y       z     vdW  Elec       q    Type
REMARK                         _______ _______ _______ _____ _____    ______ ____
ROOT
ATOM      1  C   UNL     1      -1.816  11.818  23.207  0.00  0.00    +0.000 C 
ATOM      2  N   UNL     1      -0.572  11.221  22.731  0.00  0.00    +0.000 NA
ATOM      3  C   UNL     1      -0.546  11.197  21.254  0.00  0.00    +0.000 C 
ATOM      4  C   UNL     1       0.731  10.539  20.690  0.00  0.00    +0.000 C 
ATOM      5  N   UNL     1       0.904   9.188  21.241  0.00  0.00    +0.000 N 
ATOM      6  C   UNL     1       1.456   8.130  20.520  0.00  0.00    +0.000 A 
ATOM      7  N   UNL     1       1.479   6.943  21.086  0.00  0.00    +0.000 NA
ATOM      8  C   UNL     1       1.969   5.822  20.395  0.00  0.00    +0.000 A 
ATOM      9  N   UNL     1       1.892   4.663  21.077  0.00  0.00    +0.000 NA
ATOM     10  C   UNL     1       2.322   3.542  20.447  0.00  0.00    +0.000 A 
ATOM     11  C   UNL     1       2.837   3.527  19.156  0.00  0.00    +0.000 A 
ATOM     12 BR   UNL     1       3.400   1.913  18.362  0.00  0.00    +0.000 Br
ATOM     13  C   UNL     1       2.921   4.723  18.454  0.00  0.00    +0.000 A 
ATOM     14  C   UNL     1       2.473   5.874  19.096  0.00  0.00    +0.000 A 
ATOM     15  N   UNL     1       2.474   7.136  18.511  0.00  0.00    +0.000 N 
ATOM     16  C   UNL     1       2.888   7.582  17.294  0.00  0.00    +0.000 A 
ATOM     17  N   UNL     1       2.685   8.879  17.213  0.00  0.00    +0.000 NA
ATOM     18  N   UNL     1       2.129   9.291  18.405  0.00  0.00    +0.000 NA
ATOM     19  C   UNL     1       1.994   8.229  19.172  0.00  0.00    +0.000 A 
ATOM     20  C   UNL     1       0.851   9.150  22.714  0.00  0.00    +0.000 C 
ATOM     21  C   UNL     1      -0.427   9.838  23.236  0.00  0.00    +0.000 C 
ENDROOT
TORSDOF 0
ENDMDL
MODEL 3
REMARK VINA RESULT:      -6.9      2.674      4.424
REMARK  Name = 
REMARK  1 active torsions:
REMARK  status: ('A' for Active; 'I' for Inactive)
REMARK    1  A    between atoms: C_1  and  N_2
REMARK                            x       y       z     vdW  Elec       q    Type
REMARK                         _______ _______ _______ _____ _____    ______ ____
ROOT
ATOM      1  C   UNL     1       6.221   3.678  13.899  0.00  0.00    +0.000 C 
ATOM      2  N   UNL     1       6.083   4.406  15.156  0.00  0.00    +0.000 NA
ATOM      3  C   UNL     1       5.102   3.735  16.034  0.00  0.00    +0.000 C 
ATOM      4  C   UNL     1       4.883   4.483  17.366  0.00  0.00    +0.000 C 
ATOM      5  N   UNL     1       4.499   5.879  17.119  0.00  0.00    +0.000 N 
ATOM      6  C   UNL     1       3.616   6.588  17.932  0.00  0.00    +0.000 A 
ATOM      7  N   UNL     1       3.276   7.804  17.564  0.00  0.00    +0.000 NA
ATOM      8  C   UNL     1       2.348   8.552  18.307  0.00  0.00    +0.000 A 
ATOM      9  N   UNL     1       2.059   9.762  17.790  0.00  0.00    +0.000 NA
ATOM     10  C   UNL     1       1.146  10.517  18.449  0.00  0.00    +0.000 A 
ATOM     11  C   UNL     1       0.506  10.116  19.616  0.00  0.00    +0.000 A 
ATOM     12 BR   UNL     1      -0.759  11.234  20.454  0.00  0.00    +0.000 Br
ATOM     13  C   UNL     1       0.808   8.870  20.152  0.00  0.00    +0.000 A 
ATOM     14  C   UNL     1       1.740   8.090  19.473  0.00  0.00    +0.000 A 
ATOM     15  N   UNL     1       2.124   6.816  19.877  0.00  0.00    +0.000 N 
ATOM     16  C   UNL     1       1.770   6.048  20.942  0.00  0.00    +0.000 A 
ATOM     17  N   UNL     1       2.419   4.905  20.890  0.00  0.00    +0.000 NA
ATOM     18  N   UNL     1       3.218   4.928  19.766  0.00  0.00    +0.000 NA
ATOM     19  C   UNL     1       3.019   6.079  19.157  0.00  0.00    +0.000 A 
ATOM     20  C   UNL     1       5.428   6.587  16.219  0.00  0.00    +0.000 C 
ATOM     21  C   UNL     1       5.637   5.795  14.912  0.00  0.00    +0.000 C 
ENDROOT
TORSDOF 0
ENDMDL
MODEL 4
REMARK VINA RESULT:      -6.9      3.500      7.222
REMARK  Name = 
REMARK  1 active torsions:
REMARK  status: ('A' for Active; 'I' for Inactive)
REMARK    1  A    between atoms: C_1  and  N_2
REMARK                            x       y       z     vdW  Elec       q    Type
REMARK                         _______ _______ _______ _____ _____    ______ ____
ROOT
ATOM      1  C   UNL     1       0.224  12.473  21.457  0.00  0.00    +0.000 C 
ATOM      2  N   UNL     1       0.167  11.191  20.759  0.00  0.00    +0.000 NA
ATOM      3  C   UNL     1       0.701  10.115  21.618  0.00  0.00    +0.000 C 
ATOM      4  C   UNL     1       0.703   8.739  20.918  0.00  0.00    +0.000 C 
ATOM      5  N   UNL     1       1.434   8.807  19.646  0.00  0.00    +0.000 N 
ATOM      6  C   UNL     1       2.192   7.753  19.138  0.00  0.00    +0.000 A 
ATOM      7  N   UNL     1       2.875   7.958  18.033  0.00  0.00    +0.000 NA
ATOM      8  C   UNL     1       3.703   6.958  17.498  0.00  0.00    +0.000 A 
ATOM      9  N   UNL     1       4.378   7.320  16.390  0.00  0.00    +0.000 NA
ATOM     10  C   UNL     1       5.217   6.404  15.847  0.00  0.00    +0.000 A 
ATOM     11  C   UNL     1       5.410   5.128  16.363  0.00  0.00    +0.000 A 
ATOM     12 BR   UNL     1       6.608   3.927  15.540  0.00  0.00    +0.000 Br
ATOM     13  C   UNL     1       4.710   4.752  17.503  0.00  0.00    +0.000 A 
ATOM     14  C   UNL     1       3.854   5.694  18.067  0.00  0.00    +0.000 A 
ATOM     15  N   UNL     1       3.107   5.469  19.219  0.00  0.00    +0.000 N 
ATOM     16  C   UNL     1       2.981   4.385  20.031  0.00  0.00    +0.000 A 
ATOM     17  N   UNL     1       2.139   4.665  21.003  0.00  0.00    +0.000 NA
ATOM     18  N   UNL     1       1.703   5.960  20.819  0.00  0.00    +0.000 NA
ATOM     19  C   UNL     1       2.306   6.438  19.749  0.00  0.00    +0.000 A 
ATOM     20  C   UNL     1       0.963   9.890  18.763  0.00  0.00    +0.000 C 
ATOM     21  C   UNL     1       0.953  11.241  19.507  0.00  0.00    +0.000 C 
ENDROOT
TORSDOF 0
ENDMDL
MODEL 5
REMARK VINA RESULT:      -6.7      2.847      4.891
REMARK  Name = 
REMARK  1 active torsions:
REMARK  status: ('A' for Active; 'I' for Inactive)
REMARK    1  A    between atoms: C_1  and  N_2
REMARK                            x       y       z     vdW  Elec       q    Type
REMARK                         _______ _______ _______ _____ _____    ______ ____
ROOT
ATOM      1  C   UNL     1       6.223   3.781  13.371  0.00  0.00    +0.000 C 
ATOM      2  N   UNL     1       6.170   4.218  14.764  0.00  0.00    +0.000 NA
ATOM      3  C   UNL     1       5.288   3.330  15.548  0.00  0.00    +0.000 C 
ATOM      4  C   UNL     1       5.160   3.767  17.023  0.00  0.00    +0.000 C 
ATOM      5  N   UNL     1       4.713   5.164  17.112  0.00  0.00    +0.000 N 
ATOM      6  C   UNL     1       3.881   5.641  18.124  0.00  0.00    +0.000 A 
ATOM      7  N   UNL     1       3.474   6.889  18.052  0.00  0.00    +0.000 NA
ATOM      8  C   UNL     1       2.590   7.417  19.008  0.00  0.00    +0.000 A 
ATOM      9  N   UNL     1       2.221   8.694  18.786  0.00  0.00    +0.000 NA
ATOM     10  C   UNL     1       1.344   9.247  19.660  0.00  0.00    +0.000 A 
ATOM     11  C   UNL     1       0.818   8.577  20.759  0.00  0.00    +0.000 A 
ATOM     12 BR   UNL     1      -0.405   9.430  21.912  0.00  0.00    +0.000 Br
ATOM     13  C   UNL     1       1.203   7.262  20.990  0.00  0.00    +0.000 A 
ATOM     14  C   UNL     1       2.097   6.690  20.090  0.00  0.00    +0.000 A 
ATOM     15  N   UNL     1       2.553   5.379  20.180  0.00  0.00    +0.000 N 
ATOM     16  C   UNL     1       2.315   4.386  21.079  0.00  0.00    +0.000 A 
ATOM     17  N   UNL     1       2.992   3.313  20.732  0.00  0.00    +0.000 NA
ATOM     18  N   UNL     1       3.691   3.613  19.582  0.00  0.00    +0.000 NA
ATOM     19  C   UNL     1       3.406   4.856  19.252  0.00  0.00    +0.000 A 
ATOM     20  C   UNL     1       5.540   6.090  16.317  0.00  0.00    +0.000 C 
ATOM     21  C   UNL     1       5.662   5.605  14.858  0.00  0.00    +0.000 C 
ENDROOT
TORSDOF 0
ENDMDL
MODEL 6
REMARK VINA RESULT:      -6.5      0.976      1.035
REMARK  Name = 
REMARK  1 active torsions:
REMARK  status: ('A' for Active; 'I' for Inactive)
REMARK    1  A    between atoms: C_1  and  N_2
REMARK                            x       y       z     vdW  Elec       q    Type
REMARK                         _______ _______ _______ _____ _____    ______ ____
ROOT
ATOM      1  C   UNL     1       4.982   3.582  19.115  0.00  0.00    +0.000 C 
ATOM      2  N   UNL     1       3.843   4.462  18.872  0.00  0.00    +0.000 NA
ATOM      3  C   UNL     1       4.306   5.789  18.417  0.00  0.00    +0.000 C 
ATOM      4  C   UNL     1       3.145   6.778  18.180  0.00  0.00    +0.000 C 
ATOM      5  N   UNL     1       2.312   6.896  19.385  0.00  0.00    +0.000 N 
ATOM      6  C   UNL     1       1.684   8.079  19.771  0.00  0.00    +0.000 A 
ATOM      7  N   UNL     1       1.036   8.090  20.916  0.00  0.00    +0.000 NA
ATOM      8  C   UNL     1       0.429   9.264  21.392  0.00  0.00    +0.000 A 
ATOM      9  N   UNL     1      -0.160   9.142  22.597  0.00  0.00    +0.000 NA
ATOM     10  C   UNL     1      -0.736  10.252  23.121  0.00  0.00    +0.000 A 
ATOM     11  C   UNL     1      -0.756  11.489  22.486  0.00  0.00    +0.000 A 
ATOM     12 BR   UNL     1      -1.574  12.978  23.303  0.00  0.00    +0.000 Br
ATOM     13  C   UNL     1      -0.152  11.613  21.241  0.00  0.00    +0.000 A 
ATOM     14  C   UNL     1       0.447  10.477  20.704  0.00  0.00    +0.000 A 
ATOM     15  N   UNL     1       1.107  10.455  19.481  0.00  0.00    +0.000 N 
ATOM     16  C   UNL     1       1.320  11.412  18.538  0.00  0.00    +0.000 A 
ATOM     17  N   UNL     1       2.003  10.895  17.539  0.00  0.00    +0.000 NA
ATOM     18  N   UNL     1       2.238   9.569  17.834  0.00  0.00    +0.000 NA
ATOM     19  C   UNL     1       1.706   9.321  19.014  0.00  0.00    +0.000 A 
ATOM     20  C   UNL     1       1.850   5.595  19.902  0.00  0.00    +0.000 C 
ATOM     21  C   UNL     1       3.037   4.630  20.101  0.00  0.00    +0.000 C 
ENDROOT
TORSDOF 0
ENDMDL
MODEL 7
REMARK VINA RESULT:      -6.3      4.958      8.343
REMARK  Name = 
REMARK  1 active torsions:
REMARK  status: ('A' for Active; 'I' for Inactive)
REMARK    1  A    between atoms: C_1  and  N_2
REMARK                            x       y       z     vdW  Elec       q    Type
REMARK                         _______ _______ _______ _____ _____    ______ ____
ROOT
ATOM      1  C   UNL     1      -2.786  15.811  25.131  0.00  0.00    +0.000 C 
ATOM      2  N   UNL     1      -2.747  14.519  24.452  0.00  0.00    +0.000 NA
ATOM      3  C   UNL     1      -1.436  14.321  23.801  0.00  0.00    +0.000 C 
ATOM      4  C   UNL     1      -1.348  12.986  23.031  0.00  0.00    +0.000 C 
ATOM      5  N   UNL     1      -2.441  12.877  22.056  0.00  0.00    +0.000 N 
ATOM      6  C   UNL     1      -2.308  12.244  20.821  0.00  0.00    +0.000 A 
ATOM      7  N   UNL     1      -3.329  12.286  19.992  0.00  0.00    +0.000 NA
ATOM      8  C   UNL     1      -3.243  11.717  18.710  0.00  0.00    +0.000 A 
ATOM      9  N   UNL     1      -4.345  11.873  17.951  0.00  0.00    +0.000 NA
ATOM     10  C   UNL     1      -4.308  11.371  16.692  0.00  0.00    +0.000 A 
ATOM     11  C   UNL     1      -3.211  10.709  16.154  0.00  0.00    +0.000 A 
ATOM     12 BR   UNL     1      -3.253  10.055  14.387  0.00  0.00    +0.000 Br
ATOM     13  C   UNL     1      -2.076  10.543  16.938  0.00  0.00    +0.000 A 
ATOM     14  C   UNL     1      -2.108  11.065  18.228  0.00  0.00    +0.000 A 
ATOM     15  N   UNL     1      -1.042  10.996  19.118  0.00  0.00    +0.000 N 
ATOM     16  C   UNL     1       0.197  10.443  19.022  0.00  0.00    +0.000 A 
ATOM     17  N   UNL     1       0.850  10.636  20.147  0.00  0.00    +0.000 NA
ATOM     18  N   UNL     1       0.016  11.328  21.001  0.00  0.00    +0.000 NA
ATOM     19  C   UNL     1      -1.114  11.552  20.362  0.00  0.00    +0.000 A 
ATOM     20  C   UNL     1      -3.773  13.102  22.648  0.00  0.00    +0.000 C 
ATOM     21  C   UNL     1      -3.810  14.433  23.427  0.00  0.00    +0.000 C 
ENDROOT
TORSDOF 0
ENDMDL
MODEL 8
REMARK VINA RESULT:      -6.1      3.546      7.713
REMARK  Name = 
REMARK  1 active torsions:
REMARK  status: ('A' for Active; 'I' for Inactive)
REMARK    1  A    between atoms: C_1  and  N_2
REMARK                            x       y       z     vdW  Elec       q    Type
REMARK                         _______ _______ _______ _____ _____    ______ ____
ROOT
ATOM      1  C   UNL     1       1.153  17.284  19.616  0.00  0.00    +0.000 C 
ATOM      2  N   UNL     1       0.481  15.990  19.683  0.00  0.00    +0.000 NA
ATOM      3  C   UNL     1       0.669  15.381  21.015  0.00  0.00    +0.000 C 
ATOM      4  C   UNL     1       0.012  13.989  21.134  0.00  0.00    +0.000 C 
ATOM      5  N   UNL     1       0.498  13.095  20.074  0.00  0.00    +0.000 N 
ATOM      6  C   UNL     1       0.683  11.725  20.250  0.00  0.00    +0.000 A 
ATOM      7  N   UNL     1       1.207  11.039  19.258  0.00  0.00    +0.000 NA
ATOM      8  C   UNL     1       1.472   9.666  19.388  0.00  0.00    +0.000 A 
ATOM      9  N   UNL     1       2.051   9.100  18.311  0.00  0.00    +0.000 NA
ATOM     10  C   UNL     1       2.358   7.782  18.392  0.00  0.00    +0.000 A 
ATOM     11  C   UNL     1       2.105   6.994  19.508  0.00  0.00    +0.000 A 
ATOM     12 BR   UNL     1       2.579   5.170  19.527  0.00  0.00    +0.000 Br
ATOM     13  C   UNL     1       1.503   7.576  20.617  0.00  0.00    +0.000 A 
ATOM     14  C   UNL     1       1.194   8.931  20.540  0.00  0.00    +0.000 A 
ATOM     15  N   UNL     1       0.612   9.652  21.577  0.00  0.00    +0.000 N 
ATOM     16  C   UNL     1       0.193   9.293  22.820  0.00  0.00    +0.000 A 
ATOM     17  N   UNL     1      -0.302  10.346  23.434  0.00  0.00    +0.000 NA
ATOM     18  N   UNL     1      -0.208  11.417  22.571  0.00  0.00    +0.000 NA
ATOM     19  C   UNL     1       0.358  10.988  21.462  0.00  0.00    +0.000 A 
ATOM     20  C   UNL     1       0.366  13.670  18.723  0.00  0.00    +0.000 C 
ATOM     21  C   UNL     1       1.013  15.069  18.654  0.00  0.00    +0.000 C 
ENDROOT
TORSDOF 0
ENDMDL
MODEL 9
REMARK VINA RESULT:      -5.9      3.401      6.627
REMARK  Name = 
REMARK  1 active torsions:
REMARK  status: ('A' for Active; 'I' for Inactive)
REMARK    1  A    between atoms: C_1  and  N_2
REMARK                            x       y       z     vdW  Elec       q    Type
REMARK                         _______ _______ _______ _____ _____    ______ ____
ROOT
ATOM      1  C   UNL     1      -1.503  11.351  19.303  0.00  0.00    +0.000 C 
ATOM      2  N   UNL     1      -0.196  10.729  19.497  0.00  0.00    +0.000 NA
ATOM      3  C   UNL     1       0.332  10.230  18.211  0.00  0.00    +0.000 C 
ATOM      4  C   UNL     1       1.697   9.525  18.360  0.00  0.00    +0.000 C 
ATOM      5  N   UNL     1       1.616   8.443  19.350  0.00  0.00    +0.000 N 
ATOM      6  C   UNL     1       2.337   7.254  19.250  0.00  0.00    +0.000 A 
ATOM      7  N   UNL     1       2.117   6.320  20.149  0.00  0.00    +0.000 NA
ATOM      8  C   UNL     1       2.768   5.078  20.075  0.00  0.00    +0.000 A 
ATOM      9  N   UNL     1       2.415   4.200  21.035  0.00  0.00    +0.000 NA
ATOM     10  C   UNL     1       2.988   2.972  20.994  0.00  0.00    +0.000 A 
ATOM     11  C   UNL     1       3.913   2.580  20.033  0.00  0.00    +0.000 A 
ATOM     12 BR   UNL     1       4.647   0.844  20.056  0.00  0.00    +0.000 Br
ATOM     13  C   UNL     1       4.281   3.486  19.046  0.00  0.00    +0.000 A 
ATOM     14  C   UNL     1       3.687   4.745  19.081  0.00  0.00    +0.000 A 
ATOM     15  N   UNL     1       3.940   5.745  18.149  0.00  0.00    +0.000 N 
ATOM     16  C   UNL     1       4.763   5.802  17.067  0.00  0.00    +0.000 A 
ATOM     17  N   UNL     1       4.653   6.983  16.498  0.00  0.00    +0.000 NA
ATOM     18  N   UNL     1       3.740   7.716  17.227  0.00  0.00    +0.000 NA
ATOM     19  C   UNL     1       3.307   6.953  18.209  0.00  0.00    +0.000 A 
ATOM     20  C   UNL     1       1.061   8.881  20.645  0.00  0.00    +0.000 C 
ATOM     21  C   UNL     1      -0.289   9.601  20.449  0.00  0.00    +0.000 C 
ENDROOT
TORSDOF 0
ENDMDL
