MODEL 1
REMARK VINA RESULT:      -7.8      0.000      0.000
REMARK  Name = 
REMARK  13 active torsions:
REMARK  status: ('A' for Active; 'I' for Inactive)
REMARK    1  A    between atoms: C_1  and  O_2
REMARK    2  A    between atoms: O_2  and  C_3
REMARK    3  A    between atoms: C_3  and  C_4
REMARK    4  A    between atoms: C_4  and  N_5
REMARK    5  A    between atoms: N_5  and  C_30
REMARK    6  A    between atoms: C_6  and  C_8
REMARK    7  A    between atoms: C_8  and  C_9
REMARK    8  A    between atoms: N_15  and  C_16
REMARK    9  A    between atoms: C_16  and  C_17
REMARK   10  A    between atoms: C_17  and  C_18
REMARK   11  A    between atoms: C_17  and  C_24
REMARK   12  A    between atoms: C_30  and  C_31
REMARK   13  A    between atoms: C_30  and  C_32
REMARK                            x       y       z     vdW  Elec       q    Type
REMARK                         _______ _______ _______ _____ _____    ______ ____
ROOT
ATOM      1  C   UNL     1       2.399   5.443  18.632  0.00  0.00    +0.000 C 
ATOM      2  C   UNL     1       2.453   4.552  19.905  0.00  0.00    +0.000 C 
ATOM      3  O   UNL     1       2.532   5.015  21.042  0.00  0.00    +0.000 OA
ATOM      4  N   UNL     1       2.308   3.193  19.770  0.00  0.00    +0.000 N 
ATOM      5  C   UNL     1       2.444   2.484  18.515  0.00  0.00    +0.000 C 
ATOM      6  C   UNL     1       2.112   3.384  17.319  0.00  0.00    +0.000 C 
ATOM      7  N   UNL     1       2.854   4.680  17.368  0.00  0.00    +0.000 NA
ATOM      8  H   UNL     1       2.364   2.680  20.640  0.00  0.00    +0.000 HD
ENDROOT
BRANCH   1   9
ATOM      9  C   UNL     1       3.039   6.859  18.957  0.00  0.00    +0.000 C 
BRANCH   9  11
ATOM     10  N   UNL     1       1.484   8.935  19.498  0.00  0.00    +0.000 N 
ATOM     11  C   UNL     1       2.147   8.086  18.560  0.00  0.00    +0.000 C 
ATOM     12  O   UNL     1       2.154   8.399  17.360  0.00  0.00    +0.000 OA
BRANCH  10  13
ATOM     13  C   UNL     1       1.001  10.244  18.938  0.00  0.00    +0.000 C 
ATOM     14  C   UNL     1      -0.441  10.145  18.423  0.00  0.00    +0.000 C 
ATOM     15  C   UNL     1       1.176  11.514  19.796  0.00  0.00    +0.000 C 
ENDBRANCH  10  13
BRANCH  10  16
ATOM     16  C   UNL     1       1.215   8.644  20.938  0.00  0.00    +0.000 C 
BRANCH  16  17
ATOM     17  C   UNL     1      -0.274   8.581  21.407  0.00  0.00    +0.000 C 
BRANCH  17  19
ATOM     18  C   UNL     1      -0.690  10.451  22.853  0.00  0.00    +0.000 C 
ATOM     19  O   UNL     1      -0.435   9.058  22.755  0.00  0.00    +0.000 OA
ENDBRANCH  17  19
ENDBRANCH  16  17
ENDBRANCH  10  16
ENDBRANCH   9  11
ENDBRANCH   1   9
BRANCH   7  20
ATOM     20  C   UNL     1       4.325   4.467  17.260  0.00  0.00    +0.000 C 
BRANCH  20  21
ATOM     21  C   UNL     1       5.208   5.504  16.414  0.00  0.00    +0.000 C 
BRANCH  21  22
ATOM     22  C   UNL     1       6.469   5.989  17.157  0.00  0.00    +0.000 A 
ATOM     23  C   UNL     1       6.895   7.317  16.987  0.00  0.00    +0.000 A 
ATOM     24  C   UNL     1       7.800   7.906  17.874  0.00  0.00    +0.000 A 
ATOM     25  C   UNL     1       8.336   7.151  18.921  0.00  0.00    +0.000 A 
ATOM     26  C   UNL     1       7.981   5.817  19.071  0.00  0.00    +0.000 A 
ATOM     27  C   UNL     1       7.049   5.233  18.204  0.00  0.00    +0.000 A 
ENDBRANCH  21  22
BRANCH  21  28
ATOM     28  C   UNL     1       5.665   5.002  15.013  0.00  0.00    +0.000 A 
ATOM     29  C   UNL     1       4.887   4.157  14.204  0.00  0.00    +0.000 A 
ATOM     30  C   UNL     1       5.414   3.598  13.037  0.00  0.00    +0.000 A 
ATOM     31  C   UNL     1       6.726   3.854  12.648  0.00  0.00    +0.000 A 
ATOM     32  C   UNL     1       7.503   4.719  13.405  0.00  0.00    +0.000 A 
ATOM     33  C   UNL     1       6.969   5.308  14.555  0.00  0.00    +0.000 A 
ENDBRANCH  21  28
ENDBRANCH  20  21
ENDBRANCH   7  20
TORSDOF 10
ENDMDL
MODEL 2
REMARK VINA RESULT:      -7.7      0.506      1.151
REMARK  Name = 
REMARK  13 active torsions:
REMARK  status: ('A' for Active; 'I' for Inactive)
REMARK    1  A    between atoms: C_1  and  O_2
REMARK    2  A    between atoms: O_2  and  C_3
REMARK    3  A    between atoms: C_3  and  C_4
REMARK    4  A    between atoms: C_4  and  N_5
REMARK    5  A    between atoms: N_5  and  C_30
REMARK    6  A    between atoms: C_6  and  C_8
REMARK    7  A    between atoms: C_8  and  C_9
REMARK    8  A    between atoms: N_15  and  C_16
REMARK    9  A    between atoms: C_16  and  C_17
REMARK   10  A    between atoms: C_17  and  C_18
REMARK   11  A    between atoms: C_17  and  C_24
REMARK   12  A    between atoms: C_30  and  C_31
REMARK   13  A    between atoms: C_30  and  C_32
REMARK                            x       y       z     vdW  Elec       q    Type
REMARK                         _______ _______ _______ _____ _____    ______ ____
ROOT
ATOM      1  C   UNL     1       2.520   5.074  18.719  0.00  0.00    +0.000 C 
ATOM      2  C   UNL     1       2.592   4.119  19.943  0.00  0.00    +0.000 C 
ATOM      3  O   UNL     1       2.616   4.523  21.105  0.00  0.00    +0.000 OA
ATOM      4  N   UNL     1       2.526   2.763  19.731  0.00  0.00    +0.000 N 
ATOM      5  C   UNL     1       2.733   2.133  18.445  0.00  0.00    +0.000 C 
ATOM      6  C   UNL     1       2.382   3.078  17.290  0.00  0.00    +0.000 C 
ATOM      7  N   UNL     1       3.050   4.408  17.428  0.00  0.00    +0.000 NA
ATOM      8  H   UNL     1       2.589   2.208  20.575  0.00  0.00    +0.000 HD
ENDROOT
BRANCH   1   9
ATOM      9  C   UNL     1       3.072   6.503  19.136  0.00  0.00    +0.000 C 
BRANCH   9  11
ATOM     10  N   UNL     1       1.547   8.618  19.608  0.00  0.00    +0.000 N 
ATOM     11  C   UNL     1       2.167   7.706  18.700  0.00  0.00    +0.000 C 
ATOM     12  O   UNL     1       2.124   7.942  17.482  0.00  0.00    +0.000 OA
BRANCH  10  13
ATOM     13  C   UNL     1       1.044   9.891  18.985  0.00  0.00    +0.000 C 
ATOM     14  C   UNL     1       2.163  10.648  18.258  0.00  0.00    +0.000 C 
ATOM     15  C   UNL     1      -0.217   9.820  18.099  0.00  0.00    +0.000 C 
ENDBRANCH  10  13
BRANCH  10  16
ATOM     16  C   UNL     1       1.339   8.421  21.073  0.00  0.00    +0.000 C 
BRANCH  16  17
ATOM     17  C   UNL     1       0.004   8.939  21.700  0.00  0.00    +0.000 C 
BRANCH  17  19
ATOM     18  C   UNL     1      -0.925  10.673  23.074  0.00  0.00    +0.000 C 
ATOM     19  O   UNL     1       0.234   9.941  22.707  0.00  0.00    +0.000 OA
ENDBRANCH  17  19
ENDBRANCH  16  17
ENDBRANCH  10  16
ENDBRANCH   9  11
ENDBRANCH   1   9
BRANCH   7  20
ATOM     20  C   UNL     1       4.532   4.281  17.351  0.00  0.00    +0.000 C 
BRANCH  20  21
ATOM     21  C   UNL     1       5.361   5.307  16.440  0.00  0.00    +0.000 C 
BRANCH  21  22
ATOM     22  C   UNL     1       6.576   5.926  17.158  0.00  0.00    +0.000 A 
ATOM     23  C   UNL     1       6.922   7.262  16.890  0.00  0.00    +0.000 A 
ATOM     24  C   UNL     1       7.773   7.973  17.739  0.00  0.00    +0.000 A 
ATOM     25  C   UNL     1       8.336   7.338  18.849  0.00  0.00    +0.000 A 
ATOM     26  C   UNL     1       8.062   5.999  19.098  0.00  0.00    +0.000 A 
ATOM     27  C   UNL     1       7.183   5.292  18.268  0.00  0.00    +0.000 A 
ENDBRANCH  21  22
BRANCH  21  28
ATOM     28  C   UNL     1       5.871   4.733  15.085  0.00  0.00    +0.000 A 
ATOM     29  C   UNL     1       7.118   5.061  14.528  0.00  0.00    +0.000 A 
ATOM     30  C   UNL     1       7.453   4.655  13.233  0.00  0.00    +0.000 A 
ATOM     31  C   UNL     1       6.557   3.926  12.455  0.00  0.00    +0.000 A 
ATOM     32  C   UNL     1       5.335   3.552  12.996  0.00  0.00    +0.000 A 
ATOM     33  C   UNL     1       5.010   3.925  14.304  0.00  0.00    +0.000 A 
ENDBRANCH  21  28
ENDBRANCH  20  21
ENDBRANCH   7  20
TORSDOF 10
ENDMDL
MODEL 3
REMARK VINA RESULT:      -7.4      0.522      1.309
REMARK  Name = 
REMARK  13 active torsions:
REMARK  status: ('A' for Active; 'I' for Inactive)
REMARK    1  A    between atoms: C_1  and  O_2
REMARK    2  A    between atoms: O_2  and  C_3
REMARK    3  A    between atoms: C_3  and  C_4
REMARK    4  A    between atoms: C_4  and  N_5
REMARK    5  A    between atoms: N_5  and  C_30
REMARK    6  A    between atoms: C_6  and  C_8
REMARK    7  A    between atoms: C_8  and  C_9
REMARK    8  A    between atoms: N_15  and  C_16
REMARK    9  A    between atoms: C_16  and  C_17
REMARK   10  A    between atoms: C_17  and  C_18
REMARK   11  A    between atoms: C_17  and  C_24
REMARK   12  A    between atoms: C_30  and  C_31
REMARK   13  A    between atoms: C_30  and  C_32
REMARK                            x       y       z     vdW  Elec       q    Type
REMARK                         _______ _______ _______ _____ _____    ______ ____
ROOT
ATOM      1  C   UNL     1       2.149   5.753  18.797  0.00  0.00    +0.000 C 
ATOM      2  C   UNL     1       2.154   4.866  20.074  0.00  0.00    +0.000 C 
ATOM      3  O   UNL     1       2.244   5.330  21.210  0.00  0.00    +0.000 OA
ATOM      4  N   UNL     1       1.951   3.514  19.943  0.00  0.00    +0.000 N 
ATOM      5  C   UNL     1       2.066   2.794  18.693  0.00  0.00    +0.000 C 
ATOM      6  C   UNL     1       1.783   3.703  17.490  0.00  0.00    +0.000 C 
ATOM      7  N   UNL     1       2.581   4.966  17.540  0.00  0.00    +0.000 NA
ATOM      8  H   UNL     1       1.977   3.003  20.816  0.00  0.00    +0.000 HD
ENDROOT
BRANCH   1   9
ATOM      9  C   UNL     1       2.848   7.141  19.122  0.00  0.00    +0.000 C 
BRANCH   9  11
ATOM     10  N   UNL     1       1.036   9.052  19.421  0.00  0.00    +0.000 N 
ATOM     11  C   UNL     1       2.047   8.402  18.648  0.00  0.00    +0.000 C 
ATOM     12  O   UNL     1       2.437   8.932  17.596  0.00  0.00    +0.000 OA
BRANCH  10  13
ATOM     13  C   UNL     1       0.667  10.432  18.953  0.00  0.00    +0.000 C 
ATOM     14  C   UNL     1      -0.853  10.635  18.926  0.00  0.00    +0.000 C 
ATOM     15  C   UNL     1       1.356  11.638  19.625  0.00  0.00    +0.000 C 
ENDBRANCH  10  13
BRANCH  10  16
ATOM     16  C   UNL     1       0.318   8.495  20.606  0.00  0.00    +0.000 C 
BRANCH  16  17
ATOM     17  C   UNL     1       0.647   9.095  22.011  0.00  0.00    +0.000 C 
BRANCH  17  19
ATOM     18  C   UNL     1      -0.838  10.626  23.111  0.00  0.00    +0.000 C 
ATOM     19  O   UNL     1      -0.535   9.272  22.812  0.00  0.00    +0.000 OA
ENDBRANCH  17  19
ENDBRANCH  16  17
ENDBRANCH  10  16
ENDBRANCH   9  11
ENDBRANCH   1   9
BRANCH   7  20
ATOM     20  C   UNL     1       4.042   4.688  17.444  0.00  0.00    +0.000 C 
BRANCH  20  21
ATOM     21  C   UNL     1       4.978   5.688  16.612  0.00  0.00    +0.000 C 
BRANCH  21  22
ATOM     22  C   UNL     1       6.043   6.395  17.473  0.00  0.00    +0.000 A 
ATOM     23  C   UNL     1       6.690   5.673  18.491  0.00  0.00    +0.000 A 
ATOM     24  C   UNL     1       7.877   6.135  19.064  0.00  0.00    +0.000 A 
ATOM     25  C   UNL     1       8.411   7.362  18.660  0.00  0.00    +0.000 A 
ATOM     26  C   UNL     1       7.755   8.125  17.703  0.00  0.00    +0.000 A 
ATOM     27  C   UNL     1       6.582   7.650  17.103  0.00  0.00    +0.000 A 
ENDBRANCH  21  22
BRANCH  21  28
ATOM     28  C   UNL     1       5.716   5.053  15.397  0.00  0.00    +0.000 A 
ATOM     29  C   UNL     1       6.970   5.491  14.940  0.00  0.00    +0.000 A 
ATOM     30  C   UNL     1       7.508   5.005  13.746  0.00  0.00    +0.000 A 
ATOM     31  C   UNL     1       6.812   4.081  12.969  0.00  0.00    +0.000 A 
ATOM     32  C   UNL     1       5.591   3.599  13.418  0.00  0.00    +0.000 A 
ATOM     33  C   UNL     1       5.065   4.057  14.630  0.00  0.00    +0.000 A 
ENDBRANCH  21  28
ENDBRANCH  20  21
ENDBRANCH   7  20
TORSDOF 10
ENDMDL
MODEL 4
REMARK VINA RESULT:      -7.4      0.608      1.235
REMARK  Name = 
REMARK  13 active torsions:
REMARK  status: ('A' for Active; 'I' for Inactive)
REMARK    1  A    between atoms: C_1  and  O_2
REMARK    2  A    between atoms: O_2  and  C_3
REMARK    3  A    between atoms: C_3  and  C_4
REMARK    4  A    between atoms: C_4  and  N_5
REMARK    5  A    between atoms: N_5  and  C_30
REMARK    6  A    between atoms: C_6  and  C_8
REMARK    7  A    between atoms: C_8  and  C_9
REMARK    8  A    between atoms: N_15  and  C_16
REMARK    9  A    between atoms: C_16  and  C_17
REMARK   10  A    between atoms: C_17  and  C_18
REMARK   11  A    between atoms: C_17  and  C_24
REMARK   12  A    between atoms: C_30  and  C_31
REMARK   13  A    between atoms: C_30  and  C_32
REMARK                            x       y       z     vdW  Elec       q    Type
REMARK                         _______ _______ _______ _____ _____    ______ ____
ROOT
ATOM      1  C   UNL     1       2.116   5.488  18.934  0.00  0.00    +0.000 C 
ATOM      2  C   UNL     1       2.245   4.603  20.205  0.00  0.00    +0.000 C 
ATOM      3  O   UNL     1       2.390   5.072  21.334  0.00  0.00    +0.000 OA
ATOM      4  N   UNL     1       2.096   3.243  20.085  0.00  0.00    +0.000 N 
ATOM      5  C   UNL     1       2.160   2.528  18.829  0.00  0.00    +0.000 C 
ATOM      6  C   UNL     1       1.758   3.421  17.649  0.00  0.00    +0.000 C 
ATOM      7  N   UNL     1       2.499   4.719  17.648  0.00  0.00    +0.000 NA
ATOM      8  H   UNL     1       2.203   2.735  20.954  0.00  0.00    +0.000 HD
ENDROOT
BRANCH   1   9
ATOM      9  C   UNL     1       2.771   6.906  19.213  0.00  0.00    +0.000 C 
BRANCH   9  11
ATOM     10  N   UNL     1       1.106   8.895  19.757  0.00  0.00    +0.000 N 
ATOM     11  C   UNL     1       1.871   8.129  18.825  0.00  0.00    +0.000 C 
ATOM     12  O   UNL     1       1.963   8.523  17.651  0.00  0.00    +0.000 OA
BRANCH  10  13
ATOM     13  C   UNL     1       0.624  10.223  19.244  0.00  0.00    +0.000 C 
ATOM     14  C   UNL     1       1.775  11.065  18.679  0.00  0.00    +0.000 C 
ATOM     15  C   UNL     1      -0.577  10.239  18.276  0.00  0.00    +0.000 C 
ENDBRANCH  10  13
BRANCH  10  16
ATOM     16  C   UNL     1       0.734   8.500  21.149  0.00  0.00    +0.000 C 
BRANCH  16  17
ATOM     17  C   UNL     1       1.543   9.129  22.329  0.00  0.00    +0.000 C 
BRANCH  17  19
ATOM     18  C   UNL     1      -0.677   9.789  22.958  0.00  0.00    +0.000 C 
ATOM     19  O   UNL     1       0.717   9.957  23.168  0.00  0.00    +0.000 OA
ENDBRANCH  17  19
ENDBRANCH  16  17
ENDBRANCH  10  16
ENDBRANCH   9  11
ENDBRANCH   1   9
BRANCH   7  20
ATOM     20  C   UNL     1       3.961   4.508  17.456  0.00  0.00    +0.000 C 
BRANCH  20  21
ATOM     21  C   UNL     1       4.817   5.612  16.669  0.00  0.00    +0.000 C 
BRANCH  21  22
ATOM     22  C   UNL     1       5.924   6.258  17.525  0.00  0.00    +0.000 A 
ATOM     23  C   UNL     1       6.571   5.484  18.504  0.00  0.00    +0.000 A 
ATOM     24  C   UNL     1       7.786   5.890  19.060  0.00  0.00    +0.000 A 
ATOM     25  C   UNL     1       8.350   7.111  18.681  0.00  0.00    +0.000 A 
ATOM     26  C   UNL     1       7.697   7.924  17.764  0.00  0.00    +0.000 A 
ATOM     27  C   UNL     1       6.495   7.506  17.179  0.00  0.00    +0.000 A 
ENDBRANCH  21  22
BRANCH  21  28
ATOM     28  C   UNL     1       5.481   5.123  15.349  0.00  0.00    +0.000 A 
ATOM     29  C   UNL     1       4.851   4.253  14.444  0.00  0.00    +0.000 A 
ATOM     30  C   UNL     1       5.554   3.709  13.365  0.00  0.00    +0.000 A 
ATOM     31  C   UNL     1       6.900   4.005  13.164  0.00  0.00    +0.000 A 
ATOM     32  C   UNL     1       7.536   4.894  14.018  0.00  0.00    +0.000 A 
ATOM     33  C   UNL     1       6.828   5.468  15.079  0.00  0.00    +0.000 A 
ENDBRANCH  21  28
ENDBRANCH  20  21
ENDBRANCH   7  20
TORSDOF 10
ENDMDL
MODEL 5
REMARK VINA RESULT:      -7.3      3.409      7.100
REMARK  Name = 
REMARK  13 active torsions:
REMARK  status: ('A' for Active; 'I' for Inactive)
REMARK    1  A    between atoms: C_1  and  O_2
REMARK    2  A    between atoms: O_2  and  C_3
REMARK    3  A    between atoms: C_3  and  C_4
REMARK    4  A    between atoms: C_4  and  N_5
REMARK    5  A    between atoms: N_5  and  C_30
REMARK    6  A    between atoms: C_6  and  C_8
REMARK    7  A    between atoms: C_8  and  C_9
REMARK    8  A    between atoms: N_15  and  C_16
REMARK    9  A    between atoms: C_16  and  C_17
REMARK   10  A    between atoms: C_17  and  C_18
REMARK   11  A    between atoms: C_17  and  C_24
REMARK   12  A    between atoms: C_30  and  C_31
REMARK   13  A    between atoms: C_30  and  C_32
REMARK                            x       y       z     vdW  Elec       q    Type
REMARK                         _______ _______ _______ _____ _____    ______ ____
ROOT
ATOM      1  C   UNL     1       6.851   6.340  17.850  0.00  0.00    +0.000 C 
ATOM      2  C   UNL     1       6.914   5.545  16.515  0.00  0.00    +0.000 C 
ATOM      3  O   UNL     1       7.500   5.962  15.516  0.00  0.00    +0.000 OA
ATOM      4  N   UNL     1       6.379   4.281  16.470  0.00  0.00    +0.000 N 
ATOM      5  C   UNL     1       5.466   3.752  17.459  0.00  0.00    +0.000 C 
ATOM      6  C   UNL     1       5.661   4.422  18.825  0.00  0.00    +0.000 C 
ATOM      7  N   UNL     1       5.652   5.913  18.725  0.00  0.00    +0.000 NA
ATOM      8  H   UNL     1       6.450   3.832  15.566  0.00  0.00    +0.000 HD
ENDROOT
BRANCH   1   9
ATOM      9  C   UNL     1       7.085   7.882  17.553  0.00  0.00    +0.000 C 
BRANCH   9  11
ATOM     10  N   UNL     1       8.548   9.924  18.397  0.00  0.00    +0.000 N 
ATOM     11  C   UNL     1       8.291   8.521  18.325  0.00  0.00    +0.000 C 
ATOM     12  O   UNL     1       8.961   7.746  19.026  0.00  0.00    +0.000 OA
BRANCH  10  13
ATOM     13  C   UNL     1       9.513  10.338  19.474  0.00  0.00    +0.000 C 
ATOM     14  C   UNL     1      10.718  11.092  18.897  0.00  0.00    +0.000 C 
ATOM     15  C   UNL     1       8.956  11.081  20.706  0.00  0.00    +0.000 C 
ENDBRANCH  10  13
BRANCH  10  16
ATOM     16  C   UNL     1       7.980  10.986  17.515  0.00  0.00    +0.000 C 
BRANCH  16  17
ATOM     17  C   UNL     1       8.602  12.417  17.598  0.00  0.00    +0.000 C 
BRANCH  17  19
ATOM     18  C   UNL     1       7.320  14.446  17.643  0.00  0.00    +0.000 C 
ATOM     19  O   UNL     1       7.785  13.317  18.368  0.00  0.00    +0.000 OA
ENDBRANCH  17  19
ENDBRANCH  16  17
ENDBRANCH  10  16
ENDBRANCH   9  11
ENDBRANCH   1   9
BRANCH   7  20
ATOM     20  C   UNL     1       4.327   6.417  18.264  0.00  0.00    +0.000 C 
BRANCH  20  21
ATOM     21  C   UNL     1       3.111   6.494  19.306  0.00  0.00    +0.000 C 
BRANCH  21  22
ATOM     22  C   UNL     1       2.191   7.712  19.090  0.00  0.00    +0.000 A 
ATOM     23  C   UNL     1       1.514   8.262  20.192  0.00  0.00    +0.000 A 
ATOM     24  C   UNL     1       0.954   9.540  20.133  0.00  0.00    +0.000 A 
ATOM     25  C   UNL     1       1.019  10.272  18.944  0.00  0.00    +0.000 A 
ATOM     26  C   UNL     1       1.625   9.723  17.821  0.00  0.00    +0.000 A 
ATOM     27  C   UNL     1       2.216   8.456  17.886  0.00  0.00    +0.000 A 
ENDBRANCH  21  22
BRANCH  21  28
ATOM     28  C   UNL     1       2.200   5.233  19.359  0.00  0.00    +0.000 A 
ATOM     29  C   UNL     1       1.709   4.684  20.555  0.00  0.00    +0.000 A 
ATOM     30  C   UNL     1       1.041   3.457  20.560  0.00  0.00    +0.000 A 
ATOM     31  C   UNL     1       0.853   2.738  19.382  0.00  0.00    +0.000 A 
ATOM     32  C   UNL     1       1.290   3.276  18.180  0.00  0.00    +0.000 A 
ATOM     33  C   UNL     1       1.928   4.520  18.166  0.00  0.00    +0.000 A 
ENDBRANCH  21  28
ENDBRANCH  20  21
ENDBRANCH   7  20
TORSDOF 10
ENDMDL
MODEL 6
REMARK VINA RESULT:      -6.7      1.180      2.331
REMARK  Name = 
REMARK  13 active torsions:
REMARK  status: ('A' for Active; 'I' for Inactive)
REMARK    1  A    between atoms: C_1  and  O_2
REMARK    2  A    between atoms: O_2  and  C_3
REMARK    3  A    between atoms: C_3  and  C_4
REMARK    4  A    between atoms: C_4  and  N_5
REMARK    5  A    between atoms: N_5  and  C_30
REMARK    6  A    between atoms: C_6  and  C_8
REMARK    7  A    between atoms: C_8  and  C_9
REMARK    8  A    between atoms: N_15  and  C_16
REMARK    9  A    between atoms: C_16  and  C_17
REMARK   10  A    between atoms: C_17  and  C_18
REMARK   11  A    between atoms: C_17  and  C_24
REMARK   12  A    between atoms: C_30  and  C_31
REMARK   13  A    between atoms: C_30  and  C_32
REMARK                            x       y       z     vdW  Elec       q    Type
REMARK                         _______ _______ _______ _____ _____    ______ ____
ROOT
ATOM      1  C   UNL     1       2.113   5.318  19.091  0.00  0.00    +0.000 C 
ATOM      2  C   UNL     1       2.238   4.287  20.248  0.00  0.00    +0.000 C 
ATOM      3  O   UNL     1       2.411   4.617  21.421  0.00  0.00    +0.000 OA
ATOM      4  N   UNL     1       2.050   2.955  19.973  0.00  0.00    +0.000 N 
ATOM      5  C   UNL     1       2.078   2.391  18.640  0.00  0.00    +0.000 C 
ATOM      6  C   UNL     1       1.682   3.427  17.580  0.00  0.00    +0.000 C 
ATOM      7  N   UNL     1       2.457   4.697  17.718  0.00  0.00    +0.000 NA
ATOM      8  H   UNL     1       2.157   2.346  20.774  0.00  0.00    +0.000 HD
ENDROOT
BRANCH   1   9
ATOM      9  C   UNL     1       2.810   6.678  19.524  0.00  0.00    +0.000 C 
BRANCH   9  11
ATOM     10  N   UNL     1       1.442   8.945  19.428  0.00  0.00    +0.000 N 
ATOM     11  C   UNL     1       1.833   7.754  20.112  0.00  0.00    +0.000 C 
ATOM     12  O   UNL     1       1.270   7.454  21.176  0.00  0.00    +0.000 OA
BRANCH  10  13
ATOM     13  C   UNL     1       0.235   9.637  19.998  0.00  0.00    +0.000 C 
ATOM     14  C   UNL     1       0.629  10.808  20.908  0.00  0.00    +0.000 C 
ATOM     15  C   UNL     1      -0.885  10.067  19.028  0.00  0.00    +0.000 C 
ENDBRANCH  10  13
BRANCH  10  16
ATOM     16  C   UNL     1       2.113   9.561  18.244  0.00  0.00    +0.000 C 
BRANCH  16  17
ATOM     17  C   UNL     1       1.699  11.013  17.841  0.00  0.00    +0.000 C 
BRANCH  17  19
ATOM     18  C   UNL     1       2.600  13.081  18.658  0.00  0.00    +0.000 C 
ATOM     19  O   UNL     1       2.815  11.920  17.871  0.00  0.00    +0.000 OA
ENDBRANCH  17  19
ENDBRANCH  16  17
ENDBRANCH  10  16
ENDBRANCH   9  11
ENDBRANCH   1   9
BRANCH   7  20
ATOM     20  C   UNL     1       3.910   4.473  17.477  0.00  0.00    +0.000 C 
BRANCH  20  21
ATOM     21  C   UNL     1       4.755   5.587  16.692  0.00  0.00    +0.000 C 
BRANCH  21  22
ATOM     22  C   UNL     1       5.863   6.235  17.545  0.00  0.00    +0.000 A 
ATOM     23  C   UNL     1       6.480   5.477  18.556  0.00  0.00    +0.000 A 
ATOM     24  C   UNL     1       7.695   5.875  19.119  0.00  0.00    +0.000 A 
ATOM     25  C   UNL     1       8.288   7.074  18.713  0.00  0.00    +0.000 A 
ATOM     26  C   UNL     1       7.665   7.873  17.764  0.00  0.00    +0.000 A 
ATOM     27  C   UNL     1       6.464   7.462  17.173  0.00  0.00    +0.000 A 
ENDBRANCH  21  22
BRANCH  21  28
ATOM     28  C   UNL     1       5.417   5.108  15.366  0.00  0.00    +0.000 A 
ATOM     29  C   UNL     1       4.748   4.330  14.406  0.00  0.00    +0.000 A 
ATOM     30  C   UNL     1       5.437   3.784  13.320  0.00  0.00    +0.000 A 
ATOM     31  C   UNL     1       6.806   3.985  13.165  0.00  0.00    +0.000 A 
ATOM     32  C   UNL     1       7.484   4.785  14.074  0.00  0.00    +0.000 A 
ATOM     33  C   UNL     1       6.792   5.362  15.143  0.00  0.00    +0.000 A 
ENDBRANCH  21  28
ENDBRANCH  20  21
ENDBRANCH   7  20
TORSDOF 10
ENDMDL
MODEL 7
REMARK VINA RESULT:      -6.6      3.544      7.239
REMARK  Name = 
REMARK  13 active torsions:
REMARK  status: ('A' for Active; 'I' for Inactive)
REMARK    1  A    between atoms: C_1  and  O_2
REMARK    2  A    between atoms: O_2  and  C_3
REMARK    3  A    between atoms: C_3  and  C_4
REMARK    4  A    between atoms: C_4  and  N_5
REMARK    5  A    between atoms: N_5  and  C_30
REMARK    6  A    between atoms: C_6  and  C_8
REMARK    7  A    between atoms: C_8  and  C_9
REMARK    8  A    between atoms: N_15  and  C_16
REMARK    9  A    between atoms: C_16  and  C_17
REMARK   10  A    between atoms: C_17  and  C_18
REMARK   11  A    between atoms: C_17  and  C_24
REMARK   12  A    between atoms: C_30  and  C_31
REMARK   13  A    between atoms: C_30  and  C_32
REMARK                            x       y       z     vdW  Elec       q    Type
REMARK                         _______ _______ _______ _____ _____    ______ ____
ROOT
ATOM      1  C   UNL     1       7.059   6.411  17.713  0.00  0.00    +0.000 C 
ATOM      2  C   UNL     1       7.050   5.671  16.345  0.00  0.00    +0.000 C 
ATOM      3  O   UNL     1       7.597   6.121  15.339  0.00  0.00    +0.000 OA
ATOM      4  N   UNL     1       6.493   4.418  16.273  0.00  0.00    +0.000 N 
ATOM      5  C   UNL     1       5.616   3.861  17.280  0.00  0.00    +0.000 C 
ATOM      6  C   UNL     1       5.882   4.471  18.662  0.00  0.00    +0.000 C 
ATOM      7  N   UNL     1       5.893   5.965  18.624  0.00  0.00    +0.000 NA
ATOM      8  H   UNL     1       6.516   4.006  15.349  0.00  0.00    +0.000 HD
ENDROOT
BRANCH   1   9
ATOM      9  C   UNL     1       7.304   7.960  17.469  0.00  0.00    +0.000 C 
BRANCH   9  11
ATOM     10  N   UNL     1       8.776   9.978  18.357  0.00  0.00    +0.000 N 
ATOM     11  C   UNL     1       8.432   8.591  18.357  0.00  0.00    +0.000 C 
ATOM     12  O   UNL     1       8.940   7.842  19.205  0.00  0.00    +0.000 OA
BRANCH  10  13
ATOM     13  C   UNL     1       9.607  10.426  19.527  0.00  0.00    +0.000 C 
ATOM     14  C   UNL     1      10.874  11.162  19.075  0.00  0.00    +0.000 C 
ATOM     15  C   UNL     1       8.909  11.207  20.660  0.00  0.00    +0.000 C 
ENDBRANCH  10  13
BRANCH  10  16
ATOM     16  C   UNL     1       8.413  10.991  17.321  0.00  0.00    +0.000 C 
BRANCH  16  17
ATOM     17  C   UNL     1       7.953  12.403  17.808  0.00  0.00    +0.000 C 
BRANCH  17  19
ATOM     18  C   UNL     1       8.807  14.581  18.341  0.00  0.00    +0.000 C 
ATOM     19  O   UNL     1       8.943  13.413  17.546  0.00  0.00    +0.000 OA
ENDBRANCH  17  19
ENDBRANCH  16  17
ENDBRANCH  10  16
ENDBRANCH   9  11
ENDBRANCH   1   9
BRANCH   7  20
ATOM     20  C   UNL     1       4.558   6.507  18.244  0.00  0.00    +0.000 C 
BRANCH  20  21
ATOM     21  C   UNL     1       3.370   6.492  19.320  0.00  0.00    +0.000 C 
BRANCH  21  22
ATOM     22  C   UNL     1       2.451   7.726  19.241  0.00  0.00    +0.000 A 
ATOM     23  C   UNL     1       2.191   8.307  17.987  0.00  0.00    +0.000 A 
ATOM     24  C   UNL     1       1.123   9.188  17.805  0.00  0.00    +0.000 A 
ATOM     25  C   UNL     1       0.324   9.545  18.895  0.00  0.00    +0.000 A 
ATOM     26  C   UNL     1       0.600   9.036  20.157  0.00  0.00    +0.000 A 
ATOM     27  C   UNL     1       1.650   8.127  20.337  0.00  0.00    +0.000 A 
ENDBRANCH  21  22
BRANCH  21  28
ATOM     28  C   UNL     1       2.453   5.233  19.283  0.00  0.00    +0.000 A 
ATOM     29  C   UNL     1       1.993   4.648  18.092  0.00  0.00    +0.000 A 
ATOM     30  C   UNL     1       1.037   3.629  18.116  0.00  0.00    +0.000 A 
ATOM     31  C   UNL     1       0.506   3.173  19.320  0.00  0.00    +0.000 A 
ATOM     32  C   UNL     1       0.974   3.704  20.514  0.00  0.00    +0.000 A 
ATOM     33  C   UNL     1       1.955   4.699  20.496  0.00  0.00    +0.000 A 
ENDBRANCH  21  28
ENDBRANCH  20  21
ENDBRANCH   7  20
TORSDOF 10
ENDMDL
MODEL 8
REMARK VINA RESULT:      -6.6      1.145      2.269
REMARK  Name = 
REMARK  13 active torsions:
REMARK  status: ('A' for Active; 'I' for Inactive)
REMARK    1  A    between atoms: C_1  and  O_2
REMARK    2  A    between atoms: O_2  and  C_3
REMARK    3  A    between atoms: C_3  and  C_4
REMARK    4  A    between atoms: C_4  and  N_5
REMARK    5  A    between atoms: N_5  and  C_30
REMARK    6  A    between atoms: C_6  and  C_8
REMARK    7  A    between atoms: C_8  and  C_9
REMARK    8  A    between atoms: N_15  and  C_16
REMARK    9  A    between atoms: C_16  and  C_17
REMARK   10  A    between atoms: C_17  and  C_18
REMARK   11  A    between atoms: C_17  and  C_24
REMARK   12  A    between atoms: C_30  and  C_31
REMARK   13  A    between atoms: C_30  and  C_32
REMARK                            x       y       z     vdW  Elec       q    Type
REMARK                         _______ _______ _______ _____ _____    ______ ____
ROOT
ATOM      1  C   UNL     1       2.372   5.387  18.880  0.00  0.00    +0.000 C 
ATOM      2  C   UNL     1       2.343   4.322  20.012  0.00  0.00    +0.000 C 
ATOM      3  O   UNL     1       2.352   4.616  21.207  0.00  0.00    +0.000 OA
ATOM      4  N   UNL     1       2.203   2.998  19.674  0.00  0.00    +0.000 N 
ATOM      5  C   UNL     1       2.416   2.476  18.342  0.00  0.00    +0.000 C 
ATOM      6  C   UNL     1       2.163   3.542  17.269  0.00  0.00    +0.000 C 
ATOM      7  N   UNL     1       2.904   4.809  17.550  0.00  0.00    +0.000 NA
ATOM      8  H   UNL     1       2.202   2.365  20.464  0.00  0.00    +0.000 HD
ENDROOT
BRANCH   1   9
ATOM      9  C   UNL     1       2.995   6.734  19.445  0.00  0.00    +0.000 C 
BRANCH   9  11
ATOM     10  N   UNL     1       1.439   8.865  19.192  0.00  0.00    +0.000 N 
ATOM     11  C   UNL     1       1.942   7.773  19.964  0.00  0.00    +0.000 C 
ATOM     12  O   UNL     1       1.425   7.522  21.064  0.00  0.00    +0.000 OA
BRANCH  10  13
ATOM     13  C   UNL     1       0.189   9.502  19.732  0.00  0.00    +0.000 C 
ATOM     14  C   UNL     1       0.505  10.560  20.796  0.00  0.00    +0.000 C 
ATOM     15  C   UNL     1      -0.845  10.048  18.725  0.00  0.00    +0.000 C 
ENDBRANCH  10  13
BRANCH  10  16
ATOM     16  C   UNL     1       2.034   9.429  17.944  0.00  0.00    +0.000 C 
BRANCH  16  17
ATOM     17  C   UNL     1       1.876  10.962  17.685  0.00  0.00    +0.000 C 
BRANCH  17  19
ATOM     18  C   UNL     1       2.701  13.125  18.315  0.00  0.00    +0.000 C 
ATOM     19  O   UNL     1       2.598  11.749  18.648  0.00  0.00    +0.000 OA
ENDBRANCH  17  19
ENDBRANCH  16  17
ENDBRANCH  10  16
ENDBRANCH   9  11
ENDBRANCH   1   9
BRANCH   7  20
ATOM     20  C   UNL     1       4.379   4.595  17.504  0.00  0.00    +0.000 C 
BRANCH  20  21
ATOM     21  C   UNL     1       5.274   5.511  16.540  0.00  0.00    +0.000 C 
BRANCH  21  22
ATOM     22  C   UNL     1       6.527   6.088  17.227  0.00  0.00    +0.000 A 
ATOM     23  C   UNL     1       6.909   7.413  16.954  0.00  0.00    +0.000 A 
ATOM     24  C   UNL     1       7.805   8.093  17.783  0.00  0.00    +0.000 A 
ATOM     25  C   UNL     1       8.376   7.435  18.875  0.00  0.00    +0.000 A 
ATOM     26  C   UNL     1       8.065   6.106  19.128  0.00  0.00    +0.000 A 
ATOM     27  C   UNL     1       7.143   5.430  18.319  0.00  0.00    +0.000 A 
ENDBRANCH  21  22
BRANCH  21  28
ATOM     28  C   UNL     1       5.746   4.829  15.222  0.00  0.00    +0.000 A 
ATOM     29  C   UNL     1       7.037   4.983  14.692  0.00  0.00    +0.000 A 
ATOM     30  C   UNL     1       7.354   4.492  13.423  0.00  0.00    +0.000 A 
ATOM     31  C   UNL     1       6.397   3.846  12.644  0.00  0.00    +0.000 A 
ATOM     32  C   UNL     1       5.125   3.642  13.160  0.00  0.00    +0.000 A 
ATOM     33  C   UNL     1       4.813   4.101  14.444  0.00  0.00    +0.000 A 
ENDBRANCH  21  28
ENDBRANCH  20  21
ENDBRANCH   7  20
TORSDOF 10
ENDMDL
MODEL 9
REMARK VINA RESULT:      -6.6      3.085      8.149
REMARK  Name = 
REMARK  13 active torsions:
REMARK  status: ('A' for Active; 'I' for Inactive)
REMARK    1  A    between atoms: C_1  and  O_2
REMARK    2  A    between atoms: O_2  and  C_3
REMARK    3  A    between atoms: C_3  and  C_4
REMARK    4  A    between atoms: C_4  and  N_5
REMARK    5  A    between atoms: N_5  and  C_30
REMARK    6  A    between atoms: C_6  and  C_8
REMARK    7  A    between atoms: C_8  and  C_9
REMARK    8  A    between atoms: N_15  and  C_16
REMARK    9  A    between atoms: C_16  and  C_17
REMARK   10  A    between atoms: C_17  and  C_18
REMARK   11  A    between atoms: C_17  and  C_24
REMARK   12  A    between atoms: C_30  and  C_31
REMARK   13  A    between atoms: C_30  and  C_32
REMARK                            x       y       z     vdW  Elec       q    Type
REMARK                         _______ _______ _______ _____ _____    ______ ____
ROOT
ATOM      1  C   UNL     1       5.842   5.278  16.756  0.00  0.00    +0.000 C 
ATOM      2  C   UNL     1       5.513   3.793  17.077  0.00  0.00    +0.000 C 
ATOM      3  O   UNL     1       5.483   2.914  16.216  0.00  0.00    +0.000 OA
ATOM      4  N   UNL     1       5.344   3.419  18.388  0.00  0.00    +0.000 N 
ATOM      5  C   UNL     1       5.115   4.349  19.472  0.00  0.00    +0.000 C 
ATOM      6  C   UNL     1       5.711   5.729  19.170  0.00  0.00    +0.000 C 
ATOM      7  N   UNL     1       5.290   6.242  17.831  0.00  0.00    +0.000 NA
ATOM      8  H   UNL     1       5.124   2.440  18.515  0.00  0.00    +0.000 HD
ENDROOT
BRANCH   1   9
ATOM      9  C   UNL     1       5.533   5.564  15.226  0.00  0.00    +0.000 C 
BRANCH   9  11
ATOM     10  N   UNL     1       6.211   4.154  13.087  0.00  0.00    +0.000 N 
ATOM     11  C   UNL     1       6.566   4.944  14.223  0.00  0.00    +0.000 C 
ATOM     12  O   UNL     1       7.747   5.299  14.368  0.00  0.00    +0.000 OA
BRANCH  10  13
ATOM     13  C   UNL     1       7.305   3.978  12.069  0.00  0.00    +0.000 C 
ATOM     14  C   UNL     1       7.308   2.563  11.479  0.00  0.00    +0.000 C 
ATOM     15  C   UNL     1       7.430   5.028  10.946  0.00  0.00    +0.000 C 
ENDBRANCH  10  13
BRANCH  10  16
ATOM     16  C   UNL     1       4.899   3.489  12.833  0.00  0.00    +0.000 C 
BRANCH  16  17
ATOM     17  C   UNL     1       4.518   3.163  11.352  0.00  0.00    +0.000 C 
BRANCH  17  19
ATOM     18  C   UNL     1       2.869   3.775   9.720  0.00  0.00    +0.000 C 
ATOM     19  O   UNL     1       3.737   4.213  10.753  0.00  0.00    +0.000 OA
ENDBRANCH  17  19
ENDBRANCH  16  17
ENDBRANCH  10  16
ENDBRANCH   9  11
ENDBRANCH   1   9
BRANCH   7  20
ATOM     20  C   UNL     1       3.818   6.467  17.776  0.00  0.00    +0.000 C 
BRANCH  20  21
ATOM     21  C   UNL     1       2.974   6.475  19.139  0.00  0.00    +0.000 C 
BRANCH  21  22
ATOM     22  C   UNL     1       2.030   7.686  19.271  0.00  0.00    +0.000 A 
ATOM     23  C   UNL     1       1.559   8.051  20.545  0.00  0.00    +0.000 A 
ATOM     24  C   UNL     1       0.997   9.309  20.774  0.00  0.00    +0.000 A 
ATOM     25  C   UNL     1       0.848  10.207  19.714  0.00  0.00    +0.000 A 
ATOM     26  C   UNL     1       1.245   9.844  18.434  0.00  0.00    +0.000 A 
ATOM     27  C   UNL     1       1.839   8.597  18.205  0.00  0.00    +0.000 A 
ENDBRANCH  21  22
BRANCH  21  28
ATOM     28  C   UNL     1       2.124   5.198  19.404  0.00  0.00    +0.000 A 
ATOM     29  C   UNL     1       1.842   4.711  20.691  0.00  0.00    +0.000 A 
ATOM     30  C   UNL     1       1.224   3.470  20.868  0.00  0.00    +0.000 A 
ATOM     31  C   UNL     1       0.882   2.677  19.776  0.00  0.00    +0.000 A 
ATOM     32  C   UNL     1       1.111   3.152  18.493  0.00  0.00    +0.000 A 
ATOM     33  C   UNL     1       1.697   4.408  18.310  0.00  0.00    +0.000 A 
ENDBRANCH  21  28
ENDBRANCH  20  21
ENDBRANCH   7  20
TORSDOF 10
ENDMDL
