MODEL 1
REMARK VINA RESULT:      -7.1      0.000      0.000
REMARK  Name = 
REMARK  1 active torsions:
REMARK  status: ('A' for Active; 'I' for Inactive)
REMARK    1  A    between atoms: C_4  and  C_5
REMARK                            x       y       z     vdW  Elec       q    Type
REMARK                         _______ _______ _______ _____ _____    ______ ____
ROOT
ATOM      1  O   UNL     1       7.871   5.037  18.552  0.00  0.00    +0.000 OA
ATOM      2  C   UNL     1       6.771   4.659  18.178  0.00  0.00    +0.000 A 
ATOM      3  O   UNL     1       5.770   4.405  19.050  0.00  0.00    +0.000 OA
ATOM      4  C   UNL     1       4.604   3.891  18.594  0.00  0.00    +0.000 A 
ATOM      5  N   UNL     1       4.301   3.656  17.361  0.00  0.00    +0.000 NA
ATOM      6  C   UNL     1       5.226   4.027  16.399  0.00  0.00    +0.000 A 
ATOM      7  C   UNL     1       4.870   3.960  15.052  0.00  0.00    +0.000 A 
ATOM      8  C   UNL     1       5.763   4.388  14.069  0.00  0.00    +0.000 A 
ATOM      9  C   UNL     1       7.027   4.851  14.434  0.00  0.00    +0.000 A 
ATOM     10 CL   UNL     1       8.124   5.380  13.222  0.00  0.00    +0.000 Cl
ATOM     11  C   UNL     1       7.396   4.907  15.775  0.00  0.00    +0.000 A 
ATOM     12  C   UNL     1       6.475   4.513  16.749  0.00  0.00    +0.000 A 
ENDROOT
BRANCH   4  13
ATOM     13  C   UNL     1       3.689   3.644  19.682  0.00  0.00    +0.000 A 
ATOM     14  C   UNL     1       3.566   2.509  20.461  0.00  0.00    +0.000 A 
ATOM     15  C   UNL     1       2.576   2.653  21.473  0.00  0.00    +0.000 A 
ATOM     16  C   UNL     1       1.959   3.882  21.419  0.00  0.00    +0.000 A 
ATOM     17  S   UNL     1       2.596   4.867  20.181  0.00  0.00    +0.000 S 
ENDBRANCH   4  13
TORSDOF 1
ENDMDL
MODEL 2
REMARK VINA RESULT:      -6.9      0.889      1.087
REMARK  Name = 
REMARK  1 active torsions:
REMARK  status: ('A' for Active; 'I' for Inactive)
REMARK    1  A    between atoms: C_4  and  C_5
REMARK                            x       y       z     vdW  Elec       q    Type
REMARK                         _______ _______ _______ _____ _____    ______ ____
ROOT
ATOM      1  O   UNL     1       7.466   4.903  18.666  0.00  0.00    +0.000 OA
ATOM      2  C   UNL     1       6.379   4.604  18.196  0.00  0.00    +0.000 A 
ATOM      3  O   UNL     1       5.294   4.404  18.978  0.00  0.00    +0.000 OA
ATOM      4  C   UNL     1       4.139   3.974  18.417  0.00  0.00    +0.000 A 
ATOM      5  N   UNL     1       3.925   3.778  17.160  0.00  0.00    +0.000 NA
ATOM      6  C   UNL     1       4.949   4.101  16.284  0.00  0.00    +0.000 A 
ATOM      7  C   UNL     1       4.702   4.078  14.911  0.00  0.00    +0.000 A 
ATOM      8  C   UNL     1       5.700   4.461  14.014  0.00  0.00    +0.000 A 
ATOM      9  C   UNL     1       6.956   4.833  14.490  0.00  0.00    +0.000 A 
ATOM     10 CL   UNL     1       8.182   5.306  13.383  0.00  0.00    +0.000 Cl
ATOM     11  C   UNL     1       7.216   4.845  15.857  0.00  0.00    +0.000 A 
ATOM     12  C   UNL     1       6.193   4.499  16.745  0.00  0.00    +0.000 A 
ENDROOT
BRANCH   4  13
ATOM     13  C   UNL     1       3.123   3.773  19.422  0.00  0.00    +0.000 A 
ATOM     14  C   UNL     1       1.893   4.392  19.536  0.00  0.00    +0.000 A 
ATOM     15  C   UNL     1       1.141   3.898  20.639  0.00  0.00    +0.000 A 
ATOM     16  C   UNL     1       1.829   2.939  21.345  0.00  0.00    +0.000 A 
ATOM     17  S   UNL     1       3.355   2.609  20.658  0.00  0.00    +0.000 S 
ENDBRANCH   4  13
TORSDOF 1
ENDMDL
MODEL 3
REMARK VINA RESULT:      -6.8      3.429      6.057
REMARK  Name = 
REMARK  1 active torsions:
REMARK  status: ('A' for Active; 'I' for Inactive)
REMARK    1  A    between atoms: C_4  and  C_5
REMARK                            x       y       z     vdW  Elec       q    Type
REMARK                         _______ _______ _______ _____ _____    ______ ____
ROOT
ATOM      1  O   UNL     1       5.867   4.684  19.812  0.00  0.00    +0.000 OA
ATOM      2  C   UNL     1       5.244   4.314  18.828  0.00  0.00    +0.000 A 
ATOM      3  O   UNL     1       5.782   4.350  17.588  0.00  0.00    +0.000 OA
ATOM      4  C   UNL     1       5.016   4.026  16.520  0.00  0.00    +0.000 A 
ATOM      5  N   UNL     1       3.793   3.614  16.553  0.00  0.00    +0.000 NA
ATOM      6  C   UNL     1       3.223   3.415  17.799  0.00  0.00    +0.000 A 
ATOM      7  C   UNL     1       1.973   2.801  17.886  0.00  0.00    +0.000 A 
ATOM      8  C   UNL     1       1.409   2.534  19.134  0.00  0.00    +0.000 A 
ATOM      9  C   UNL     1       2.081   2.913  20.295  0.00  0.00    +0.000 A 
ATOM     10 CL   UNL     1       1.385   2.581  21.831  0.00  0.00    +0.000 Cl
ATOM     11  C   UNL     1       3.322   3.539  20.218  0.00  0.00    +0.000 A 
ATOM     12  C   UNL     1       3.892   3.763  18.961  0.00  0.00    +0.000 A 
ENDROOT
BRANCH   4  13
ATOM     13  C   UNL     1       5.756   4.177  15.291  0.00  0.00    +0.000 A 
ATOM     14  C   UNL     1       5.428   3.719  14.029  0.00  0.00    +0.000 A 
ATOM     15  C   UNL     1       6.388   4.101  13.050  0.00  0.00    +0.000 A 
ATOM     16  C   UNL     1       7.428   4.816  13.598  0.00  0.00    +0.000 A 
ATOM     17  S   UNL     1       7.227   5.056  15.275  0.00  0.00    +0.000 S 
ENDBRANCH   4  13
TORSDOF 1
ENDMDL
MODEL 4
REMARK VINA RESULT:      -6.7      5.266      6.462
REMARK  Name = 
REMARK  1 active torsions:
REMARK  status: ('A' for Active; 'I' for Inactive)
REMARK    1  A    between atoms: C_4  and  C_5
REMARK                            x       y       z     vdW  Elec       q    Type
REMARK                         _______ _______ _______ _____ _____    ______ ____
ROOT
ATOM      1  O   UNL     1       2.347   8.986  17.323  0.00  0.00    +0.000 OA
ATOM      2  C   UNL     1       2.061   8.492  18.403  0.00  0.00    +0.000 A 
ATOM      3  O   UNL     1       1.331   9.162  19.323  0.00  0.00    +0.000 OA
ATOM      4  C   UNL     1       1.128   8.611  20.543  0.00  0.00    +0.000 A 
ATOM      5  N   UNL     1       1.518   7.443  20.929  0.00  0.00    +0.000 NA
ATOM      6  C   UNL     1       2.147   6.642  19.991  0.00  0.00    +0.000 A 
ATOM      7  C   UNL     1       2.423   5.311  20.308  0.00  0.00    +0.000 A 
ATOM      8  C   UNL     1       2.998   4.469  19.357  0.00  0.00    +0.000 A 
ATOM      9  C   UNL     1       3.329   4.968  18.098  0.00  0.00    +0.000 A 
ATOM     10 CL   UNL     1       4.036   3.928  16.926  0.00  0.00    +0.000 Cl
ATOM     11  C   UNL     1       3.071   6.298  17.777  0.00  0.00    +0.000 A 
ATOM     12  C   UNL     1       2.457   7.118  18.728  0.00  0.00    +0.000 A 
ENDROOT
BRANCH   4  13
ATOM     13  C   UNL     1       0.375   9.503  21.391  0.00  0.00    +0.000 A 
ATOM     14  C   UNL     1      -0.341   9.201  22.534  0.00  0.00    +0.000 A 
ATOM     15  C   UNL     1      -0.919  10.357  23.130  0.00  0.00    +0.000 A 
ATOM     16  C   UNL     1      -0.649  11.498  22.411  0.00  0.00    +0.000 A 
ATOM     17  S   UNL     1       0.328  11.182  21.049  0.00  0.00    +0.000 S 
ENDBRANCH   4  13
TORSDOF 1
ENDMDL
MODEL 5
REMARK VINA RESULT:      -6.5      1.513      1.561
REMARK  Name = 
REMARK  1 active torsions:
REMARK  status: ('A' for Active; 'I' for Inactive)
REMARK    1  A    between atoms: C_4  and  C_5
REMARK                            x       y       z     vdW  Elec       q    Type
REMARK                         _______ _______ _______ _____ _____    ______ ____
ROOT
ATOM      1  O   UNL     1       6.634   6.939  17.725  0.00  0.00    +0.000 OA
ATOM      2  C   UNL     1       5.863   6.039  17.429  0.00  0.00    +0.000 A 
ATOM      3  O   UNL     1       4.799   5.729  18.203  0.00  0.00    +0.000 OA
ATOM      4  C   UNL     1       4.034   4.658  17.885  0.00  0.00    +0.000 A 
ATOM      5  N   UNL     1       4.174   3.897  16.852  0.00  0.00    +0.000 NA
ATOM      6  C   UNL     1       5.156   4.243  15.938  0.00  0.00    +0.000 A 
ATOM      7  C   UNL     1       5.224   3.561  14.723  0.00  0.00    +0.000 A 
ATOM      8  C   UNL     1       6.165   3.934  13.762  0.00  0.00    +0.000 A 
ATOM      9  C   UNL     1       7.060   4.968  14.032  0.00  0.00    +0.000 A 
ATOM     10 CL   UNL     1       8.215   5.428  12.846  0.00  0.00    +0.000 Cl
ATOM     11  C   UNL     1       7.008   5.645  15.247  0.00  0.00    +0.000 A 
ATOM     12  C   UNL     1       6.033   5.286  16.183  0.00  0.00    +0.000 A 
ENDROOT
BRANCH   4  13
ATOM     13  C   UNL     1       2.987   4.466  18.859  0.00  0.00    +0.000 A 
ATOM     14  C   UNL     1       2.806   5.114  20.066  0.00  0.00    +0.000 A 
ATOM     15  C   UNL     1       1.628   4.685  20.738  0.00  0.00    +0.000 A 
ATOM     16  C   UNL     1       0.961   3.707  20.037  0.00  0.00    +0.000 A 
ATOM     17  S   UNL     1       1.731   3.338  18.560  0.00  0.00    +0.000 S 
ENDBRANCH   4  13
TORSDOF 1
ENDMDL
MODEL 6
REMARK VINA RESULT:      -6.5      3.408      6.064
REMARK  Name = 
REMARK  1 active torsions:
REMARK  status: ('A' for Active; 'I' for Inactive)
REMARK    1  A    between atoms: C_4  and  C_5
REMARK                            x       y       z     vdW  Elec       q    Type
REMARK                         _______ _______ _______ _____ _____    ______ ____
ROOT
ATOM      1  O   UNL     1       6.770   4.745  19.131  0.00  0.00    +0.000 OA
ATOM      2  C   UNL     1       6.059   4.468  18.177  0.00  0.00    +0.000 A 
ATOM      3  O   UNL     1       6.517   4.526  16.906  0.00  0.00    +0.000 OA
ATOM      4  C   UNL     1       5.662   4.310  15.879  0.00  0.00    +0.000 A 
ATOM      5  N   UNL     1       4.417   3.983  15.976  0.00  0.00    +0.000 NA
ATOM      6  C   UNL     1       3.916   3.764  17.248  0.00  0.00    +0.000 A 
ATOM      7  C   UNL     1       2.632   3.236  17.392  0.00  0.00    +0.000 A 
ATOM      8  C   UNL     1       2.132   2.948  18.662  0.00  0.00    +0.000 A 
ATOM      9  C   UNL     1       2.903   3.222  19.791  0.00  0.00    +0.000 A 
ATOM     10 CL   UNL     1       2.285   2.864  21.354  0.00  0.00    +0.000 Cl
ATOM     11  C   UNL     1       4.179   3.762  19.658  0.00  0.00    +0.000 A 
ATOM     12  C   UNL     1       4.682   4.007  18.376  0.00  0.00    +0.000 A 
ENDROOT
BRANCH   4  13
ATOM     13  C   UNL     1       6.330   4.469  14.610  0.00  0.00    +0.000 A 
ATOM     14  C   UNL     1       7.444   5.232  14.315  0.00  0.00    +0.000 A 
ATOM     15  C   UNL     1       7.841   5.103  12.955  0.00  0.00    +0.000 A 
ATOM     16  C   UNL     1       7.006   4.268  12.250  0.00  0.00    +0.000 A 
ATOM     17  S   UNL     1       5.774   3.615  13.232  0.00  0.00    +0.000 S 
ENDBRANCH   4  13
TORSDOF 1
ENDMDL
MODEL 7
REMARK VINA RESULT:      -6.5      1.187      1.227
REMARK  Name = 
REMARK  1 active torsions:
REMARK  status: ('A' for Active; 'I' for Inactive)
REMARK    1  A    between atoms: C_4  and  C_5
REMARK                            x       y       z     vdW  Elec       q    Type
REMARK                         _______ _______ _______ _____ _____    ______ ____
ROOT
ATOM      1  O   UNL     1       6.768   6.276  18.184  0.00  0.00    +0.000 OA
ATOM      2  C   UNL     1       5.915   5.540  17.711  0.00  0.00    +0.000 A 
ATOM      3  O   UNL     1       4.792   5.220  18.394  0.00  0.00    +0.000 OA
ATOM      4  C   UNL     1       3.928   4.320  17.868  0.00  0.00    +0.000 A 
ATOM      5  N   UNL     1       4.025   3.749  16.715  0.00  0.00    +0.000 NA
ATOM      6  C   UNL     1       5.075   4.138  15.901  0.00  0.00    +0.000 A 
ATOM      7  C   UNL     1       5.117   3.685  14.582  0.00  0.00    +0.000 A 
ATOM      8  C   UNL     1       6.131   4.114  13.725  0.00  0.00    +0.000 A 
ATOM      9  C   UNL     1       7.124   4.971  14.200  0.00  0.00    +0.000 A 
ATOM     10 CL   UNL     1       8.370   5.501  13.142  0.00  0.00    +0.000 Cl
ATOM     11  C   UNL     1       7.098   5.418  15.518  0.00  0.00    +0.000 A 
ATOM     12  C   UNL     1       6.052   5.010  16.351  0.00  0.00    +0.000 A 
ENDROOT
BRANCH   4  13
ATOM     13  C   UNL     1       2.827   4.078  18.769  0.00  0.00    +0.000 A 
ATOM     14  C   UNL     1       1.846   3.108  18.685  0.00  0.00    +0.000 A 
ATOM     15  C   UNL     1       0.948   3.152  19.789  0.00  0.00    +0.000 A 
ATOM     16  C   UNL     1       1.256   4.167  20.665  0.00  0.00    +0.000 A 
ATOM     17  S   UNL     1       2.641   5.036  20.178  0.00  0.00    +0.000 S 
ENDBRANCH   4  13
TORSDOF 1
ENDMDL
MODEL 8
REMARK VINA RESULT:      -6.4      4.662      6.717
REMARK  Name = 
REMARK  1 active torsions:
REMARK  status: ('A' for Active; 'I' for Inactive)
REMARK    1  A    between atoms: C_4  and  C_5
REMARK                            x       y       z     vdW  Elec       q    Type
REMARK                         _______ _______ _______ _____ _____    ______ ____
ROOT
ATOM      1  O   UNL     1       2.697   4.889  20.832  0.00  0.00    +0.000 OA
ATOM      2  C   UNL     1       2.858   5.618  19.866  0.00  0.00    +0.000 A 
ATOM      3  O   UNL     1       3.556   5.219  18.779  0.00  0.00    +0.000 OA
ATOM      4  C   UNL     1       3.793   6.100  17.779  0.00  0.00    +0.000 A 
ATOM      5  N   UNL     1       3.364   7.315  17.712  0.00  0.00    +0.000 NA
ATOM      6  C   UNL     1       2.521   7.746  18.723  0.00  0.00    +0.000 A 
ATOM      7  C   UNL     1       1.889   8.984  18.599  0.00  0.00    +0.000 A 
ATOM      8  C   UNL     1       0.988   9.411  19.575  0.00  0.00    +0.000 A 
ATOM      9  C   UNL     1       0.746   8.613  20.693  0.00  0.00    +0.000 A 
ATOM     10 CL   UNL     1      -0.367   9.140  21.892  0.00  0.00    +0.000 Cl
ATOM     11  C   UNL     1       1.382   7.383  20.831  0.00  0.00    +0.000 A 
ATOM     12  C   UNL     1       2.251   6.952  19.824  0.00  0.00    +0.000 A 
ENDROOT
BRANCH   4  13
ATOM     13  C   UNL     1       4.595   5.497  16.742  0.00  0.00    +0.000 A 
ATOM     14  C   UNL     1       5.265   6.118  15.704  0.00  0.00    +0.000 A 
ATOM     15  C   UNL     1       5.990   5.193  14.901  0.00  0.00    +0.000 A 
ATOM     16  C   UNL     1       5.831   3.897  15.334  0.00  0.00    +0.000 A 
ATOM     17  S   UNL     1       4.844   3.801  16.723  0.00  0.00    +0.000 S 
ENDBRANCH   4  13
TORSDOF 1
ENDMDL
MODEL 9
REMARK VINA RESULT:      -6.4      5.554      6.794
REMARK  Name = 
REMARK  1 active torsions:
REMARK  status: ('A' for Active; 'I' for Inactive)
REMARK    1  A    between atoms: C_4  and  C_5
REMARK                            x       y       z     vdW  Elec       q    Type
REMARK                         _______ _______ _______ _____ _____    ______ ____
ROOT
ATOM      1  O   UNL     1       2.333   9.034  17.323  0.00  0.00    +0.000 OA
ATOM      2  C   UNL     1       2.004   8.620  18.424  0.00  0.00    +0.000 A 
ATOM      3  O   UNL     1       1.299   9.381  19.291  0.00  0.00    +0.000 OA
ATOM      4  C   UNL     1       1.049   8.914  20.537  0.00  0.00    +0.000 A 
ATOM      5  N   UNL     1       1.370   7.751  20.997  0.00  0.00    +0.000 NA
ATOM      6  C   UNL     1       1.968   6.864  20.117  0.00  0.00    +0.000 A 
ATOM      7  C   UNL     1       2.166   5.541  20.515  0.00  0.00    +0.000 A 
ATOM      8  C   UNL     1       2.708   4.615  19.623  0.00  0.00    +0.000 A 
ATOM      9  C   UNL     1       3.084   5.022  18.344  0.00  0.00    +0.000 A 
ATOM     10 CL   UNL     1       3.749   3.878  17.246  0.00  0.00    +0.000 Cl
ATOM     11  C   UNL     1       2.903   6.342  17.943  0.00  0.00    +0.000 A 
ATOM     12  C   UNL     1       2.321   7.248  18.834  0.00  0.00    +0.000 A 
ENDROOT
BRANCH   4  13
ATOM     13  C   UNL     1       0.334   9.892  21.319  0.00  0.00    +0.000 A 
ATOM     14  C   UNL     1       0.116  11.227  21.036  0.00  0.00    +0.000 A 
ATOM     15  C   UNL     1      -0.676  11.868  22.030  0.00  0.00    +0.000 A 
ATOM     16  C   UNL     1      -1.015  11.011  23.051  0.00  0.00    +0.000 A 
ATOM     17  S   UNL     1      -0.414   9.435  22.792  0.00  0.00    +0.000 S 
ENDBRANCH   4  13
TORSDOF 1
ENDMDL
