MODEL 1
REMARK VINA RESULT:      -7.5      0.000      0.000
REMARK  Name = 
REMARK  5 active torsions:
REMARK  status: ('A' for Active; 'I' for Inactive)
REMARK    1  A    between atoms: C_1  and  N_2
REMARK    2  A    between atoms: N_2  and  C_3
REMARK    3  A    between atoms: N_2  and  C_14
REMARK    4  A    between atoms: C_3  and  C_4
REMARK    5  A    between atoms: C_4  and  C_5
REMARK                            x       y       z     vdW  Elec       q    Type
REMARK                         _______ _______ _______ _____ _____    ______ ____
ROOT
ATOM      1  C   UNL     1       3.104   6.315  18.678  0.00  0.00    +0.000 C 
ENDROOT
BRANCH   1   3
ATOM      2  C   UNL     1       1.782   4.526  17.836  0.00  0.00    +0.000 C 
ATOM      3  N   UNL     1       3.125   5.103  17.824  0.00  0.00    +0.000 NA
BRANCH   3   4
ATOM      4  C   UNL     1       4.276   4.198  18.036  0.00  0.00    +0.000 C 
ATOM      5  C   UNL     1       5.376   4.728  18.986  0.00  0.00    +0.000 C 
ATOM      6  C   UNL     1       6.353   5.741  18.419  0.00  0.00    +0.000 C 
ATOM      7  S   UNL     1       7.102   5.227  16.897  0.00  0.00    +0.000 S 
ATOM      8  O   UNL     1       7.488   6.424  16.172  0.00  0.00    +0.000 OA
ATOM      9  O   UNL     1       8.088   4.210  17.216  0.00  0.00    +0.000 OA
ATOM     10  C   UNL     1       5.811   4.437  15.961  0.00  0.00    +0.000 C 
ATOM     11  C   UNL     1       4.918   3.543  16.799  0.00  0.00    +0.000 C 
ENDBRANCH   3   4
ENDBRANCH   1   3
BRANCH   1  12
ATOM     12  C   UNL     1       2.856   7.668  17.991  0.00  0.00    +0.000 C 
BRANCH  12  13
ATOM     13  C   UNL     1       1.882   8.502  18.800  0.00  0.00    +0.000 A 
ATOM     14  C   UNL     1       1.671   8.203  20.167  0.00  0.00    +0.000 A 
ATOM     15  C   UNL     1       0.756   8.927  20.930  0.00  0.00    +0.000 A 
ATOM     16  C   UNL     1       0.073   9.954  20.313  0.00  0.00    +0.000 A 
ATOM     17  C   UNL     1       0.251  10.253  18.968  0.00  0.00    +0.000 A 
ATOM     18  C   UNL     1       1.144   9.533  18.192  0.00  0.00    +0.000 A 
ATOM     19  C   UNL     1      -0.691  11.331  18.591  0.00  0.00    +0.000 C 
ATOM     20  C   UNL     1      -1.035  11.839  19.993  0.00  0.00    +0.000 C 
ATOM     21  O   UNL     1      -0.852  10.756  20.935  0.00  0.00    +0.000 OA
ENDBRANCH  12  13
ENDBRANCH   1  12
TORSDOF 4
ENDMDL
MODEL 2
REMARK VINA RESULT:      -7.3      1.536      2.431
REMARK  Name = 
REMARK  5 active torsions:
REMARK  status: ('A' for Active; 'I' for Inactive)
REMARK    1  A    between atoms: C_1  and  N_2
REMARK    2  A    between atoms: N_2  and  C_3
REMARK    3  A    between atoms: N_2  and  C_14
REMARK    4  A    between atoms: C_3  and  C_4
REMARK    5  A    between atoms: C_4  and  C_5
REMARK                            x       y       z     vdW  Elec       q    Type
REMARK                         _______ _______ _______ _____ _____    ______ ____
ROOT
ATOM      1  C   UNL     1       3.111   5.596  18.273  0.00  0.00    +0.000 C 
ENDROOT
BRANCH   1   3
ATOM      2  C   UNL     1       4.630   4.189  19.445  0.00  0.00    +0.000 C 
ATOM      3  N   UNL     1       4.424   4.911  18.190  0.00  0.00    +0.000 NA
BRANCH   3   4
ATOM      4  C   UNL     1       5.536   5.733  17.667  0.00  0.00    +0.000 C 
ATOM      5  C   UNL     1       5.242   6.498  16.354  0.00  0.00    +0.000 C 
ATOM      6  C   UNL     1       5.298   5.706  15.062  0.00  0.00    +0.000 C 
ATOM      7  S   UNL     1       6.794   4.776  14.865  0.00  0.00    +0.000 S 
ATOM      8  O   UNL     1       6.501   3.652  13.993  0.00  0.00    +0.000 OA
ATOM      9  O   UNL     1       7.850   5.713  14.528  0.00  0.00    +0.000 OA
ATOM     10  C   UNL     1       7.169   4.111  16.473  0.00  0.00    +0.000 C 
ATOM     11  C   UNL     1       6.937   5.095  17.603  0.00  0.00    +0.000 C 
ENDBRANCH   3   4
ENDBRANCH   1   3
BRANCH   1  12
ATOM     12  C   UNL     1       2.729   6.245  19.614  0.00  0.00    +0.000 C 
BRANCH  12  13
ATOM     13  C   UNL     1       2.094   7.603  19.384  0.00  0.00    +0.000 A 
ATOM     14  C   UNL     1       2.209   8.223  18.117  0.00  0.00    +0.000 A 
ATOM     15  C   UNL     1       1.668   9.486  17.883  0.00  0.00    +0.000 A 
ATOM     16  C   UNL     1       1.006  10.107  18.922  0.00  0.00    +0.000 A 
ATOM     17  C   UNL     1       0.897   9.523  20.177  0.00  0.00    +0.000 A 
ATOM     18  C   UNL     1       1.443   8.276  20.432  0.00  0.00    +0.000 A 
ATOM     19  C   UNL     1       0.223  10.476  21.089  0.00  0.00    +0.000 C 
ATOM     20  C   UNL     1      -0.389  11.406  20.039  0.00  0.00    +0.000 C 
ATOM     21  O   UNL     1       0.418  11.345  18.840  0.00  0.00    +0.000 OA
ENDBRANCH  12  13
ENDBRANCH   1  12
TORSDOF 4
ENDMDL
MODEL 3
REMARK VINA RESULT:      -7.3      0.730      1.635
REMARK  Name = 
REMARK  5 active torsions:
REMARK  status: ('A' for Active; 'I' for Inactive)
REMARK    1  A    between atoms: C_1  and  N_2
REMARK    2  A    between atoms: N_2  and  C_3
REMARK    3  A    between atoms: N_2  and  C_14
REMARK    4  A    between atoms: C_3  and  C_4
REMARK    5  A    between atoms: C_4  and  C_5
REMARK                            x       y       z     vdW  Elec       q    Type
REMARK                         _______ _______ _______ _____ _____    ______ ____
ROOT
ATOM      1  C   UNL     1       2.570   6.098  18.653  0.00  0.00    +0.000 C 
ENDROOT
BRANCH   1   3
ATOM      2  C   UNL     1       1.886   4.177  17.430  0.00  0.00    +0.000 C 
ATOM      3  N   UNL     1       3.044   4.997  17.781  0.00  0.00    +0.000 NA
BRANCH   3   4
ATOM      4  C   UNL     1       4.272   4.310  18.238  0.00  0.00    +0.000 C 
ATOM      5  C   UNL     1       5.361   5.225  18.849  0.00  0.00    +0.000 C 
ATOM      6  C   UNL     1       6.229   6.010  17.885  0.00  0.00    +0.000 C 
ATOM      7  S   UNL     1       6.960   5.012  16.616  0.00  0.00    +0.000 S 
ATOM      8  O   UNL     1       7.219   5.872  15.475  0.00  0.00    +0.000 OA
ATOM      9  O   UNL     1       8.037   4.252  17.223  0.00  0.00    +0.000 OA
ATOM     10  C   UNL     1       5.704   3.850  16.125  0.00  0.00    +0.000 C 
ATOM     11  C   UNL     1       4.919   3.281  17.292  0.00  0.00    +0.000 C 
ENDBRANCH   3   4
ENDBRANCH   1   3
BRANCH   1  12
ATOM     12  C   UNL     1       2.760   7.539  18.149  0.00  0.00    +0.000 C 
BRANCH  12  13
ATOM     13  C   UNL     1       1.886   8.495  18.939  0.00  0.00    +0.000 A 
ATOM     14  C   UNL     1       1.325   9.624  18.296  0.00  0.00    +0.000 A 
ATOM     15  C   UNL     1       0.547  10.541  19.001  0.00  0.00    +0.000 A 
ATOM     16  C   UNL     1       0.331  10.306  20.342  0.00  0.00    +0.000 A 
ATOM     17  C   UNL     1       0.886   9.213  20.996  0.00  0.00    +0.000 A 
ATOM     18  C   UNL     1       1.674   8.301  20.315  0.00  0.00    +0.000 A 
ATOM     19  C   UNL     1       0.550   9.299  22.436  0.00  0.00    +0.000 C 
ATOM     20  C   UNL     1      -0.603  10.301  22.345  0.00  0.00    +0.000 C 
ATOM     21  O   UNL     1      -0.417  11.114  21.163  0.00  0.00    +0.000 OA
ENDBRANCH  12  13
ENDBRANCH   1  12
TORSDOF 4
ENDMDL
MODEL 4
REMARK VINA RESULT:      -7.3      4.206      7.660
REMARK  Name = 
REMARK  5 active torsions:
REMARK  status: ('A' for Active; 'I' for Inactive)
REMARK    1  A    between atoms: C_1  and  N_2
REMARK    2  A    between atoms: N_2  and  C_3
REMARK    3  A    between atoms: N_2  and  C_14
REMARK    4  A    between atoms: C_3  and  C_4
REMARK    5  A    between atoms: C_4  and  C_5
REMARK                            x       y       z     vdW  Elec       q    Type
REMARK                         _______ _______ _______ _____ _____    ______ ____
ROOT
ATOM      1  C   UNL     1       3.232   3.609  17.422  0.00  0.00    +0.000 C 
ENDROOT
BRANCH   1   3
ATOM      2  C   UNL     1       3.014   5.904  18.006  0.00  0.00    +0.000 C 
ATOM      3  N   UNL     1       2.264   4.666  17.801  0.00  0.00    +0.000 NA
BRANCH   3   4
ATOM      4  C   UNL     1       1.268   4.277  18.823  0.00  0.00    +0.000 C 
ATOM      5  C   UNL     1       1.440   4.941  20.210  0.00  0.00    +0.000 C 
ATOM      6  C   UNL     1       2.511   4.374  21.123  0.00  0.00    +0.000 C 
ATOM      7  S   UNL     1       2.405   2.617  21.333  0.00  0.00    +0.000 S 
ATOM      8  O   UNL     1       3.734   2.134  21.667  0.00  0.00    +0.000 OA
ATOM      9  O   UNL     1       1.282   2.348  22.212  0.00  0.00    +0.000 OA
ATOM     10  C   UNL     1       1.993   1.959  19.731  0.00  0.00    +0.000 C 
ATOM     11  C   UNL     1       0.953   2.778  18.991  0.00  0.00    +0.000 C 
ENDBRANCH   3   4
ENDBRANCH   1   3
BRANCH   1  12
ATOM     12  C   UNL     1       4.707   3.821  17.805  0.00  0.00    +0.000 C 
BRANCH  12  13
ATOM     13  C   UNL     1       5.520   4.208  16.584  0.00  0.00    +0.000 A 
ATOM     14  C   UNL     1       6.523   5.200  16.697  0.00  0.00    +0.000 A 
ATOM     15  C   UNL     1       7.263   5.604  15.587  0.00  0.00    +0.000 A 
ATOM     16  C   UNL     1       6.995   4.997  14.378  0.00  0.00    +0.000 A 
ATOM     17  C   UNL     1       6.002   4.035  14.242  0.00  0.00    +0.000 A 
ATOM     18  C   UNL     1       5.247   3.633  15.330  0.00  0.00    +0.000 A 
ATOM     19  C   UNL     1       5.898   3.656  12.814  0.00  0.00    +0.000 C 
ATOM     20  C   UNL     1       7.244   4.201  12.332  0.00  0.00    +0.000 C 
ATOM     21  O   UNL     1       7.643   5.285  13.202  0.00  0.00    +0.000 OA
ENDBRANCH  12  13
ENDBRANCH   1  12
TORSDOF 4
ENDMDL
MODEL 5
REMARK VINA RESULT:      -7.3      1.295      1.984
REMARK  Name = 
REMARK  5 active torsions:
REMARK  status: ('A' for Active; 'I' for Inactive)
REMARK    1  A    between atoms: C_1  and  N_2
REMARK    2  A    between atoms: N_2  and  C_3
REMARK    3  A    between atoms: N_2  and  C_14
REMARK    4  A    between atoms: C_3  and  C_4
REMARK    5  A    between atoms: C_4  and  C_5
REMARK                            x       y       z     vdW  Elec       q    Type
REMARK                         _______ _______ _______ _____ _____    ______ ____
ROOT
ATOM      1  C   UNL     1       2.789   6.971  18.484  0.00  0.00    +0.000 C 
ENDROOT
BRANCH   1   3
ATOM      2  C   UNL     1       1.918   4.879  17.762  0.00  0.00    +0.000 C 
ATOM      3  N   UNL     1       3.120   5.710  17.777  0.00  0.00    +0.000 NA
BRANCH   3   4
ATOM      4  C   UNL     1       4.399   5.080  18.170  0.00  0.00    +0.000 C 
ATOM      5  C   UNL     1       5.612   6.036  18.270  0.00  0.00    +0.000 C 
ATOM      6  C   UNL     1       6.281   6.445  16.971  0.00  0.00    +0.000 C 
ATOM      7  S   UNL     1       6.710   5.075  15.932  0.00  0.00    +0.000 S 
ATOM      8  O   UNL     1       6.748   5.557  14.563  0.00  0.00    +0.000 OA
ATOM      9  O   UNL     1       7.870   4.429  16.517  0.00  0.00    +0.000 OA
ATOM     10  C   UNL     1       5.351   3.930  16.050  0.00  0.00    +0.000 C 
ATOM     11  C   UNL     1       4.811   3.777  17.459  0.00  0.00    +0.000 C 
ENDBRANCH   3   4
ENDBRANCH   1   3
BRANCH   1  12
ATOM     12  C   UNL     1       2.320   6.867  19.945  0.00  0.00    +0.000 C 
BRANCH  12  13
ATOM     13  C   UNL     1       1.519   8.096  20.332  0.00  0.00    +0.000 A 
ATOM     14  C   UNL     1       1.306   9.121  19.380  0.00  0.00    +0.000 A 
ATOM     15  C   UNL     1       0.606  10.279  19.715  0.00  0.00    +0.000 A 
ATOM     16  C   UNL     1       0.117  10.388  20.999  0.00  0.00    +0.000 A 
ATOM     17  C   UNL     1       0.331   9.402  21.954  0.00  0.00    +0.000 A 
ATOM     18  C   UNL     1       1.037   8.253  21.644  0.00  0.00    +0.000 A 
ATOM     19  C   UNL     1      -0.230   9.860  23.246  0.00  0.00    +0.000 C 
ATOM     20  C   UNL     1      -1.136  10.976  22.722  0.00  0.00    +0.000 C 
ATOM     21  O   UNL     1      -0.594  11.464  21.472  0.00  0.00    +0.000 OA
ENDBRANCH  12  13
ENDBRANCH   1  12
TORSDOF 4
ENDMDL
MODEL 6
REMARK VINA RESULT:      -7.2      0.864      1.489
REMARK  Name = 
REMARK  5 active torsions:
REMARK  status: ('A' for Active; 'I' for Inactive)
REMARK    1  A    between atoms: C_1  and  N_2
REMARK    2  A    between atoms: N_2  and  C_3
REMARK    3  A    between atoms: N_2  and  C_14
REMARK    4  A    between atoms: C_3  and  C_4
REMARK    5  A    between atoms: C_4  and  C_5
REMARK                            x       y       z     vdW  Elec       q    Type
REMARK                         _______ _______ _______ _____ _____    ______ ____
ROOT
ATOM      1  C   UNL     1       3.417   6.287  18.474  0.00  0.00    +0.000 C 
ENDROOT
BRANCH   1   3
ATOM      2  C   UNL     1       1.832   4.565  18.053  0.00  0.00    +0.000 C 
ATOM      3  N   UNL     1       3.134   5.089  17.647  0.00  0.00    +0.000 NA
BRANCH   3   4
ATOM      4  C   UNL     1       4.257   4.136  17.507  0.00  0.00    +0.000 C 
ATOM      5  C   UNL     1       5.337   4.209  18.613  0.00  0.00    +0.000 C 
ATOM      6  C   UNL     1       6.354   5.330  18.517  0.00  0.00    +0.000 C 
ATOM      7  S   UNL     1       7.142   5.438  16.933  0.00  0.00    +0.000 S 
ATOM      8  O   UNL     1       7.578   6.812  16.752  0.00  0.00    +0.000 OA
ATOM      9  O   UNL     1       8.094   4.347  16.842  0.00  0.00    +0.000 OA
ATOM     10  C   UNL     1       5.865   5.129  15.731  0.00  0.00    +0.000 C 
ATOM     11  C   UNL     1       4.925   4.006  16.125  0.00  0.00    +0.000 C 
ENDBRANCH   3   4
ENDBRANCH   1   3
BRANCH   1  12
ATOM     12  C   UNL     1       2.489   6.563  19.669  0.00  0.00    +0.000 C 
BRANCH  12  13
ATOM     13  C   UNL     1       1.859   7.937  19.543  0.00  0.00    +0.000 A 
ATOM     14  C   UNL     1       1.973   8.651  18.327  0.00  0.00    +0.000 A 
ATOM     15  C   UNL     1       1.437   9.931  18.190  0.00  0.00    +0.000 A 
ATOM     16  C   UNL     1       0.780  10.473  19.275  0.00  0.00    +0.000 A 
ATOM     17  C   UNL     1       0.672   9.797  20.483  0.00  0.00    +0.000 A 
ATOM     18  C   UNL     1       1.212   8.532  20.641  0.00  0.00    +0.000 A 
ATOM     19  C   UNL     1       0.003  10.680  21.466  0.00  0.00    +0.000 C 
ATOM     20  C   UNL     1      -0.608  11.690  20.490  0.00  0.00    +0.000 C 
ATOM     21  O   UNL     1       0.197  11.716  19.288  0.00  0.00    +0.000 OA
ENDBRANCH  12  13
ENDBRANCH   1  12
TORSDOF 4
ENDMDL
MODEL 7
REMARK VINA RESULT:      -7.1      0.767      1.000
REMARK  Name = 
REMARK  5 active torsions:
REMARK  status: ('A' for Active; 'I' for Inactive)
REMARK    1  A    between atoms: C_1  and  N_2
REMARK    2  A    between atoms: N_2  and  C_3
REMARK    3  A    between atoms: N_2  and  C_14
REMARK    4  A    between atoms: C_3  and  C_4
REMARK    5  A    between atoms: C_4  and  C_5
REMARK                            x       y       z     vdW  Elec       q    Type
REMARK                         _______ _______ _______ _____ _____    ______ ____
ROOT
ATOM      1  C   UNL     1       3.097   6.612  18.750  0.00  0.00    +0.000 C 
ENDROOT
BRANCH   1   3
ATOM      2  C   UNL     1       1.896   4.762  17.862  0.00  0.00    +0.000 C 
ATOM      3  N   UNL     1       3.222   5.372  17.947  0.00  0.00    +0.000 NA
BRANCH   3   4
ATOM      4  C   UNL     1       4.368   4.504  18.294  0.00  0.00    +0.000 C 
ATOM      5  C   UNL     1       5.554   5.212  18.992  0.00  0.00    +0.000 C 
ATOM      6  C   UNL     1       6.500   6.009  18.113  0.00  0.00    +0.000 C 
ATOM      7  S   UNL     1       7.108   5.100  16.719  0.00  0.00    +0.000 S 
ATOM      8  O   UNL     1       7.456   6.060  15.686  0.00  0.00    +0.000 OA
ATOM      9  O   UNL     1       8.097   4.157  17.210  0.00  0.00    +0.000 OA
ATOM     10  C   UNL     1       5.728   4.152  16.115  0.00  0.00    +0.000 C 
ATOM     11  C   UNL     1       4.891   3.534  17.218  0.00  0.00    +0.000 C 
ENDBRANCH   3   4
ENDBRANCH   1   3
BRANCH   1  12
ATOM     12  C   UNL     1       2.271   6.543  20.046  0.00  0.00    +0.000 C 
BRANCH  12  13
ATOM     13  C   UNL     1       1.581   7.869  20.305  0.00  0.00    +0.000 A 
ATOM     14  C   UNL     1       0.918   8.084  21.536  0.00  0.00    +0.000 A 
ATOM     15  C   UNL     1       0.243   9.277  21.791  0.00  0.00    +0.000 A 
ATOM     16  C   UNL     1       0.253  10.245  20.810  0.00  0.00    +0.000 A 
ATOM     17  C   UNL     1       0.883  10.048  19.588  0.00  0.00    +0.000 A 
ATOM     18  C   UNL     1       1.544   8.863  19.311  0.00  0.00    +0.000 A 
ATOM     19  C   UNL     1       0.630  11.225  18.725  0.00  0.00    +0.000 C 
ATOM     20  C   UNL     1       0.192  12.214  19.808  0.00  0.00    +0.000 C 
ATOM     21  O   UNL     1      -0.360  11.469  20.919  0.00  0.00    +0.000 OA
ENDBRANCH  12  13
ENDBRANCH   1  12
TORSDOF 4
ENDMDL
MODEL 8
REMARK VINA RESULT:      -7.0      1.151      1.486
REMARK  Name = 
REMARK  5 active torsions:
REMARK  status: ('A' for Active; 'I' for Inactive)
REMARK    1  A    between atoms: C_1  and  N_2
REMARK    2  A    between atoms: N_2  and  C_3
REMARK    3  A    between atoms: N_2  and  C_14
REMARK    4  A    between atoms: C_3  and  C_4
REMARK    5  A    between atoms: C_4  and  C_5
REMARK                            x       y       z     vdW  Elec       q    Type
REMARK                         _______ _______ _______ _____ _____    ______ ____
ROOT
ATOM      1  C   UNL     1       3.307   5.560  19.640  0.00  0.00    +0.000 C 
ENDROOT
BRANCH   1   3
ATOM      2  C   UNL     1       1.824   4.346  18.231  0.00  0.00    +0.000 C 
ATOM      3  N   UNL     1       3.175   4.897  18.320  0.00  0.00    +0.000 NA
BRANCH   3   4
ATOM      4  C   UNL     1       4.309   4.031  17.929  0.00  0.00    +0.000 C 
ATOM      5  C   UNL     1       5.574   4.149  18.812  0.00  0.00    +0.000 C 
ATOM      6  C   UNL     1       6.479   5.342  18.572  0.00  0.00    +0.000 C 
ATOM      7  S   UNL     1       6.939   5.552  16.874  0.00  0.00    +0.000 S 
ATOM      8  O   UNL     1       7.243   6.958  16.672  0.00  0.00    +0.000 OA
ATOM      9  O   UNL     1       7.924   4.534  16.558  0.00  0.00    +0.000 OA
ATOM     10  C   UNL     1       5.478   5.188  15.925  0.00  0.00    +0.000 C 
ATOM     11  C   UNL     1       4.706   3.989  16.442  0.00  0.00    +0.000 C 
ENDBRANCH   3   4
ENDBRANCH   1   3
BRANCH   1  12
ATOM     12  C   UNL     1       2.015   5.855  20.422  0.00  0.00    +0.000 C 
BRANCH  12  13
ATOM     13  C   UNL     1       1.654   7.324  20.311  0.00  0.00    +0.000 A 
ATOM     14  C   UNL     1       0.945   7.952  21.361  0.00  0.00    +0.000 A 
ATOM     15  C   UNL     1       0.566   9.291  21.274  0.00  0.00    +0.000 A 
ATOM     16  C   UNL     1       0.915   9.987  20.137  0.00  0.00    +0.000 A 
ATOM     17  C   UNL     1       1.595   9.385  19.086  0.00  0.00    +0.000 A 
ATOM     18  C   UNL     1       1.965   8.052  19.148  0.00  0.00    +0.000 A 
ATOM     19  C   UNL     1       1.731  10.363  17.983  0.00  0.00    +0.000 C 
ATOM     20  C   UNL     1       1.445  11.643  18.773  0.00  0.00    +0.000 C 
ATOM     21  O   UNL     1       0.617  11.308  19.911  0.00  0.00    +0.000 OA
ENDBRANCH  12  13
ENDBRANCH   1  12
TORSDOF 4
ENDMDL
MODEL 9
REMARK VINA RESULT:      -7.0      3.111      3.684
REMARK  Name = 
REMARK  5 active torsions:
REMARK  status: ('A' for Active; 'I' for Inactive)
REMARK    1  A    between atoms: C_1  and  N_2
REMARK    2  A    between atoms: N_2  and  C_3
REMARK    3  A    between atoms: N_2  and  C_14
REMARK    4  A    between atoms: C_3  and  C_4
REMARK    5  A    between atoms: C_4  and  C_5
REMARK                            x       y       z     vdW  Elec       q    Type
REMARK                         _______ _______ _______ _____ _____    ______ ____
ROOT
ATOM      1  C   UNL     1       3.903   6.029  18.507  0.00  0.00    +0.000 C 
ENDROOT
BRANCH   1   3
ATOM      2  C   UNL     1       5.247   5.159  16.748  0.00  0.00    +0.000 C 
ATOM      3  N   UNL     1       4.224   4.807  17.730  0.00  0.00    +0.000 NA
BRANCH   3   4
ATOM      4  C   UNL     1       3.057   4.023  17.271  0.00  0.00    +0.000 C 
ATOM      5  C   UNL     1       1.678   4.529  17.758  0.00  0.00    +0.000 C 
ATOM      6  C   UNL     1       1.275   4.186  19.180  0.00  0.00    +0.000 C 
ATOM      7  S   UNL     1       1.425   2.461  19.561  0.00  0.00    +0.000 S 
ATOM      8  O   UNL     1       1.619   2.344  20.996  0.00  0.00    +0.000 OA
ATOM      9  O   UNL     1       0.326   1.773  18.910  0.00  0.00    +0.000 OA
ATOM     10  C   UNL     1       2.928   1.918  18.780  0.00  0.00    +0.000 C 
ATOM     11  C   UNL     1       3.126   2.488  17.389  0.00  0.00    +0.000 C 
ENDBRANCH   3   4
ENDBRANCH   1   3
BRANCH   1  12
ATOM     12  C   UNL     1       3.384   7.251  17.731  0.00  0.00    +0.000 C 
BRANCH  12  13
ATOM     13  C   UNL     1       2.390   8.029  18.573  0.00  0.00    +0.000 A 
ATOM     14  C   UNL     1       2.152   7.640  19.912  0.00  0.00    +0.000 A 
ATOM     15  C   UNL     1       1.219   8.312  20.701  0.00  0.00    +0.000 A 
ATOM     16  C   UNL     1       0.546   9.376  20.138  0.00  0.00    +0.000 A 
ATOM     17  C   UNL     1       0.753   9.763  18.820  0.00  0.00    +0.000 A 
ATOM     18  C   UNL     1       1.663   9.097  18.017  0.00  0.00    +0.000 A 
ATOM     19  C   UNL     1      -0.185  10.862  18.494  0.00  0.00    +0.000 C 
ATOM     20  C   UNL     1      -0.559  11.277  19.919  0.00  0.00    +0.000 C 
ATOM     21  O   UNL     1      -0.394  10.134  20.791  0.00  0.00    +0.000 OA
ENDBRANCH  12  13
ENDBRANCH   1  12
TORSDOF 4
ENDMDL
