MODEL 1
REMARK VINA RESULT:      -8.5      0.000      0.000
REMARK  Name = 
REMARK  9 active torsions:
REMARK  status: ('A' for Active; 'I' for Inactive)
REMARK    1  A    between atoms: C_1  and  C_2
REMARK    2  A    between atoms: C_2  and  O_3
REMARK    3  A    between atoms: O_3  and  C_4
REMARK    4  A    between atoms: C_4  and  C_6
REMARK    5  A    between atoms: C_6  and  N_7
REMARK    6  A    between atoms: C_11  and  C_12
REMARK    7  A    between atoms: C_12  and  N_21
REMARK    8  A    between atoms: C_13  and  C_14
REMARK    9  A    between atoms: C_22  and  C_24
REMARK                            x       y       z     vdW  Elec       q    Type
REMARK                         _______ _______ _______ _____ _____    ______ ____
ROOT
ATOM      1  C   UNL     1       4.654   4.415  17.244  0.00  0.00    +0.000 C 
ATOM      2  C   UNL     1       4.461   3.217  17.825  0.00  0.00    +0.000 C 
ENDROOT
BRANCH   2   3
ATOM      3  C   UNL     1       3.434   2.943  18.835  0.00  0.00    +0.000 A 
ATOM      4  C   UNL     1       2.084   2.937  18.456  0.00  0.00    +0.000 A 
ATOM      5  C   UNL     1       1.088   2.774  19.419  0.00  0.00    +0.000 A 
ATOM      6  C   UNL     1       1.447   2.606  20.751  0.00  0.00    +0.000 A 
ATOM      7  F   UNL     1       0.490   2.485  21.680  0.00  0.00    +0.000 F 
ATOM      8  C   UNL     1       2.782   2.571  21.136  0.00  0.00    +0.000 A 
ATOM      9  C   UNL     1       3.781   2.736  20.174  0.00  0.00    +0.000 A 
ENDBRANCH   2   3
BRANCH   1  14
ATOM     10  N   UNL     1       6.760   5.013  16.152  0.00  0.00    +0.000 N 
ATOM     11  N   UNL     1       7.311   4.972  14.923  0.00  0.00    +0.000 NA
ATOM     12  N   UNL     1       6.391   4.420  14.146  0.00  0.00    +0.000 NA
ATOM     13  N   UNL     1       5.258   4.125  14.861  0.00  0.00    +0.000 NA
ATOM     14  C   UNL     1       5.496   4.484  16.109  0.00  0.00    +0.000 A 
BRANCH  10  15
ATOM     15  C   UNL     1       7.490   5.640  17.222  0.00  0.00    +0.000 C 
BRANCH  15  16
ATOM     16  C   UNL     1       7.138   7.093  17.349  0.00  0.00    +0.000 C 
ATOM     17  O   UNL     1       6.218   7.651  16.765  0.00  0.00    +0.000 OA
BRANCH  16  18
ATOM     18  O   UNL     1       8.078   7.722  18.112  0.00  0.00    +0.000 OA
BRANCH  18  20
ATOM     19  C   UNL     1       9.053   9.687  19.039  0.00  0.00    +0.000 C 
ATOM     20  C   UNL     1       8.192   9.138  17.916  0.00  0.00    +0.000 C 
ENDBRANCH  18  20
ENDBRANCH  16  18
ENDBRANCH  15  16
ENDBRANCH  10  15
ENDBRANCH   1  14
BRANCH   1  21
ATOM     21  N   UNL     1       3.858   5.517  17.482  0.00  0.00    +0.000 N 
ATOM     22  C   UNL     1       3.862   6.192  18.688  0.00  0.00    +0.000 C 
ATOM     23  O   UNL     1       4.642   5.931  19.601  0.00  0.00    +0.000 OA
ATOM     24  H   UNL     1       3.078   5.642  16.848  0.00  0.00    +0.000 HD
BRANCH  22  25
ATOM     25  C   UNL     1       2.884   7.310  18.853  0.00  0.00    +0.000 A 
ATOM     26  C   UNL     1       2.657   8.152  17.754  0.00  0.00    +0.000 A 
ATOM     27  C   UNL     1       1.709   9.175  17.827  0.00  0.00    +0.000 A 
ATOM     28  C   UNL     1       0.976   9.360  18.997  0.00  0.00    +0.000 A 
ATOM     29  C   UNL     1       1.193   8.527  20.094  0.00  0.00    +0.000 A 
ATOM     30  C   UNL     1       2.144   7.502  20.026  0.00  0.00    +0.000 A 
ENDBRANCH  22  25
ENDBRANCH   1  21
TORSDOF 8
ENDMDL
MODEL 2
REMARK VINA RESULT:      -8.2      1.109      1.309
REMARK  Name = 
REMARK  9 active torsions:
REMARK  status: ('A' for Active; 'I' for Inactive)
REMARK    1  A    between atoms: C_1  and  C_2
REMARK    2  A    between atoms: C_2  and  O_3
REMARK    3  A    between atoms: O_3  and  C_4
REMARK    4  A    between atoms: C_4  and  C_6
REMARK    5  A    between atoms: C_6  and  N_7
REMARK    6  A    between atoms: C_11  and  C_12
REMARK    7  A    between atoms: C_12  and  N_21
REMARK    8  A    between atoms: C_13  and  C_14
REMARK    9  A    between atoms: C_22  and  C_24
REMARK                            x       y       z     vdW  Elec       q    Type
REMARK                         _______ _______ _______ _____ _____    ______ ____
ROOT
ATOM      1  C   UNL     1       4.714   4.662  17.962  0.00  0.00    +0.000 C 
ATOM      2  C   UNL     1       4.399   3.399  18.303  0.00  0.00    +0.000 C 
ENDROOT
BRANCH   2   3
ATOM      3  C   UNL     1       3.415   3.039  19.328  0.00  0.00    +0.000 A 
ATOM      4  C   UNL     1       2.083   2.815  18.952  0.00  0.00    +0.000 A 
ATOM      5  C   UNL     1       1.114   2.567  19.924  0.00  0.00    +0.000 A 
ATOM      6  C   UNL     1       1.484   2.531  21.263  0.00  0.00    +0.000 A 
ATOM      7  F   UNL     1       0.548   2.327  22.200  0.00  0.00    +0.000 F 
ATOM      8  C   UNL     1       2.807   2.712  21.648  0.00  0.00    +0.000 A 
ATOM      9  C   UNL     1       3.779   2.964  20.677  0.00  0.00    +0.000 A 
ENDBRANCH   2   3
BRANCH   1  14
ATOM     10  N   UNL     1       6.848   4.814  16.776  0.00  0.00    +0.000 N 
ATOM     11  N   UNL     1       7.300   5.082  15.535  0.00  0.00    +0.000 NA
ATOM     12  N   UNL     1       6.214   5.296  14.807  0.00  0.00    +0.000 NA
ATOM     13  N   UNL     1       5.081   5.184  15.571  0.00  0.00    +0.000 NA
ATOM     14  C   UNL     1       5.478   4.872  16.791  0.00  0.00    +0.000 A 
BRANCH  10  15
ATOM     15  C   UNL     1       7.800   4.612  17.836  0.00  0.00    +0.000 C 
BRANCH  15  16
ATOM     16  C   UNL     1       7.679   5.672  18.890  0.00  0.00    +0.000 C 
ATOM     17  O   UNL     1       6.987   5.594  19.897  0.00  0.00    +0.000 OA
BRANCH  16  18
ATOM     18  O   UNL     1       8.358   6.787  18.491  0.00  0.00    +0.000 OA
BRANCH  18  20
ATOM     19  C   UNL     1       8.261   9.125  18.047  0.00  0.00    +0.000 C 
ATOM     20  C   UNL     1       7.574   7.790  17.830  0.00  0.00    +0.000 C 
ENDBRANCH  18  20
ENDBRANCH  16  18
ENDBRANCH  15  16
ENDBRANCH  10  15
ENDBRANCH   1  14
BRANCH   1  21
ATOM     21  N   UNL     1       4.093   5.774  18.494  0.00  0.00    +0.000 N 
ATOM     22  C   UNL     1       2.808   6.147  18.147  0.00  0.00    +0.000 C 
ATOM     23  O   UNL     1       2.084   5.468  17.422  0.00  0.00    +0.000 OA
ATOM     24  H   UNL     1       4.705   6.454  18.929  0.00  0.00    +0.000 HD
BRANCH  22  25
ATOM     25  C   UNL     1       2.286   7.425  18.719  0.00  0.00    +0.000 A 
ATOM     26  C   UNL     1       2.097   8.507  17.847  0.00  0.00    +0.000 A 
ATOM     27  C   UNL     1       1.553   9.707  18.311  0.00  0.00    +0.000 A 
ATOM     28  C   UNL     1       1.187   9.832  19.649  0.00  0.00    +0.000 A 
ATOM     29  C   UNL     1       1.370   8.761  20.524  0.00  0.00    +0.000 A 
ATOM     30  C   UNL     1       1.917   7.558  20.064  0.00  0.00    +0.000 A 
ENDBRANCH  22  25
ENDBRANCH   1  21
TORSDOF 8
ENDMDL
MODEL 3
REMARK VINA RESULT:      -8.2      0.704      1.518
REMARK  Name = 
REMARK  9 active torsions:
REMARK  status: ('A' for Active; 'I' for Inactive)
REMARK    1  A    between atoms: C_1  and  C_2
REMARK    2  A    between atoms: C_2  and  O_3
REMARK    3  A    between atoms: O_3  and  C_4
REMARK    4  A    between atoms: C_4  and  C_6
REMARK    5  A    between atoms: C_6  and  N_7
REMARK    6  A    between atoms: C_11  and  C_12
REMARK    7  A    between atoms: C_12  and  N_21
REMARK    8  A    between atoms: C_13  and  C_14
REMARK    9  A    between atoms: C_22  and  C_24
REMARK                            x       y       z     vdW  Elec       q    Type
REMARK                         _______ _______ _______ _____ _____    ______ ____
ROOT
ATOM      1  C   UNL     1       4.409   4.558  17.369  0.00  0.00    +0.000 C 
ATOM      2  C   UNL     1       4.259   3.408  18.052  0.00  0.00    +0.000 C 
ENDROOT
BRANCH   2   3
ATOM      3  C   UNL     1       3.265   3.197  19.109  0.00  0.00    +0.000 A 
ATOM      4  C   UNL     1       3.698   2.997  20.427  0.00  0.00    +0.000 A 
ATOM      5  C   UNL     1       2.775   2.699  21.429  0.00  0.00    +0.000 A 
ATOM      6  C   UNL     1       1.425   2.615  21.110  0.00  0.00    +0.000 A 
ATOM      7  F   UNL     1       0.542   2.295  22.065  0.00  0.00    +0.000 F 
ATOM      8  C   UNL     1       0.977   2.850  19.816  0.00  0.00    +0.000 A 
ATOM      9  C   UNL     1       1.900   3.146  18.810  0.00  0.00    +0.000 A 
ENDBRANCH   2   3
BRANCH   1  14
ATOM     10  N   UNL     1       6.247   5.438  16.015  0.00  0.00    +0.000 N 
ATOM     11  N   UNL     1       6.820   5.212  14.816  0.00  0.00    +0.000 NA
ATOM     12  N   UNL     1       6.148   4.197  14.294  0.00  0.00    +0.000 NA
ATOM     13  N   UNL     1       5.147   3.785  15.136  0.00  0.00    +0.000 NA
ATOM     14  C   UNL     1       5.220   4.551  16.210  0.00  0.00    +0.000 A 
BRANCH  10  15
ATOM     15  C   UNL     1       6.706   6.547  16.809  0.00  0.00    +0.000 C 
BRANCH  15  16
ATOM     16  C   UNL     1       7.606   6.093  17.919  0.00  0.00    +0.000 C 
ATOM     17  O   UNL     1       7.719   4.939  18.310  0.00  0.00    +0.000 OA
BRANCH  16  18
ATOM     18  O   UNL     1       8.180   7.181  18.510  0.00  0.00    +0.000 OA
BRANCH  18  20
ATOM     19  C   UNL     1       8.738   9.494  18.614  0.00  0.00    +0.000 C 
ATOM     20  C   UNL     1       8.031   8.422  17.806  0.00  0.00    +0.000 C 
ENDBRANCH  18  20
ENDBRANCH  16  18
ENDBRANCH  15  16
ENDBRANCH  10  15
ENDBRANCH   1  14
BRANCH   1  21
ATOM     21  N   UNL     1       3.595   5.659  17.538  0.00  0.00    +0.000 N 
ATOM     22  C   UNL     1       3.599   6.418  18.694  0.00  0.00    +0.000 C 
ATOM     23  O   UNL     1       4.394   6.237  19.614  0.00  0.00    +0.000 OA
ATOM     24  H   UNL     1       2.806   5.724  16.907  0.00  0.00    +0.000 HD
BRANCH  22  25
ATOM     25  C   UNL     1       2.602   7.526  18.791  0.00  0.00    +0.000 A 
ATOM     26  C   UNL     1       1.963   7.731  20.023  0.00  0.00    +0.000 A 
ATOM     27  C   UNL     1       1.068   8.790  20.193  0.00  0.00    +0.000 A 
ATOM     28  C   UNL     1       0.809   9.656  19.134  0.00  0.00    +0.000 A 
ATOM     29  C   UNL     1       1.439   9.462  17.905  0.00  0.00    +0.000 A 
ATOM     30  C   UNL     1       2.335   8.401  17.730  0.00  0.00    +0.000 A 
ENDBRANCH  22  25
ENDBRANCH   1  21
TORSDOF 8
ENDMDL
MODEL 4
REMARK VINA RESULT:      -8.1      0.788      1.358
REMARK  Name = 
REMARK  9 active torsions:
REMARK  status: ('A' for Active; 'I' for Inactive)
REMARK    1  A    between atoms: C_1  and  C_2
REMARK    2  A    between atoms: C_2  and  O_3
REMARK    3  A    between atoms: O_3  and  C_4
REMARK    4  A    between atoms: C_4  and  C_6
REMARK    5  A    between atoms: C_6  and  N_7
REMARK    6  A    between atoms: C_11  and  C_12
REMARK    7  A    between atoms: C_12  and  N_21
REMARK    8  A    between atoms: C_13  and  C_14
REMARK    9  A    between atoms: C_22  and  C_24
REMARK                            x       y       z     vdW  Elec       q    Type
REMARK                         _______ _______ _______ _____ _____    ______ ____
ROOT
ATOM      1  C   UNL     1       4.667   4.716  17.237  0.00  0.00    +0.000 C 
ATOM      2  C   UNL     1       4.494   3.503  17.793  0.00  0.00    +0.000 C 
ENDROOT
BRANCH   2   3
ATOM      3  C   UNL     1       3.422   3.169  18.734  0.00  0.00    +0.000 A 
ATOM      4  C   UNL     1       2.098   3.121  18.277  0.00  0.00    +0.000 A 
ATOM      5  C   UNL     1       1.054   2.900  19.176  0.00  0.00    +0.000 A 
ATOM      6  C   UNL     1       1.342   2.717  20.523  0.00  0.00    +0.000 A 
ATOM      7  F   UNL     1       0.337   2.539  21.392  0.00  0.00    +0.000 F 
ATOM      8  C   UNL     1       2.653   2.723  20.985  0.00  0.00    +0.000 A 
ATOM      9  C   UNL     1       3.699   2.946  20.087  0.00  0.00    +0.000 A 
ENDBRANCH   2   3
BRANCH   1  14
ATOM     10  N   UNL     1       6.925   4.672  16.298  0.00  0.00    +0.000 N 
ATOM     11  N   UNL     1       7.533   4.876  15.112  0.00  0.00    +0.000 NA
ATOM     12  N   UNL     1       6.557   5.159  14.263  0.00  0.00    +0.000 NA
ATOM     13  N   UNL     1       5.340   5.154  14.895  0.00  0.00    +0.000 NA
ATOM     14  C   UNL     1       5.572   4.839  16.157  0.00  0.00    +0.000 A 
BRANCH  10  15
ATOM     15  C   UNL     1       7.734   4.420  17.461  0.00  0.00    +0.000 C 
BRANCH  15  16
ATOM     16  C   UNL     1       7.652   5.551  18.442  0.00  0.00    +0.000 C 
ATOM     17  O   UNL     1       7.447   5.434  19.643  0.00  0.00    +0.000 OA
BRANCH  16  18
ATOM     18  O   UNL     1       7.712   6.738  17.770  0.00  0.00    +0.000 OA
BRANCH  18  20
ATOM     19  C   UNL     1       7.977   9.105  17.719  0.00  0.00    +0.000 C 
ATOM     20  C   UNL     1       8.274   7.838  18.499  0.00  0.00    +0.000 C 
ENDBRANCH  18  20
ENDBRANCH  16  18
ENDBRANCH  15  16
ENDBRANCH  10  15
ENDBRANCH   1  14
BRANCH   1  21
ATOM     21  N   UNL     1       3.808   5.777  17.437  0.00  0.00    +0.000 N 
ATOM     22  C   UNL     1       3.714   6.441  18.647  0.00  0.00    +0.000 C 
ATOM     23  O   UNL     1       4.453   6.208  19.600  0.00  0.00    +0.000 OA
ATOM     24  H   UNL     1       3.059   5.872  16.762  0.00  0.00    +0.000 HD
BRANCH  22  25
ATOM     25  C   UNL     1       2.677   7.510  18.764  0.00  0.00    +0.000 A 
ATOM     26  C   UNL     1       2.033   7.670  20.001  0.00  0.00    +0.000 A 
ATOM     27  C   UNL     1       1.101   8.692  20.190  0.00  0.00    +0.000 A 
ATOM     28  C   UNL     1       0.808   9.567  19.146  0.00  0.00    +0.000 A 
ATOM     29  C   UNL     1       1.443   9.417  17.913  0.00  0.00    +0.000 A 
ATOM     30  C   UNL     1       2.376   8.392  17.719  0.00  0.00    +0.000 A 
ENDBRANCH  22  25
ENDBRANCH   1  21
TORSDOF 8
ENDMDL
MODEL 5
REMARK VINA RESULT:      -7.8      1.910      4.427
REMARK  Name = 
REMARK  9 active torsions:
REMARK  status: ('A' for Active; 'I' for Inactive)
REMARK    1  A    between atoms: C_1  and  C_2
REMARK    2  A    between atoms: C_2  and  O_3
REMARK    3  A    between atoms: O_3  and  C_4
REMARK    4  A    between atoms: C_4  and  C_6
REMARK    5  A    between atoms: C_6  and  N_7
REMARK    6  A    between atoms: C_11  and  C_12
REMARK    7  A    between atoms: C_12  and  N_21
REMARK    8  A    between atoms: C_13  and  C_14
REMARK    9  A    between atoms: C_22  and  C_24
REMARK                            x       y       z     vdW  Elec       q    Type
REMARK                         _______ _______ _______ _____ _____    ______ ____
ROOT
ATOM      1  C   UNL     1       4.093   6.128  17.228  0.00  0.00    +0.000 C 
ATOM      2  C   UNL     1       3.629   7.384  17.096  0.00  0.00    +0.000 C 
ENDROOT
BRANCH   2   3
ATOM      3  C   UNL     1       2.681   8.017  18.017  0.00  0.00    +0.000 A 
ATOM      4  C   UNL     1       2.040   9.203  17.632  0.00  0.00    +0.000 A 
ATOM      5  C   UNL     1       1.208   9.871  18.531  0.00  0.00    +0.000 A 
ATOM      6  C   UNL     1       1.013   9.345  19.803  0.00  0.00    +0.000 A 
ATOM      7  F   UNL     1       0.243  10.005  20.677  0.00  0.00    +0.000 F 
ATOM      8  C   UNL     1       1.611   8.149  20.184  0.00  0.00    +0.000 A 
ATOM      9  C   UNL     1       2.446   7.479  19.287  0.00  0.00    +0.000 A 
ENDBRANCH   2   3
BRANCH   1  14
ATOM     10  N   UNL     1       6.428   6.311  16.521  0.00  0.00    +0.000 N 
ATOM     11  N   UNL     1       7.262   5.747  15.624  0.00  0.00    +0.000 NA
ATOM     12  N   UNL     1       6.537   4.831  15.001  0.00  0.00    +0.000 NA
ATOM     13  N   UNL     1       5.250   4.815  15.477  0.00  0.00    +0.000 NA
ATOM     14  C   UNL     1       5.190   5.728  16.430  0.00  0.00    +0.000 A 
BRANCH  10  15
ATOM     15  C   UNL     1       6.900   7.415  17.314  0.00  0.00    +0.000 C 
BRANCH  15  16
ATOM     16  C   UNL     1       7.862   6.960  18.370  0.00  0.00    +0.000 C 
ATOM     17  O   UNL     1       7.880   5.847  18.879  0.00  0.00    +0.000 OA
BRANCH  16  18
ATOM     18  O   UNL     1       8.630   8.016  18.769  0.00  0.00    +0.000 OA
BRANCH  18  20
ATOM     19  C   UNL     1       9.182  10.332  18.817  0.00  0.00    +0.000 C 
ATOM     20  C   UNL     1       8.338   9.270  18.137  0.00  0.00    +0.000 C 
ENDBRANCH  18  20
ENDBRANCH  16  18
ENDBRANCH  15  16
ENDBRANCH  10  15
ENDBRANCH   1  14
BRANCH   1  21
ATOM     21  N   UNL     1       3.780   5.306  18.291  0.00  0.00    +0.000 N 
ATOM     22  C   UNL     1       2.804   4.329  18.216  0.00  0.00    +0.000 C 
ATOM     23  O   UNL     1       2.214   4.048  17.175  0.00  0.00    +0.000 OA
ATOM     24  H   UNL     1       4.091   5.624  19.201  0.00  0.00    +0.000 HD
BRANCH  22  25
ATOM     25  C   UNL     1       2.494   3.571  19.465  0.00  0.00    +0.000 A 
ATOM     26  C   UNL     1       3.535   2.860  20.080  0.00  0.00    +0.000 A 
ATOM     27  C   UNL     1       3.321   2.184  21.283  0.00  0.00    +0.000 A 
ATOM     28  C   UNL     1       2.066   2.218  21.885  0.00  0.00    +0.000 A 
ATOM     29  C   UNL     1       1.024   2.923  21.282  0.00  0.00    +0.000 A 
ATOM     30  C   UNL     1       1.233   3.600  20.075  0.00  0.00    +0.000 A 
ENDBRANCH  22  25
ENDBRANCH   1  21
TORSDOF 8
ENDMDL
MODEL 6
REMARK VINA RESULT:      -7.8      1.268      1.864
REMARK  Name = 
REMARK  9 active torsions:
REMARK  status: ('A' for Active; 'I' for Inactive)
REMARK    1  A    between atoms: C_1  and  C_2
REMARK    2  A    between atoms: C_2  and  O_3
REMARK    3  A    between atoms: O_3  and  C_4
REMARK    4  A    between atoms: C_4  and  C_6
REMARK    5  A    between atoms: C_6  and  N_7
REMARK    6  A    between atoms: C_11  and  C_12
REMARK    7  A    between atoms: C_12  and  N_21
REMARK    8  A    between atoms: C_13  and  C_14
REMARK    9  A    between atoms: C_22  and  C_24
REMARK                            x       y       z     vdW  Elec       q    Type
REMARK                         _______ _______ _______ _____ _____    ______ ____
ROOT
ATOM      1  C   UNL     1       4.625   4.956  17.921  0.00  0.00    +0.000 C 
ATOM      2  C   UNL     1       4.306   3.708  18.309  0.00  0.00    +0.000 C 
ENDROOT
BRANCH   2   3
ATOM      3  C   UNL     1       3.294   3.390  19.320  0.00  0.00    +0.000 A 
ATOM      4  C   UNL     1       3.411   3.940  20.604  0.00  0.00    +0.000 A 
ATOM      5  C   UNL     1       2.513   3.573  21.607  0.00  0.00    +0.000 A 
ATOM      6  C   UNL     1       1.498   2.669  21.317  0.00  0.00    +0.000 A 
ATOM      7  F   UNL     1       0.656   2.290  22.288  0.00  0.00    +0.000 F 
ATOM      8  C   UNL     1       1.346   2.146  20.038  0.00  0.00    +0.000 A 
ATOM      9  C   UNL     1       2.245   2.510  19.033  0.00  0.00    +0.000 A 
ENDBRANCH   2   3
BRANCH   1  14
ATOM     10  N   UNL     1       6.785   4.959  16.772  0.00  0.00    +0.000 N 
ATOM     11  N   UNL     1       7.277   5.201  15.541  0.00  0.00    +0.000 NA
ATOM     12  N   UNL     1       6.223   5.499  14.796  0.00  0.00    +0.000 NA
ATOM     13  N   UNL     1       5.071   5.466  15.540  0.00  0.00    +0.000 NA
ATOM     14  C   UNL     1       5.424   5.118  16.764  0.00  0.00    +0.000 A 
BRANCH  10  15
ATOM     15  C   UNL     1       7.702   4.681  17.847  0.00  0.00    +0.000 C 
BRANCH  15  16
ATOM     16  C   UNL     1       7.636   5.737  18.910  0.00  0.00    +0.000 C 
ATOM     17  O   UNL     1       7.598   5.526  20.115  0.00  0.00    +0.000 OA
BRANCH  16  18
ATOM     18  O   UNL     1       7.496   6.961  18.323  0.00  0.00    +0.000 OA
BRANCH  18  20
ATOM     19  C   UNL     1       8.177   9.204  17.900  0.00  0.00    +0.000 C 
ATOM     20  C   UNL     1       8.502   7.929  18.655  0.00  0.00    +0.000 C 
ENDBRANCH  18  20
ENDBRANCH  16  18
ENDBRANCH  15  16
ENDBRANCH  10  15
ENDBRANCH   1  14
BRANCH   1  21
ATOM     21  N   UNL     1       3.984   6.087  18.382  0.00  0.00    +0.000 N 
ATOM     22  C   UNL     1       2.655   6.354  18.110  0.00  0.00    +0.000 C 
ATOM     23  O   UNL     1       1.917   5.562  17.527  0.00  0.00    +0.000 OA
ATOM     24  H   UNL     1       4.587   6.842  18.687  0.00  0.00    +0.000 HD
BRANCH  22  25
ATOM     25  C   UNL     1       2.105   7.659  18.585  0.00  0.00    +0.000 A 
ATOM     26  C   UNL     1       1.744   7.768  19.937  0.00  0.00    +0.000 A 
ATOM     27  C   UNL     1       1.283   8.981  20.454  0.00  0.00    +0.000 A 
ATOM     28  C   UNL     1       1.185  10.097  19.626  0.00  0.00    +0.000 A 
ATOM     29  C   UNL     1       1.543   9.999  18.281  0.00  0.00    +0.000 A 
ATOM     30  C   UNL     1       2.002   8.785  17.758  0.00  0.00    +0.000 A 
ENDBRANCH  22  25
ENDBRANCH   1  21
TORSDOF 8
ENDMDL
MODEL 7
REMARK VINA RESULT:      -7.8      1.029      1.042
REMARK  Name = 
REMARK  9 active torsions:
REMARK  status: ('A' for Active; 'I' for Inactive)
REMARK    1  A    between atoms: C_1  and  C_2
REMARK    2  A    between atoms: C_2  and  O_3
REMARK    3  A    between atoms: O_3  and  C_4
REMARK    4  A    between atoms: C_4  and  C_6
REMARK    5  A    between atoms: C_6  and  N_7
REMARK    6  A    between atoms: C_11  and  C_12
REMARK    7  A    between atoms: C_12  and  N_21
REMARK    8  A    between atoms: C_13  and  C_14
REMARK    9  A    between atoms: C_22  and  C_24
REMARK                            x       y       z     vdW  Elec       q    Type
REMARK                         _______ _______ _______ _____ _____    ______ ____
ROOT
ATOM      1  C   UNL     1       4.881   4.848  17.979  0.00  0.00    +0.000 C 
ATOM      2  C   UNL     1       4.598   3.584  18.343  0.00  0.00    +0.000 C 
ENDROOT
BRANCH   2   3
ATOM      3  C   UNL     1       3.599   3.217  19.350  0.00  0.00    +0.000 A 
ATOM      4  C   UNL     1       2.506   2.423  18.973  0.00  0.00    +0.000 A 
ATOM      5  C   UNL     1       1.495   2.144  19.893  0.00  0.00    +0.000 A 
ATOM      6  C   UNL     1       1.588   2.648  21.185  0.00  0.00    +0.000 A 
ATOM      7  F   UNL     1       0.601   2.409  22.058  0.00  0.00    +0.000 F 
ATOM      8  C   UNL     1       2.685   3.403  21.583  0.00  0.00    +0.000 A 
ATOM      9  C   UNL     1       3.698   3.686  20.664  0.00  0.00    +0.000 A 
ENDBRANCH   2   3
BRANCH   1  14
ATOM     10  N   UNL     1       6.882   5.696  16.856  0.00  0.00    +0.000 N 
ATOM     11  N   UNL     1       7.389   5.771  15.609  0.00  0.00    +0.000 NA
ATOM     12  N   UNL     1       6.495   5.178  14.833  0.00  0.00    +0.000 NA
ATOM     13  N   UNL     1       5.421   4.742  15.565  0.00  0.00    +0.000 NA
ATOM     14  C   UNL     1       5.671   5.055  16.823  0.00  0.00    +0.000 A 
BRANCH  10  15
ATOM     15  C   UNL     1       7.591   6.331  17.936  0.00  0.00    +0.000 C 
BRANCH  15  16
ATOM     16  C   UNL     1       7.558   7.825  17.810  0.00  0.00    +0.000 C 
ATOM     17  O   UNL     1       6.814   8.457  17.071  0.00  0.00    +0.000 OA
BRANCH  16  18
ATOM     18  O   UNL     1       8.571   8.364  18.549  0.00  0.00    +0.000 OA
BRANCH  18  20
ATOM     19  C   UNL     1       9.337  10.321  19.669  0.00  0.00    +0.000 C 
ATOM     20  C   UNL     1       8.796   9.769  18.363  0.00  0.00    +0.000 C 
ENDBRANCH  18  20
ENDBRANCH  16  18
ENDBRANCH  15  16
ENDBRANCH  10  15
ENDBRANCH   1  14
BRANCH   1  21
ATOM     21  N   UNL     1       4.211   5.951  18.465  0.00  0.00    +0.000 N 
ATOM     22  C   UNL     1       2.895   6.227  18.140  0.00  0.00    +0.000 C 
ATOM     23  O   UNL     1       2.193   5.465  17.480  0.00  0.00    +0.000 OA
ATOM     24  H   UNL     1       4.793   6.691  18.840  0.00  0.00    +0.000 HD
BRANCH  22  25
ATOM     25  C   UNL     1       2.314   7.504  18.654  0.00  0.00    +0.000 A 
ATOM     26  C   UNL     1       2.135   8.558  17.746  0.00  0.00    +0.000 A 
ATOM     27  C   UNL     1       1.538   9.753  18.153  0.00  0.00    +0.000 A 
ATOM     28  C   UNL     1       1.111   9.903  19.470  0.00  0.00    +0.000 A 
ATOM     29  C   UNL     1       1.284   8.860  20.381  0.00  0.00    +0.000 A 
ATOM     30  C   UNL     1       1.884   7.662  19.977  0.00  0.00    +0.000 A 
ENDBRANCH  22  25
ENDBRANCH   1  21
TORSDOF 8
ENDMDL
MODEL 8
REMARK VINA RESULT:      -7.6      1.102      1.251
REMARK  Name = 
REMARK  9 active torsions:
REMARK  status: ('A' for Active; 'I' for Inactive)
REMARK    1  A    between atoms: C_1  and  C_2
REMARK    2  A    between atoms: C_2  and  O_3
REMARK    3  A    between atoms: O_3  and  C_4
REMARK    4  A    between atoms: C_4  and  C_6
REMARK    5  A    between atoms: C_6  and  N_7
REMARK    6  A    between atoms: C_11  and  C_12
REMARK    7  A    between atoms: C_12  and  N_21
REMARK    8  A    between atoms: C_13  and  C_14
REMARK    9  A    between atoms: C_22  and  C_24
REMARK                            x       y       z     vdW  Elec       q    Type
REMARK                         _______ _______ _______ _____ _____    ______ ____
ROOT
ATOM      1  C   UNL     1       4.405   4.230  17.023  0.00  0.00    +0.000 C 
ATOM      2  C   UNL     1       4.232   3.053  17.651  0.00  0.00    +0.000 C 
ENDROOT
BRANCH   2   3
ATOM      3  C   UNL     1       3.310   2.840  18.770  0.00  0.00    +0.000 A 
ATOM      4  C   UNL     1       1.929   2.844  18.530  0.00  0.00    +0.000 A 
ATOM      5  C   UNL     1       1.033   2.740  19.595  0.00  0.00    +0.000 A 
ATOM      6  C   UNL     1       1.523   2.620  20.890  0.00  0.00    +0.000 A 
ATOM      7  F   UNL     1       0.664   2.554  21.915  0.00  0.00    +0.000 F 
ATOM      8  C   UNL     1       2.890   2.574  21.139  0.00  0.00    +0.000 A 
ATOM      9  C   UNL     1       3.789   2.681  20.075  0.00  0.00    +0.000 A 
ENDBRANCH   2   3
BRANCH   1  14
ATOM     10  N   UNL     1       6.473   4.473  15.739  0.00  0.00    +0.000 N 
ATOM     11  N   UNL     1       6.875   4.453  14.452  0.00  0.00    +0.000 NA
ATOM     12  N   UNL     1       5.780   4.210  13.748  0.00  0.00    +0.000 NA
ATOM     13  N   UNL     1       4.686   4.090  14.567  0.00  0.00    +0.000 NA
ATOM     14  C   UNL     1       5.124   4.243  15.804  0.00  0.00    +0.000 A 
BRANCH  10  15
ATOM     15  C   UNL     1       7.431   4.798  16.763  0.00  0.00    +0.000 C 
BRANCH  15  16
ATOM     16  C   UNL     1       7.302   6.226  17.201  0.00  0.00    +0.000 C 
ATOM     17  O   UNL     1       6.867   7.141  16.514  0.00  0.00    +0.000 OA
BRANCH  16  18
ATOM     18  O   UNL     1       7.865   6.374  18.436  0.00  0.00    +0.000 OA
BRANCH  18  20
ATOM     19  C   UNL     1       8.345   5.538  20.614  0.00  0.00    +0.000 C 
ATOM     20  C   UNL     1       8.083   5.159  19.168  0.00  0.00    +0.000 C 
ENDBRANCH  18  20
ENDBRANCH  16  18
ENDBRANCH  15  16
ENDBRANCH  10  15
ENDBRANCH   1  14
BRANCH   1  21
ATOM     21  N   UNL     1       3.680   5.366  17.315  0.00  0.00    +0.000 N 
ATOM     22  C   UNL     1       3.840   6.070  18.495  0.00  0.00    +0.000 C 
ATOM     23  O   UNL     1       4.707   5.802  19.324  0.00  0.00    +0.000 OA
ATOM     24  H   UNL     1       2.839   5.505  16.768  0.00  0.00    +0.000 HD
BRANCH  22  25
ATOM     25  C   UNL     1       2.926   7.227  18.734  0.00  0.00    +0.000 A 
ATOM     26  C   UNL     1       2.751   8.153  17.695  0.00  0.00    +0.000 A 
ATOM     27  C   UNL     1       1.861   9.221  17.837  0.00  0.00    +0.000 A 
ATOM     28  C   UNL     1       1.134   9.367  19.016  0.00  0.00    +0.000 A 
ATOM     29  C   UNL     1       1.300   8.450  20.054  0.00  0.00    +0.000 A 
ATOM     30  C   UNL     1       2.192   7.381  19.917  0.00  0.00    +0.000 A 
ENDBRANCH  22  25
ENDBRANCH   1  21
TORSDOF 8
ENDMDL
MODEL 9
REMARK VINA RESULT:      -7.5      1.116      1.640
REMARK  Name = 
REMARK  9 active torsions:
REMARK  status: ('A' for Active; 'I' for Inactive)
REMARK    1  A    between atoms: C_1  and  C_2
REMARK    2  A    between atoms: C_2  and  O_3
REMARK    3  A    between atoms: O_3  and  C_4
REMARK    4  A    between atoms: C_4  and  C_6
REMARK    5  A    between atoms: C_6  and  N_7
REMARK    6  A    between atoms: C_11  and  C_12
REMARK    7  A    between atoms: C_12  and  N_21
REMARK    8  A    between atoms: C_13  and  C_14
REMARK    9  A    between atoms: C_22  and  C_24
REMARK                            x       y       z     vdW  Elec       q    Type
REMARK                         _______ _______ _______ _____ _____    ______ ____
ROOT
ATOM      1  C   UNL     1       4.759   4.996  18.007  0.00  0.00    +0.000 C 
ATOM      2  C   UNL     1       4.455   3.748  18.409  0.00  0.00    +0.000 C 
ENDROOT
BRANCH   2   3
ATOM      3  C   UNL     1       3.418   3.425  19.393  0.00  0.00    +0.000 A 
ATOM      4  C   UNL     1       3.466   4.022  20.661  0.00  0.00    +0.000 A 
ATOM      5  C   UNL     1       2.545   3.655  21.642  0.00  0.00    +0.000 A 
ATOM      6  C   UNL     1       1.577   2.703  21.347  0.00  0.00    +0.000 A 
ATOM      7  F   UNL     1       0.714   2.325  22.300  0.00  0.00    +0.000 F 
ATOM      8  C   UNL     1       1.493   2.132  20.083  0.00  0.00    +0.000 A 
ATOM      9  C   UNL     1       2.414   2.496  19.099  0.00  0.00    +0.000 A 
ENDBRANCH   2   3
BRANCH   1  14
ATOM     10  N   UNL     1       6.818   5.761  16.931  0.00  0.00    +0.000 N 
ATOM     11  N   UNL     1       7.366   5.794  15.700  0.00  0.00    +0.000 NA
ATOM     12  N   UNL     1       6.479   5.210  14.908  0.00  0.00    +0.000 NA
ATOM     13  N   UNL     1       5.370   4.822  15.615  0.00  0.00    +0.000 NA
ATOM     14  C   UNL     1       5.590   5.155  16.874  0.00  0.00    +0.000 A 
BRANCH  10  15
ATOM     15  C   UNL     1       7.512   6.399  18.020  0.00  0.00    +0.000 C 
BRANCH  15  16
ATOM     16  C   UNL     1       7.559   7.887  17.842  0.00  0.00    +0.000 C 
ATOM     17  O   UNL     1       6.851   8.532  17.080  0.00  0.00    +0.000 OA
BRANCH  16  18
ATOM     18  O   UNL     1       8.599   8.396  18.564  0.00  0.00    +0.000 OA
BRANCH  18  20
ATOM     19  C   UNL     1       9.353  10.342  19.713  0.00  0.00    +0.000 C 
ATOM     20  C   UNL     1       8.852   9.797  18.388  0.00  0.00    +0.000 C 
ENDBRANCH  18  20
ENDBRANCH  16  18
ENDBRANCH  15  16
ENDBRANCH  10  15
ENDBRANCH   1  14
BRANCH   1  21
ATOM     21  N   UNL     1       4.079   6.120  18.428  0.00  0.00    +0.000 N 
ATOM     22  C   UNL     1       2.760   6.364  18.089  0.00  0.00    +0.000 C 
ATOM     23  O   UNL     1       2.064   5.556  17.479  0.00  0.00    +0.000 OA
ATOM     24  H   UNL     1       4.654   6.887  18.755  0.00  0.00    +0.000 HD
BRANCH  22  25
ATOM     25  C   UNL     1       2.168   7.664  18.526  0.00  0.00    +0.000 A 
ATOM     26  C   UNL     1       1.753   7.782  19.861  0.00  0.00    +0.000 A 
ATOM     27  C   UNL     1       1.250   8.992  20.345  0.00  0.00    +0.000 A 
ATOM     28  C   UNL     1       1.162  10.095  19.499  0.00  0.00    +0.000 A 
ATOM     29  C   UNL     1       1.573   9.988  18.170  0.00  0.00    +0.000 A 
ATOM     30  C   UNL     1       2.076   8.777  17.681  0.00  0.00    +0.000 A 
ENDBRANCH  22  25
ENDBRANCH   1  21
TORSDOF 8
ENDMDL
