MODEL 1
REMARK VINA RESULT:      -8.4      0.000      0.000
REMARK  Name = 
REMARK  3 active torsions:
REMARK  status: ('A' for Active; 'I' for Inactive)
REMARK    1  A    between atoms: C_2  and  C_17
REMARK    2  A    between atoms: N_3  and  C_4
REMARK    3  A    between atoms: C_10  and  C_11
REMARK                            x       y       z     vdW  Elec       q    Type
REMARK                         _______ _______ _______ _____ _____    ______ ____
ROOT
ATOM      1  O   UNL     1       4.116   6.825  16.817  0.00  0.00    +0.000 OA
ATOM      2  C   UNL     1       3.941   5.702  17.282  0.00  0.00    +0.000 C 
ATOM      3  N   UNL     1       4.522   4.550  16.772  0.00  0.00    +0.000 N 
ATOM      4  H   UNL     1       4.582   3.756  17.405  0.00  0.00    +0.000 HD
ENDROOT
BRANCH   2   5
ATOM      5  C   UNL     1       3.137   5.522  18.473  0.00  0.00    +0.000 A 
ATOM      6  C   UNL     1       2.641   6.553  19.305  0.00  0.00    +0.000 A 
ATOM      7  N   UNL     1       1.884   6.104  20.305  0.00  0.00    +0.000 NA
ATOM      8  N   UNL     1       1.858   4.765  20.127  0.00  0.00    +0.000 N 
ATOM      9  C   UNL     1       1.142   3.831  20.868  0.00  0.00    +0.000 A 
ATOM     10  C   UNL     1       1.221   2.531  20.568  0.00  0.00    +0.000 A 
ATOM     11  C   UNL     1       2.131   2.195  19.437  0.00  0.00    +0.000 A 
ATOM     12  N   UNL     1       2.815   3.037  18.721  0.00  0.00    +0.000 NA
ATOM     13  C   UNL     1       2.659   4.360  19.049  0.00  0.00    +0.000 A 
ENDBRANCH   2   5
BRANCH   3  14
ATOM     14  C   UNL     1       5.366   4.584  15.639  0.00  0.00    +0.000 A 
ATOM     15  C   UNL     1       4.866   4.013  14.451  0.00  0.00    +0.000 A 
ATOM     16  C   UNL     1       5.656   3.934  13.312  0.00  0.00    +0.000 A 
ATOM     17 CL   UNL     1       5.056   3.170  11.892  0.00  0.00    +0.000 Cl
ATOM     18  C   UNL     1       6.937   4.459  13.322  0.00  0.00    +0.000 A 
ATOM     19  C   UNL     1       7.430   5.051  14.489  0.00  0.00    +0.000 A 
ATOM     20  C   UNL     1       6.682   5.108  15.692  0.00  0.00    +0.000 A 
BRANCH  20  21
ATOM     21  C   UNL     1       7.293   5.783  16.878  0.00  0.00    +0.000 A 
ATOM     22  C   UNL     1       7.606   5.100  18.067  0.00  0.00    +0.000 A 
ATOM     23  C   UNL     1       8.150   5.758  19.177  0.00  0.00    +0.000 A 
ATOM     24  C   UNL     1       8.350   7.134  19.146  0.00  0.00    +0.000 A 
ATOM     25  C   UNL     1       8.024   7.845  18.000  0.00  0.00    +0.000 A 
ATOM     26  C   UNL     1       7.520   7.176  16.879  0.00  0.00    +0.000 A 
ENDBRANCH  20  21
ENDBRANCH   3  14
TORSDOF 3
ENDMDL
MODEL 2
REMARK VINA RESULT:      -8.0      3.474      5.316
REMARK  Name = 
REMARK  3 active torsions:
REMARK  status: ('A' for Active; 'I' for Inactive)
REMARK    1  A    between atoms: C_2  and  C_17
REMARK    2  A    between atoms: N_3  and  C_4
REMARK    3  A    between atoms: C_10  and  C_11
REMARK                            x       y       z     vdW  Elec       q    Type
REMARK                         _______ _______ _______ _____ _____    ______ ____
ROOT
ATOM      1  O   UNL     1       2.000   6.768  20.453  0.00  0.00    +0.000 OA
ATOM      2  C   UNL     1       2.118   7.260  19.334  0.00  0.00    +0.000 C 
ATOM      3  N   UNL     1       2.486   6.544  18.204  0.00  0.00    +0.000 N 
ATOM      4  H   UNL     1       2.236   6.953  17.308  0.00  0.00    +0.000 HD
ENDROOT
BRANCH   2   5
ATOM      5  C   UNL     1       1.803   8.657  19.113  0.00  0.00    +0.000 A 
ATOM      6  C   UNL     1       2.216   9.437  18.007  0.00  0.00    +0.000 A 
ATOM      7  N   UNL     1       1.736  10.680  18.033  0.00  0.00    +0.000 NA
ATOM      8  N   UNL     1       0.982  10.723  19.153  0.00  0.00    +0.000 N 
ATOM      9  C   UNL     1       0.203  11.783  19.603  0.00  0.00    +0.000 A 
ATOM     10  C   UNL     1      -0.491  11.672  20.741  0.00  0.00    +0.000 A 
ATOM     11  C   UNL     1      -0.330  10.376  21.458  0.00  0.00    +0.000 A 
ATOM     12  N   UNL     1       0.386   9.364  21.071  0.00  0.00    +0.000 NA
ATOM     13  C   UNL     1       1.041   9.521  19.876  0.00  0.00    +0.000 A 
ENDBRANCH   2   5
BRANCH   3  14
ATOM     14  C   UNL     1       2.779   5.162  18.265  0.00  0.00    +0.000 A 
ATOM     15  C   UNL     1       1.683   4.277  18.314  0.00  0.00    +0.000 A 
ATOM     16  C   UNL     1       1.879   2.909  18.452  0.00  0.00    +0.000 A 
ATOM     17 CL   UNL     1       0.530   1.849  18.583  0.00  0.00    +0.000 Cl
ATOM     18  C   UNL     1       3.164   2.396  18.499  0.00  0.00    +0.000 A 
ATOM     19  C   UNL     1       4.256   3.266  18.424  0.00  0.00    +0.000 A 
ATOM     20  C   UNL     1       4.108   4.674  18.336  0.00  0.00    +0.000 A 
BRANCH  20  21
ATOM     21  C   UNL     1       5.340   5.514  18.238  0.00  0.00    +0.000 A 
ATOM     22  C   UNL     1       5.525   6.482  17.233  0.00  0.00    +0.000 A 
ATOM     23  C   UNL     1       6.700   7.238  17.142  0.00  0.00    +0.000 A 
ATOM     24  C   UNL     1       7.749   7.011  18.027  0.00  0.00    +0.000 A 
ATOM     25  C   UNL     1       7.614   6.042  19.011  0.00  0.00    +0.000 A 
ATOM     26  C   UNL     1       6.420   5.319  19.124  0.00  0.00    +0.000 A 
ENDBRANCH  20  21
ENDBRANCH   3  14
TORSDOF 3
ENDMDL
MODEL 3
REMARK VINA RESULT:      -8.0      0.791      1.248
REMARK  Name = 
REMARK  3 active torsions:
REMARK  status: ('A' for Active; 'I' for Inactive)
REMARK    1  A    between atoms: C_2  and  C_17
REMARK    2  A    between atoms: N_3  and  C_4
REMARK    3  A    between atoms: C_10  and  C_11
REMARK                            x       y       z     vdW  Elec       q    Type
REMARK                         _______ _______ _______ _____ _____    ______ ____
ROOT
ATOM      1  O   UNL     1       3.958   6.536  16.971  0.00  0.00    +0.000 OA
ATOM      2  C   UNL     1       3.871   5.387  17.395  0.00  0.00    +0.000 C 
ATOM      3  N   UNL     1       4.515   4.297  16.827  0.00  0.00    +0.000 N 
ATOM      4  H   UNL     1       4.644   3.485  17.426  0.00  0.00    +0.000 HD
ENDROOT
BRANCH   2   5
ATOM      5  C   UNL     1       3.113   5.107  18.597  0.00  0.00    +0.000 A 
ATOM      6  C   UNL     1       2.001   5.844  19.069  0.00  0.00    +0.000 A 
ATOM      7  N   UNL     1       1.461   5.331  20.174  0.00  0.00    +0.000 NA
ATOM      8  N   UNL     1       2.205   4.233  20.429  0.00  0.00    +0.000 N 
ATOM      9  C   UNL     1       2.009   3.300  21.441  0.00  0.00    +0.000 A 
ATOM     10  C   UNL     1       2.838   2.259  21.567  0.00  0.00    +0.000 A 
ATOM     11  C   UNL     1       3.956   2.217  20.583  0.00  0.00    +0.000 A 
ATOM     12  N   UNL     1       4.173   3.067  19.625  0.00  0.00    +0.000 NA
ATOM     13  C   UNL     1       3.264   4.089  19.520  0.00  0.00    +0.000 A 
ENDBRANCH   2   5
BRANCH   3  14
ATOM     14  C   UNL     1       5.324   4.431  15.676  0.00  0.00    +0.000 A 
ATOM     15  C   UNL     1       4.848   3.842  14.486  0.00  0.00    +0.000 A 
ATOM     16  C   UNL     1       5.615   3.860  13.328  0.00  0.00    +0.000 A 
ATOM     17 CL   UNL     1       5.052   3.074  11.905  0.00  0.00    +0.000 Cl
ATOM     18  C   UNL     1       6.843   4.499  13.321  0.00  0.00    +0.000 A 
ATOM     19  C   UNL     1       7.309   5.108  14.491  0.00  0.00    +0.000 A 
ATOM     20  C   UNL     1       6.588   5.072  15.711  0.00  0.00    +0.000 A 
BRANCH  20  21
ATOM     21  C   UNL     1       7.164   5.775  16.898  0.00  0.00    +0.000 A 
ATOM     22  C   UNL     1       7.435   7.156  16.910  0.00  0.00    +0.000 A 
ATOM     23  C   UNL     1       8.001   7.788  18.023  0.00  0.00    +0.000 A 
ATOM     24  C   UNL     1       8.361   7.046  19.142  0.00  0.00    +0.000 A 
ATOM     25  C   UNL     1       8.138   5.677  19.154  0.00  0.00    +0.000 A 
ATOM     26  C   UNL     1       7.532   5.056  18.055  0.00  0.00    +0.000 A 
ENDBRANCH  20  21
ENDBRANCH   3  14
TORSDOF 3
ENDMDL
MODEL 4
REMARK VINA RESULT:      -7.9      3.595      5.739
REMARK  Name = 
REMARK  3 active torsions:
REMARK  status: ('A' for Active; 'I' for Inactive)
REMARK    1  A    between atoms: C_2  and  C_17
REMARK    2  A    between atoms: N_3  and  C_4
REMARK    3  A    between atoms: C_10  and  C_11
REMARK                            x       y       z     vdW  Elec       q    Type
REMARK                         _______ _______ _______ _____ _____    ______ ____
ROOT
ATOM      1  O   UNL     1       1.727   6.409  17.879  0.00  0.00    +0.000 OA
ATOM      2  C   UNL     1       2.107   7.092  18.826  0.00  0.00    +0.000 C 
ATOM      3  N   UNL     1       2.805   6.593  19.916  0.00  0.00    +0.000 N 
ATOM      4  H   UNL     1       3.344   7.266  20.455  0.00  0.00    +0.000 HD
ENDROOT
BRANCH   2   5
ATOM      5  C   UNL     1       1.893   8.525  18.825  0.00  0.00    +0.000 A 
ATOM      6  C   UNL     1       2.249   9.418  17.786  0.00  0.00    +0.000 A 
ATOM      7  N   UNL     1       1.886  10.677  18.028  0.00  0.00    +0.000 NA
ATOM      8  N   UNL     1       1.265  10.620  19.226  0.00  0.00    +0.000 N 
ATOM      9  C   UNL     1       0.635  11.662  19.897  0.00  0.00    +0.000 A 
ATOM     10  C   UNL     1       0.061  11.448  21.086  0.00  0.00    +0.000 A 
ATOM     11  C   UNL     1       0.185  10.058  21.608  0.00  0.00    +0.000 A 
ATOM     12  N   UNL     1       0.764   9.059  21.012  0.00  0.00    +0.000 NA
ATOM     13  C   UNL     1       1.297   9.330  19.777  0.00  0.00    +0.000 A 
ENDBRANCH   2   5
BRANCH   3  14
ATOM     14  C   UNL     1       3.122   5.220  20.027  0.00  0.00    +0.000 A 
ATOM     15  C   UNL     1       2.208   4.406  20.728  0.00  0.00    +0.000 A 
ATOM     16  C   UNL     1       2.478   3.062  20.951  0.00  0.00    +0.000 A 
ATOM     17 CL   UNL     1       1.386   2.100  21.869  0.00  0.00    +0.000 Cl
ATOM     18  C   UNL     1       3.636   2.497  20.445  0.00  0.00    +0.000 A 
ATOM     19  C   UNL     1       4.534   3.292  19.727  0.00  0.00    +0.000 A 
ATOM     20  C   UNL     1       4.330   4.679  19.518  0.00  0.00    +0.000 A 
BRANCH  20  21
ATOM     21  C   UNL     1       5.340   5.434  18.715  0.00  0.00    +0.000 A 
ATOM     22  C   UNL     1       5.076   5.923  17.422  0.00  0.00    +0.000 A 
ATOM     23  C   UNL     1       6.047   6.602  16.677  0.00  0.00    +0.000 A 
ATOM     24  C   UNL     1       7.330   6.769  17.185  0.00  0.00    +0.000 A 
ATOM     25  C   UNL     1       7.636   6.272  18.445  0.00  0.00    +0.000 A 
ATOM     26  C   UNL     1       6.649   5.632  19.203  0.00  0.00    +0.000 A 
ENDBRANCH  20  21
ENDBRANCH   3  14
TORSDOF 3
ENDMDL
MODEL 5
REMARK VINA RESULT:      -7.9      3.546      5.687
REMARK  Name = 
REMARK  3 active torsions:
REMARK  status: ('A' for Active; 'I' for Inactive)
REMARK    1  A    between atoms: C_2  and  C_17
REMARK    2  A    between atoms: N_3  and  C_4
REMARK    3  A    between atoms: C_10  and  C_11
REMARK                            x       y       z     vdW  Elec       q    Type
REMARK                         _______ _______ _______ _____ _____    ______ ____
ROOT
ATOM      1  O   UNL     1       1.789   6.138  17.836  0.00  0.00    +0.000 OA
ATOM      2  C   UNL     1       2.204   6.861  18.739  0.00  0.00    +0.000 C 
ATOM      3  N   UNL     1       2.909   6.402  19.842  0.00  0.00    +0.000 N 
ATOM      4  H   UNL     1       3.475   7.088  20.335  0.00  0.00    +0.000 HD
ENDROOT
BRANCH   2   5
ATOM      5  C   UNL     1       2.028   8.297  18.663  0.00  0.00    +0.000 A 
ATOM      6  C   UNL     1       2.413   9.127  17.584  0.00  0.00    +0.000 A 
ATOM      7  N   UNL     1       2.081  10.405  17.759  0.00  0.00    +0.000 NA
ATOM      8  N   UNL     1       1.452  10.425  18.955  0.00  0.00    +0.000 N 
ATOM      9  C   UNL     1       0.846  11.515  19.568  0.00  0.00    +0.000 A 
ATOM     10  C   UNL     1       0.261  11.376  20.762  0.00  0.00    +0.000 A 
ATOM     11  C   UNL     1       0.346  10.011  21.355  0.00  0.00    +0.000 A 
ATOM     12  N   UNL     1       0.902   8.969  20.813  0.00  0.00    +0.000 NA
ATOM     13  C   UNL     1       1.448   9.164  19.570  0.00  0.00    +0.000 A 
ENDBRANCH   2   5
BRANCH   3  14
ATOM     14  C   UNL     1       3.192   5.029  20.021  0.00  0.00    +0.000 A 
ATOM     15  C   UNL     1       2.278   4.282  20.793  0.00  0.00    +0.000 A 
ATOM     16  C   UNL     1       2.519   2.945  21.084  0.00  0.00    +0.000 A 
ATOM     17 CL   UNL     1       1.430   2.068  22.087  0.00  0.00    +0.000 Cl
ATOM     18  C   UNL     1       3.645   2.319  20.578  0.00  0.00    +0.000 A 
ATOM     19  C   UNL     1       4.542   3.047  19.790  0.00  0.00    +0.000 A 
ATOM     20  C   UNL     1       4.369   4.426  19.508  0.00  0.00    +0.000 A 
BRANCH  20  21
ATOM     21  C   UNL     1       5.374   5.106  18.636  0.00  0.00    +0.000 A 
ATOM     22  C   UNL     1       6.592   5.611  19.126  0.00  0.00    +0.000 A 
ATOM     23  C   UNL     1       7.506   6.271  18.296  0.00  0.00    +0.000 A 
ATOM     24  C   UNL     1       7.204   6.490  16.957  0.00  0.00    +0.000 A 
ATOM     25  C   UNL     1       5.998   6.033  16.445  0.00  0.00    +0.000 A 
ATOM     26  C   UNL     1       5.107   5.336  17.270  0.00  0.00    +0.000 A 
ENDBRANCH  20  21
ENDBRANCH   3  14
TORSDOF 3
ENDMDL
MODEL 6
REMARK VINA RESULT:      -7.9      1.311      2.279
REMARK  Name = 
REMARK  3 active torsions:
REMARK  status: ('A' for Active; 'I' for Inactive)
REMARK    1  A    between atoms: C_2  and  C_17
REMARK    2  A    between atoms: N_3  and  C_4
REMARK    3  A    between atoms: C_10  and  C_11
REMARK                            x       y       z     vdW  Elec       q    Type
REMARK                         _______ _______ _______ _____ _____    ______ ____
ROOT
ATOM      1  O   UNL     1       4.711   2.283  17.041  0.00  0.00    +0.000 OA
ATOM      2  C   UNL     1       4.125   3.353  17.180  0.00  0.00    +0.000 C 
ATOM      3  N   UNL     1       4.335   4.465  16.378  0.00  0.00    +0.000 N 
ATOM      4  H   UNL     1       3.591   5.158  16.362  0.00  0.00    +0.000 HD
ENDROOT
BRANCH   2   5
ATOM      5  C   UNL     1       3.095   3.495  18.189  0.00  0.00    +0.000 A 
ATOM      6  C   UNL     1       2.307   2.450  18.726  0.00  0.00    +0.000 A 
ATOM      7  N   UNL     1       1.472   2.859  19.680  0.00  0.00    +0.000 NA
ATOM      8  N   UNL     1       1.720   4.182  19.796  0.00  0.00    +0.000 N 
ATOM      9  C   UNL     1       1.158   5.067  20.709  0.00  0.00    +0.000 A 
ATOM     10  C   UNL     1       1.506   6.357  20.697  0.00  0.00    +0.000 A 
ATOM     11  C   UNL     1       2.485   6.740  19.641  0.00  0.00    +0.000 A 
ATOM     12  N   UNL     1       3.032   5.944  18.772  0.00  0.00    +0.000 NA
ATOM     13  C   UNL     1       2.668   4.625  18.861  0.00  0.00    +0.000 A 
ENDBRANCH   2   5
BRANCH   3  14
ATOM     14  C   UNL     1       5.279   4.454  15.326  0.00  0.00    +0.000 A 
ATOM     15  C   UNL     1       4.874   3.866  14.110  0.00  0.00    +0.000 A 
ATOM     16  C   UNL     1       5.763   3.744  13.049  0.00  0.00    +0.000 A 
ATOM     17 CL   UNL     1       5.275   2.960  11.597  0.00  0.00    +0.000 Cl
ATOM     18  C   UNL     1       7.050   4.240  13.165  0.00  0.00    +0.000 A 
ATOM     19  C   UNL     1       7.449   4.847  14.359  0.00  0.00    +0.000 A 
ATOM     20  C   UNL     1       6.597   4.950  15.488  0.00  0.00    +0.000 A 
BRANCH  20  21
ATOM     21  C   UNL     1       7.113   5.639  16.709  0.00  0.00    +0.000 A 
ATOM     22  C   UNL     1       7.317   7.030  16.772  0.00  0.00    +0.000 A 
ATOM     23  C   UNL     1       7.830   7.651  17.918  0.00  0.00    +0.000 A 
ATOM     24  C   UNL     1       8.203   6.889  19.019  0.00  0.00    +0.000 A 
ATOM     25  C   UNL     1       8.046   5.511  18.981  0.00  0.00    +0.000 A 
ATOM     26  C   UNL     1       7.493   4.900  17.850  0.00  0.00    +0.000 A 
ENDBRANCH  20  21
ENDBRANCH   3  14
TORSDOF 3
ENDMDL
MODEL 7
REMARK VINA RESULT:      -7.8      1.309      1.806
REMARK  Name = 
REMARK  3 active torsions:
REMARK  status: ('A' for Active; 'I' for Inactive)
REMARK    1  A    between atoms: C_2  and  C_17
REMARK    2  A    between atoms: N_3  and  C_4
REMARK    3  A    between atoms: C_10  and  C_11
REMARK                            x       y       z     vdW  Elec       q    Type
REMARK                         _______ _______ _______ _____ _____    ______ ____
ROOT
ATOM      1  O   UNL     1       3.983   5.046  17.263  0.00  0.00    +0.000 OA
ATOM      2  C   UNL     1       4.465   3.955  17.552  0.00  0.00    +0.000 C 
ATOM      3  N   UNL     1       5.418   3.298  16.787  0.00  0.00    +0.000 N 
ATOM      4  H   UNL     1       5.975   2.594  17.265  0.00  0.00    +0.000 HD
ENDROOT
BRANCH   2   5
ATOM      5  C   UNL     1       4.098   3.299  18.790  0.00  0.00    +0.000 A 
ATOM      6  C   UNL     1       4.950   2.509  19.598  0.00  0.00    +0.000 A 
ATOM      7  N   UNL     1       4.362   2.072  20.711  0.00  0.00    +0.000 NA
ATOM      8  N   UNL     1       3.116   2.591  20.656  0.00  0.00    +0.000 N 
ATOM      9  C   UNL     1       2.119   2.490  21.620  0.00  0.00    +0.000 A 
ATOM     10  C   UNL     1       0.928   3.062  21.418  0.00  0.00    +0.000 A 
ATOM     11  C   UNL     1       0.772   3.757  20.109  0.00  0.00    +0.000 A 
ATOM     12  N   UNL     1       1.678   3.873  19.185  0.00  0.00    +0.000 NA
ATOM     13  C   UNL     1       2.893   3.303  19.468  0.00  0.00    +0.000 A 
ENDBRANCH   2   5
BRANCH   3  14
ATOM     14  C   UNL     1       5.902   3.843  15.576  0.00  0.00    +0.000 A 
ATOM     15  C   UNL     1       5.449   3.249  14.380  0.00  0.00    +0.000 A 
ATOM     16  C   UNL     1       5.932   3.672  13.149  0.00  0.00    +0.000 A 
ATOM     17 CL   UNL     1       5.424   2.889  11.703  0.00  0.00    +0.000 Cl
ATOM     18  C   UNL     1       6.837   4.718  13.083  0.00  0.00    +0.000 A 
ATOM     19  C   UNL     1       7.270   5.329  14.264  0.00  0.00    +0.000 A 
ATOM     20  C   UNL     1       6.847   4.900  15.548  0.00  0.00    +0.000 A 
BRANCH  20  21
ATOM     21  C   UNL     1       7.351   5.636  16.746  0.00  0.00    +0.000 A 
ATOM     22  C   UNL     1       7.699   4.991  17.948  0.00  0.00    +0.000 A 
ATOM     23  C   UNL     1       8.142   5.704  19.069  0.00  0.00    +0.000 A 
ATOM     24  C   UNL     1       8.201   7.092  19.036  0.00  0.00    +0.000 A 
ATOM     25  C   UNL     1       7.836   7.765  17.879  0.00  0.00    +0.000 A 
ATOM     26  C   UNL     1       7.435   7.045  16.747  0.00  0.00    +0.000 A 
ENDBRANCH  20  21
ENDBRANCH   3  14
TORSDOF 3
ENDMDL
MODEL 8
REMARK VINA RESULT:      -7.7      3.508      5.266
REMARK  Name = 
REMARK  3 active torsions:
REMARK  status: ('A' for Active; 'I' for Inactive)
REMARK    1  A    between atoms: C_2  and  C_17
REMARK    2  A    between atoms: N_3  and  C_4
REMARK    3  A    between atoms: C_10  and  C_11
REMARK                            x       y       z     vdW  Elec       q    Type
REMARK                         _______ _______ _______ _____ _____    ______ ____
ROOT
ATOM      1  O   UNL     1       2.228   6.974  20.246  0.00  0.00    +0.000 OA
ATOM      2  C   UNL     1       2.312   7.374  19.088  0.00  0.00    +0.000 C 
ATOM      3  N   UNL     1       2.612   6.562  18.004  0.00  0.00    +0.000 N 
ATOM      4  H   UNL     1       2.336   6.909  17.089  0.00  0.00    +0.000 HD
ENDROOT
BRANCH   2   5
ATOM      5  C   UNL     1       2.028   8.759  18.771  0.00  0.00    +0.000 A 
ATOM      6  C   UNL     1       2.649   9.524  17.756  0.00  0.00    +0.000 A 
ATOM      7  N   UNL     1       2.155  10.757  17.650  0.00  0.00    +0.000 NA
ATOM      8  N   UNL     1       1.183  10.808  18.588  0.00  0.00    +0.000 N 
ATOM      9  C   UNL     1       0.311  11.861  18.840  0.00  0.00    +0.000 A 
ATOM     10  C   UNL     1      -0.603  11.760  19.810  0.00  0.00    +0.000 A 
ATOM     11  C   UNL     1      -0.574  10.484  20.578  0.00  0.00    +0.000 A 
ATOM     12  N   UNL     1       0.224   9.478  20.374  0.00  0.00    +0.000 NA
ATOM     13  C   UNL     1       1.110   9.624  19.337  0.00  0.00    +0.000 A 
ENDBRANCH   2   5
BRANCH   3  14
ATOM     14  C   UNL     1       2.868   5.180  18.161  0.00  0.00    +0.000 A 
ATOM     15  C   UNL     1       1.748   4.328  18.248  0.00  0.00    +0.000 A 
ATOM     16  C   UNL     1       1.907   2.967  18.479  0.00  0.00    +0.000 A 
ATOM     17 CL   UNL     1       0.529   1.952  18.655  0.00  0.00    +0.000 Cl
ATOM     18  C   UNL     1       3.178   2.428  18.584  0.00  0.00    +0.000 A 
ATOM     19  C   UNL     1       4.293   3.264  18.472  0.00  0.00    +0.000 A 
ATOM     20  C   UNL     1       4.183   4.665  18.288  0.00  0.00    +0.000 A 
BRANCH  20  21
ATOM     21  C   UNL     1       5.437   5.467  18.157  0.00  0.00    +0.000 A 
ATOM     22  C   UNL     1       6.493   5.389  19.085  0.00  0.00    +0.000 A 
ATOM     23  C   UNL     1       7.647   6.171  18.958  0.00  0.00    +0.000 A 
ATOM     24  C   UNL     1       7.758   7.093  17.924  0.00  0.00    +0.000 A 
ATOM     25  C   UNL     1       6.723   7.220  17.008  0.00  0.00    +0.000 A 
ATOM     26  C   UNL     1       5.590   6.405  17.115  0.00  0.00    +0.000 A 
ENDBRANCH  20  21
ENDBRANCH   3  14
TORSDOF 3
ENDMDL
MODEL 9
REMARK VINA RESULT:      -7.7      1.399      1.752
REMARK  Name = 
REMARK  3 active torsions:
REMARK  status: ('A' for Active; 'I' for Inactive)
REMARK    1  A    between atoms: C_2  and  C_17
REMARK    2  A    between atoms: N_3  and  C_4
REMARK    3  A    between atoms: C_10  and  C_11
REMARK                            x       y       z     vdW  Elec       q    Type
REMARK                         _______ _______ _______ _____ _____    ______ ____
ROOT
ATOM      1  O   UNL     1       4.751   2.534  17.114  0.00  0.00    +0.000 OA
ATOM      2  C   UNL     1       4.132   3.595  17.143  0.00  0.00    +0.000 C 
ATOM      3  N   UNL     1       4.345   4.644  16.261  0.00  0.00    +0.000 N 
ATOM      4  H   UNL     1       3.585   5.312  16.160  0.00  0.00    +0.000 HD
ENDROOT
BRANCH   2   5
ATOM      5  C   UNL     1       3.061   3.790  18.098  0.00  0.00    +0.000 A 
ATOM      6  C   UNL     1       1.863   4.506  17.869  0.00  0.00    +0.000 A 
ATOM      7  N   UNL     1       1.027   4.480  18.907  0.00  0.00    +0.000 NA
ATOM      8  N   UNL     1       1.664   3.723  19.827  0.00  0.00    +0.000 N 
ATOM      9  C   UNL     1       1.183   3.328  21.071  0.00  0.00    +0.000 A 
ATOM     10  C   UNL     1       1.938   2.574  21.876  0.00  0.00    +0.000 A 
ATOM     11  C   UNL     1       3.291   2.242  21.348  0.00  0.00    +0.000 A 
ATOM     12  N   UNL     1       3.776   2.590  20.194  0.00  0.00    +0.000 NA
ATOM     13  C   UNL     1       2.938   3.326  19.395  0.00  0.00    +0.000 A 
ENDBRANCH   2   5
BRANCH   3  14
ATOM     14  C   UNL     1       5.329   4.574  15.248  0.00  0.00    +0.000 A 
ATOM     15  C   UNL     1       4.955   3.964  14.033  0.00  0.00    +0.000 A 
ATOM     16  C   UNL     1       5.881   3.784  13.014  0.00  0.00    +0.000 A 
ATOM     17 CL   UNL     1       5.428   2.974  11.565  0.00  0.00    +0.000 Cl
ATOM     18  C   UNL     1       7.178   4.244  13.168  0.00  0.00    +0.000 A 
ATOM     19  C   UNL     1       7.548   4.873  14.361  0.00  0.00    +0.000 A 
ATOM     20  C   UNL     1       6.655   5.034  15.450  0.00  0.00    +0.000 A 
BRANCH  20  21
ATOM     21  C   UNL     1       7.144   5.742  16.672  0.00  0.00    +0.000 A 
ATOM     22  C   UNL     1       7.361   7.132  16.714  0.00  0.00    +0.000 A 
ATOM     23  C   UNL     1       7.848   7.770  17.861  0.00  0.00    +0.000 A 
ATOM     24  C   UNL     1       8.180   7.026  18.988  0.00  0.00    +0.000 A 
ATOM     25  C   UNL     1       8.009   5.649  18.973  0.00  0.00    +0.000 A 
ATOM     26  C   UNL     1       7.482   5.022  17.838  0.00  0.00    +0.000 A 
ENDBRANCH  20  21
ENDBRANCH   3  14
TORSDOF 3
ENDMDL
