MODEL 1
REMARK VINA RESULT:      -7.3      0.000      0.000
REMARK  Name = 
REMARK  6 active torsions:
REMARK  status: ('A' for Active; 'I' for Inactive)
REMARK    1  A    between atoms: C_4  and  C_5
REMARK    2  A    between atoms: C_5  and  O_6
REMARK    3  A    between atoms: O_6  and  C_7
REMARK    4  A    between atoms: C_7  and  C_8
REMARK    5  A    between atoms: C_8  and  C_9
REMARK    6  A    between atoms: C_8  and  N_15
REMARK                            x       y       z     vdW  Elec       q    Type
REMARK                         _______ _______ _______ _____ _____    ______ ____
ROOT
ATOM      1  C   UNL     1       4.318   5.283  17.264  0.00  0.00    +0.000 C 
ENDROOT
BRANCH   1   2
ATOM      2  N   UNL     1       5.667   4.890  17.756  0.00  0.00    +0.000 NA
ATOM      3  C   UNL     1       6.518   4.310  16.681  0.00  0.00    +0.000 C 
ATOM      4  C   UNL     1       7.034   5.323  15.629  0.00  0.00    +0.000 C 
ATOM      5  N   UNL     1       7.766   6.441  16.230  0.00  0.00    +0.000 NA
ATOM      6  C   UNL     1       6.993   7.045  17.323  0.00  0.00    +0.000 C 
ATOM      7  C   UNL     1       6.434   6.018  18.339  0.00  0.00    +0.000 C 
ATOM      8  H   UNL     1       7.979   7.145  15.524  0.00  0.00    +0.000 HD
ENDBRANCH   1   2
BRANCH   1   9
ATOM      9  C   UNL     1       3.556   6.266  18.169  0.00  0.00    +0.000 A 
ATOM     10  C   UNL     1       3.074   5.881  19.431  0.00  0.00    +0.000 A 
ATOM     11  C   UNL     1       2.190   6.702  20.135  0.00  0.00    +0.000 A 
ATOM     12  C   UNL     1       1.789   7.925  19.598  0.00  0.00    +0.000 A 
ATOM     13  C   UNL     1       2.300   8.346  18.374  0.00  0.00    +0.000 A 
ATOM     14  C   UNL     1       3.185   7.527  17.668  0.00  0.00    +0.000 A 
ENDBRANCH   1   9
BRANCH   1  15
ATOM     15  C   UNL     1       3.376   4.042  17.070  0.00  0.00    +0.000 C 
BRANCH  15  16
ATOM     16  O   UNL     1       4.001   2.783  17.353  0.00  0.00    +0.000 OA
BRANCH  16  17
ATOM     17  C   UNL     1       3.098   1.811  17.863  0.00  0.00    +0.000 C 
BRANCH  17  21
ATOM     18  C   UNL     1       1.409   3.167  21.575  0.00  0.00    +0.000 A 
ATOM     19  C   UNL     1       0.620   3.130  20.428  0.00  0.00    +0.000 A 
ATOM     20  C   UNL     1       1.174   2.705  19.222  0.00  0.00    +0.000 A 
ATOM     21  C   UNL     1       2.519   2.314  19.155  0.00  0.00    +0.000 A 
ATOM     22  C   UNL     1       3.302   2.355  20.313  0.00  0.00    +0.000 A 
ATOM     23  C   UNL     1       2.748   2.783  21.520  0.00  0.00    +0.000 A 
ENDBRANCH  17  21
ENDBRANCH  16  17
ENDBRANCH  15  16
ENDBRANCH   1  15
TORSDOF 6
ENDMDL
MODEL 2
REMARK VINA RESULT:      -7.3      1.516      3.462
REMARK  Name = 
REMARK  6 active torsions:
REMARK  status: ('A' for Active; 'I' for Inactive)
REMARK    1  A    between atoms: C_4  and  C_5
REMARK    2  A    between atoms: C_5  and  O_6
REMARK    3  A    between atoms: O_6  and  C_7
REMARK    4  A    between atoms: C_7  and  C_8
REMARK    5  A    between atoms: C_8  and  C_9
REMARK    6  A    between atoms: C_8  and  N_15
REMARK                            x       y       z     vdW  Elec       q    Type
REMARK                         _______ _______ _______ _____ _____    ______ ____
ROOT
ATOM      1  C   UNL     1       4.314   5.446  17.863  0.00  0.00    +0.000 C 
ENDROOT
BRANCH   1   2
ATOM      2  N   UNL     1       4.750   5.652  16.455  0.00  0.00    +0.000 NA
ATOM      3  C   UNL     1       5.361   6.993  16.240  0.00  0.00    +0.000 C 
ATOM      4  C   UNL     1       6.768   7.184  16.859  0.00  0.00    +0.000 C 
ATOM      5  N   UNL     1       7.728   6.172  16.409  0.00  0.00    +0.000 NA
ATOM      6  C   UNL     1       7.176   4.820  16.567  0.00  0.00    +0.000 C 
ATOM      7  C   UNL     1       5.746   4.654  15.994  0.00  0.00    +0.000 C 
ATOM      8  H   UNL     1       8.600   6.255  16.930  0.00  0.00    +0.000 HD
ENDBRANCH   1   2
BRANCH   1   9
ATOM      9  C   UNL     1       3.917   4.003  18.218  0.00  0.00    +0.000 A 
ATOM     10  C   UNL     1       4.616   3.266  19.189  0.00  0.00    +0.000 A 
ATOM     11  C   UNL     1       4.398   1.894  19.333  0.00  0.00    +0.000 A 
ATOM     12  C   UNL     1       3.467   1.242  18.524  0.00  0.00    +0.000 A 
ATOM     13  C   UNL     1       2.726   1.968  17.596  0.00  0.00    +0.000 A 
ATOM     14  C   UNL     1       2.942   3.340  17.450  0.00  0.00    +0.000 A 
ENDBRANCH   1   9
BRANCH   1  15
ATOM     15  C   UNL     1       3.083   6.346  18.238  0.00  0.00    +0.000 C 
BRANCH  15  16
ATOM     16  O   UNL     1       3.056   6.757  19.611  0.00  0.00    +0.000 OA
BRANCH  16  17
ATOM     17  C   UNL     1       1.782   6.591  20.221  0.00  0.00    +0.000 C 
BRANCH  17  21
ATOM     18  C   UNL     1       1.362   2.449  21.291  0.00  0.00    +0.000 A 
ATOM     19  C   UNL     1       0.563   2.990  20.287  0.00  0.00    +0.000 A 
ATOM     20  C   UNL     1       0.689   4.336  19.952  0.00  0.00    +0.000 A 
ATOM     21  C   UNL     1       1.616   5.151  20.619  0.00  0.00    +0.000 A 
ATOM     22  C   UNL     1       2.413   4.598  21.626  0.00  0.00    +0.000 A 
ATOM     23  C   UNL     1       2.284   3.250  21.962  0.00  0.00    +0.000 A 
ENDBRANCH  17  21
ENDBRANCH  16  17
ENDBRANCH  15  16
ENDBRANCH   1  15
TORSDOF 6
ENDMDL
MODEL 3
REMARK VINA RESULT:      -7.2      1.146      2.162
REMARK  Name = 
REMARK  6 active torsions:
REMARK  status: ('A' for Active; 'I' for Inactive)
REMARK    1  A    between atoms: C_4  and  C_5
REMARK    2  A    between atoms: C_5  and  O_6
REMARK    3  A    between atoms: O_6  and  C_7
REMARK    4  A    between atoms: C_7  and  C_8
REMARK    5  A    between atoms: C_8  and  C_9
REMARK    6  A    between atoms: C_8  and  N_15
REMARK                            x       y       z     vdW  Elec       q    Type
REMARK                         _______ _______ _______ _____ _____    ______ ____
ROOT
ATOM      1  C   UNL     1       4.547   5.729  17.876  0.00  0.00    +0.000 C 
ENDROOT
BRANCH   1   2
ATOM      2  N   UNL     1       5.592   6.504  17.153  0.00  0.00    +0.000 NA
ATOM      3  C   UNL     1       6.971   6.059  17.497  0.00  0.00    +0.000 C 
ATOM      4  C   UNL     1       7.384   4.682  16.921  0.00  0.00    +0.000 C 
ATOM      5  N   UNL     1       7.237   4.610  15.465  0.00  0.00    +0.000 NA
ATOM      6  C   UNL     1       5.903   5.063  15.050  0.00  0.00    +0.000 C 
ATOM      7  C   UNL     1       5.476   6.415  15.676  0.00  0.00    +0.000 C 
ATOM      8  H   UNL     1       7.397   3.657  15.140  0.00  0.00    +0.000 HD
ENDBRANCH   1   2
BRANCH   1   9
ATOM      9  C   UNL     1       3.372   6.563  18.414  0.00  0.00    +0.000 A 
ATOM     10  C   UNL     1       2.944   7.734  17.766  0.00  0.00    +0.000 A 
ATOM     11  C   UNL     1       2.041   8.599  18.386  0.00  0.00    +0.000 A 
ATOM     12  C   UNL     1       1.539   8.300  19.653  0.00  0.00    +0.000 A 
ATOM     13  C   UNL     1       1.910   7.117  20.285  0.00  0.00    +0.000 A 
ATOM     14  C   UNL     1       2.813   6.249  19.667  0.00  0.00    +0.000 A 
ENDBRANCH   1   9
BRANCH   1  15
ATOM     15  C   UNL     1       5.135   4.951  19.106  0.00  0.00    +0.000 C 
BRANCH  15  16
ATOM     16  O   UNL     1       5.267   3.539  18.896  0.00  0.00    +0.000 OA
BRANCH  16  17
ATOM     17  C   UNL     1       4.748   2.761  19.967  0.00  0.00    +0.000 C 
BRANCH  17  21
ATOM     18  C   UNL     1       0.456   2.920  19.779  0.00  0.00    +0.000 A 
ATOM     19  C   UNL     1       1.103   3.076  21.003  0.00  0.00    +0.000 A 
ATOM     20  C   UNL     1       2.493   3.009  21.064  0.00  0.00    +0.000 A 
ATOM     21  C   UNL     1       3.246   2.786  19.902  0.00  0.00    +0.000 A 
ATOM     22  C   UNL     1       2.588   2.630  18.679  0.00  0.00    +0.000 A 
ATOM     23  C   UNL     1       1.195   2.695  18.619  0.00  0.00    +0.000 A 
ENDBRANCH  17  21
ENDBRANCH  16  17
ENDBRANCH  15  16
ENDBRANCH   1  15
TORSDOF 6
ENDMDL
MODEL 4
REMARK VINA RESULT:      -7.2      0.182      1.467
REMARK  Name = 
REMARK  6 active torsions:
REMARK  status: ('A' for Active; 'I' for Inactive)
REMARK    1  A    between atoms: C_4  and  C_5
REMARK    2  A    between atoms: C_5  and  O_6
REMARK    3  A    between atoms: O_6  and  C_7
REMARK    4  A    between atoms: C_7  and  C_8
REMARK    5  A    between atoms: C_8  and  C_9
REMARK    6  A    between atoms: C_8  and  N_15
REMARK                            x       y       z     vdW  Elec       q    Type
REMARK                         _______ _______ _______ _____ _____    ______ ____
ROOT
ATOM      1  C   UNL     1       4.254   5.292  17.211  0.00  0.00    +0.000 C 
ENDROOT
BRANCH   1   2
ATOM      2  N   UNL     1       5.576   5.042  17.848  0.00  0.00    +0.000 NA
ATOM      3  C   UNL     1       6.543   4.397  16.916  0.00  0.00    +0.000 C 
ATOM      4  C   UNL     1       7.090   5.314  15.795  0.00  0.00    +0.000 C 
ATOM      5  N   UNL     1       7.710   6.537  16.314  0.00  0.00    +0.000 NA
ATOM      6  C   UNL     1       6.818   7.212  17.266  0.00  0.00    +0.000 C 
ATOM      7  C   UNL     1       6.231   6.274  18.350  0.00  0.00    +0.000 C 
ATOM      8  H   UNL     1       7.944   7.168  15.548  0.00  0.00    +0.000 HD
ENDBRANCH   1   2
BRANCH   1   9
ATOM      9  C   UNL     1       3.292   6.170  18.030  0.00  0.00    +0.000 A 
ATOM     10  C   UNL     1       2.914   7.451  17.593  0.00  0.00    +0.000 A 
ATOM     11  C   UNL     1       2.235   8.322  18.448  0.00  0.00    +0.000 A 
ATOM     12  C   UNL     1       1.909   7.921  19.743  0.00  0.00    +0.000 A 
ATOM     13  C   UNL     1       2.227   6.636  20.173  0.00  0.00    +0.000 A 
ATOM     14  C   UNL     1       2.906   5.763  19.320  0.00  0.00    +0.000 A 
ENDBRANCH   1   9
BRANCH   1  15
ATOM     15  C   UNL     1       3.483   3.959  16.908  0.00  0.00    +0.000 C 
BRANCH  15  16
ATOM     16  O   UNL     1       4.092   2.790  17.472  0.00  0.00    +0.000 OA
BRANCH  16  17
ATOM     17  C   UNL     1       3.149   1.804  17.873  0.00  0.00    +0.000 C 
BRANCH  17  21
ATOM     18  C   UNL     1       1.341   3.136  21.539  0.00  0.00    +0.000 A 
ATOM     19  C   UNL     1       2.686   2.775  21.521  0.00  0.00    +0.000 A 
ATOM     20  C   UNL     1       3.267   2.329  20.335  0.00  0.00    +0.000 A 
ATOM     21  C   UNL     1       2.506   2.241  19.160  0.00  0.00    +0.000 A 
ATOM     22  C   UNL     1       1.157   2.605  19.189  0.00  0.00    +0.000 A 
ATOM     23  C   UNL     1       0.575   3.049  20.377  0.00  0.00    +0.000 A 
ENDBRANCH  17  21
ENDBRANCH  16  17
ENDBRANCH  15  16
ENDBRANCH   1  15
TORSDOF 6
ENDMDL
MODEL 5
REMARK VINA RESULT:      -7.2      1.799      4.262
REMARK  Name = 
REMARK  6 active torsions:
REMARK  status: ('A' for Active; 'I' for Inactive)
REMARK    1  A    between atoms: C_4  and  C_5
REMARK    2  A    between atoms: C_5  and  O_6
REMARK    3  A    between atoms: O_6  and  C_7
REMARK    4  A    between atoms: C_7  and  C_8
REMARK    5  A    between atoms: C_8  and  C_9
REMARK    6  A    between atoms: C_8  and  N_15
REMARK                            x       y       z     vdW  Elec       q    Type
REMARK                         _______ _______ _______ _____ _____    ______ ____
ROOT
ATOM      1  C   UNL     1       5.788   4.563  16.242  0.00  0.00    +0.000 C 
ENDROOT
BRANCH   1   2
ATOM      2  N   UNL     1       5.952   5.890  16.896  0.00  0.00    +0.000 NA
ATOM      3  C   UNL     1       5.083   6.045  18.095  0.00  0.00    +0.000 C 
ATOM      4  C   UNL     1       5.510   5.217  19.332  0.00  0.00    +0.000 C 
ATOM      5  N   UNL     1       6.893   5.480  19.740  0.00  0.00    +0.000 NA
ATOM      6  C   UNL     1       7.806   5.371  18.595  0.00  0.00    +0.000 C 
ATOM      7  C   UNL     1       7.341   6.158  17.344  0.00  0.00    +0.000 C 
ATOM      8  H   UNL     1       7.175   4.830  20.473  0.00  0.00    +0.000 HD
ENDBRANCH   1   2
BRANCH   1   9
ATOM      9  C   UNL     1       6.126   4.530  14.741  0.00  0.00    +0.000 A 
ATOM     10  C   UNL     1       5.412   3.717  13.845  0.00  0.00    +0.000 A 
ATOM     11  C   UNL     1       5.875   3.519  12.542  0.00  0.00    +0.000 A 
ATOM     12  C   UNL     1       7.044   4.144  12.110  0.00  0.00    +0.000 A 
ATOM     13  C   UNL     1       7.733   4.996  12.968  0.00  0.00    +0.000 A 
ATOM     14  C   UNL     1       7.273   5.196  14.272  0.00  0.00    +0.000 A 
ENDBRANCH   1   9
BRANCH   1  15
ATOM     15  C   UNL     1       4.322   4.017  16.375  0.00  0.00    +0.000 C 
BRANCH  15  16
ATOM     16  O   UNL     1       4.203   2.861  17.214  0.00  0.00    +0.000 OA
BRANCH  16  17
ATOM     17  C   UNL     1       2.856   2.457  17.424  0.00  0.00    +0.000 C 
BRANCH  17  21
ATOM     18  C   UNL     1       1.628   3.458  21.420  0.00  0.00    +0.000 A 
ATOM     19  C   UNL     1       0.874   3.894  20.334  0.00  0.00    +0.000 A 
ATOM     20  C   UNL     1       1.282   3.582  19.038  0.00  0.00    +0.000 A 
ATOM     21  C   UNL     1       2.447   2.831  18.821  0.00  0.00    +0.000 A 
ATOM     22  C   UNL     1       3.197   2.398  19.918  0.00  0.00    +0.000 A 
ATOM     23  C   UNL     1       2.789   2.713  21.215  0.00  0.00    +0.000 A 
ENDBRANCH  17  21
ENDBRANCH  16  17
ENDBRANCH  15  16
ENDBRANCH   1  15
TORSDOF 6
ENDMDL
MODEL 6
REMARK VINA RESULT:      -7.2      1.532      3.515
REMARK  Name = 
REMARK  6 active torsions:
REMARK  status: ('A' for Active; 'I' for Inactive)
REMARK    1  A    between atoms: C_4  and  C_5
REMARK    2  A    between atoms: C_5  and  O_6
REMARK    3  A    between atoms: O_6  and  C_7
REMARK    4  A    between atoms: C_7  and  C_8
REMARK    5  A    between atoms: C_8  and  C_9
REMARK    6  A    between atoms: C_8  and  N_15
REMARK                            x       y       z     vdW  Elec       q    Type
REMARK                         _______ _______ _______ _____ _____    ______ ____
ROOT
ATOM      1  C   UNL     1       4.274   5.539  17.833  0.00  0.00    +0.000 C 
ENDROOT
BRANCH   1   2
ATOM      2  N   UNL     1       4.759   5.976  16.496  0.00  0.00    +0.000 NA
ATOM      3  C   UNL     1       5.420   7.309  16.537  0.00  0.00    +0.000 C 
ATOM      4  C   UNL     1       6.812   7.335  17.215  0.00  0.00    +0.000 C 
ATOM      5  N   UNL     1       7.753   6.384  16.616  0.00  0.00    +0.000 NA
ATOM      6  C   UNL     1       7.152   5.047  16.517  0.00  0.00    +0.000 C 
ATOM      7  C   UNL     1       5.736   5.039  15.888  0.00  0.00    +0.000 C 
ATOM      8  H   UNL     1       8.610   6.341  17.164  0.00  0.00    +0.000 HD
ENDBRANCH   1   2
BRANCH   1   9
ATOM      9  C   UNL     1       3.987   4.034  17.963  0.00  0.00    +0.000 A 
ATOM     10  C   UNL     1       2.929   3.424  17.268  0.00  0.00    +0.000 A 
ATOM     11  C   UNL     1       2.537   2.119  17.573  0.00  0.00    +0.000 A 
ATOM     12  C   UNL     1       3.207   1.397  18.560  0.00  0.00    +0.000 A 
ATOM     13  C   UNL     1       4.292   1.966  19.219  0.00  0.00    +0.000 A 
ATOM     14  C   UNL     1       4.686   3.272  18.917  0.00  0.00    +0.000 A 
ENDBRANCH   1   9
BRANCH   1  15
ATOM     15  C   UNL     1       2.952   6.277  18.251  0.00  0.00    +0.000 C 
BRANCH  15  16
ATOM     16  O   UNL     1       2.958   6.770  19.597  0.00  0.00    +0.000 OA
BRANCH  16  17
ATOM     17  C   UNL     1       1.720   6.581  20.269  0.00  0.00    +0.000 C 
BRANCH  17  21
ATOM     18  C   UNL     1       1.390   2.416  21.282  0.00  0.00    +0.000 A 
ATOM     19  C   UNL     1       0.537   2.967  20.329  0.00  0.00    +0.000 A 
ATOM     20  C   UNL     1       0.635   4.321  20.014  0.00  0.00    +0.000 A 
ATOM     21  C   UNL     1       1.586   5.132  20.648  0.00  0.00    +0.000 A 
ATOM     22  C   UNL     1       2.438   4.570  21.603  0.00  0.00    +0.000 A 
ATOM     23  C   UNL     1       2.338   3.215  21.921  0.00  0.00    +0.000 A 
ENDBRANCH  17  21
ENDBRANCH  16  17
ENDBRANCH  15  16
ENDBRANCH   1  15
TORSDOF 6
ENDMDL
MODEL 7
REMARK VINA RESULT:      -7.2      1.174      2.096
REMARK  Name = 
REMARK  6 active torsions:
REMARK  status: ('A' for Active; 'I' for Inactive)
REMARK    1  A    between atoms: C_4  and  C_5
REMARK    2  A    between atoms: C_5  and  O_6
REMARK    3  A    between atoms: O_6  and  C_7
REMARK    4  A    between atoms: C_7  and  C_8
REMARK    5  A    between atoms: C_8  and  C_9
REMARK    6  A    between atoms: C_8  and  N_15
REMARK                            x       y       z     vdW  Elec       q    Type
REMARK                         _______ _______ _______ _____ _____    ______ ____
ROOT
ATOM      1  C   UNL     1       4.530   5.788  17.872  0.00  0.00    +0.000 C 
ENDROOT
BRANCH   1   2
ATOM      2  N   UNL     1       5.555   6.556  17.114  0.00  0.00    +0.000 NA
ATOM      3  C   UNL     1       6.944   6.142  17.455  0.00  0.00    +0.000 C 
ATOM      4  C   UNL     1       7.371   4.754  16.917  0.00  0.00    +0.000 C 
ATOM      5  N   UNL     1       7.209   4.634  15.465  0.00  0.00    +0.000 NA
ATOM      6  C   UNL     1       5.863   5.056  15.052  0.00  0.00    +0.000 C 
ATOM      7  C   UNL     1       5.424   6.420  15.642  0.00  0.00    +0.000 C 
ATOM      8  H   UNL     1       7.379   3.675  15.168  0.00  0.00    +0.000 HD
ENDBRANCH   1   2
BRANCH   1   9
ATOM      9  C   UNL     1       3.356   6.624  18.409  0.00  0.00    +0.000 A 
ATOM     10  C   UNL     1       2.922   7.788  17.754  0.00  0.00    +0.000 A 
ATOM     11  C   UNL     1       2.019   8.657  18.372  0.00  0.00    +0.000 A 
ATOM     12  C   UNL     1       1.524   8.367  19.643  0.00  0.00    +0.000 A 
ATOM     13  C   UNL     1       1.901   7.190  20.283  0.00  0.00    +0.000 A 
ATOM     14  C   UNL     1       2.803   6.319  19.667  0.00  0.00    +0.000 A 
ENDBRANCH   1   9
BRANCH   1  15
ATOM     15  C   UNL     1       5.146   5.046  19.110  0.00  0.00    +0.000 C 
BRANCH  15  16
ATOM     16  O   UNL     1       5.310   3.634  18.923  0.00  0.00    +0.000 OA
BRANCH  16  17
ATOM     17  C   UNL     1       4.766   2.860  19.985  0.00  0.00    +0.000 C 
BRANCH  17  21
ATOM     18  C   UNL     1       0.476   2.846  19.710  0.00  0.00    +0.000 A 
ATOM     19  C   UNL     1       1.244   2.660  18.563  0.00  0.00    +0.000 A 
ATOM     20  C   UNL     1       2.635   2.681  18.652  0.00  0.00    +0.000 A 
ATOM     21  C   UNL     1       3.266   2.887  19.887  0.00  0.00    +0.000 A 
ATOM     22  C   UNL     1       2.486   3.073  21.032  0.00  0.00    +0.000 A 
ATOM     23  C   UNL     1       1.093   3.055  20.942  0.00  0.00    +0.000 A 
ENDBRANCH  17  21
ENDBRANCH  16  17
ENDBRANCH  15  16
ENDBRANCH   1  15
TORSDOF 6
ENDMDL
MODEL 8
REMARK VINA RESULT:      -7.2      0.176      1.043
REMARK  Name = 
REMARK  6 active torsions:
REMARK  status: ('A' for Active; 'I' for Inactive)
REMARK    1  A    between atoms: C_4  and  C_5
REMARK    2  A    between atoms: C_5  and  O_6
REMARK    3  A    between atoms: O_6  and  C_7
REMARK    4  A    between atoms: C_7  and  C_8
REMARK    5  A    between atoms: C_8  and  C_9
REMARK    6  A    between atoms: C_8  and  N_15
REMARK                            x       y       z     vdW  Elec       q    Type
REMARK                         _______ _______ _______ _____ _____    ______ ____
ROOT
ATOM      1  C   UNL     1       4.248   5.309  17.187  0.00  0.00    +0.000 C 
ENDROOT
BRANCH   1   2
ATOM      2  N   UNL     1       5.564   5.043  17.828  0.00  0.00    +0.000 NA
ATOM      3  C   UNL     1       6.528   4.387  16.901  0.00  0.00    +0.000 C 
ATOM      4  C   UNL     1       7.090   5.298  15.782  0.00  0.00    +0.000 C 
ATOM      5  N   UNL     1       7.722   6.513  16.303  0.00  0.00    +0.000 NA
ATOM      6  C   UNL     1       6.834   7.199  17.252  0.00  0.00    +0.000 C 
ATOM      7  C   UNL     1       6.232   6.268  18.334  0.00  0.00    +0.000 C 
ATOM      8  H   UNL     1       7.966   7.142  15.539  0.00  0.00    +0.000 HD
ENDBRANCH   1   2
BRANCH   1   9
ATOM      9  C   UNL     1       3.290   6.192  18.005  0.00  0.00    +0.000 A 
ATOM     10  C   UNL     1       2.912   7.471  17.565  0.00  0.00    +0.000 A 
ATOM     11  C   UNL     1       2.237   8.346  18.419  0.00  0.00    +0.000 A 
ATOM     12  C   UNL     1       1.914   7.951  19.716  0.00  0.00    +0.000 A 
ATOM     13  C   UNL     1       2.232   6.667  20.150  0.00  0.00    +0.000 A 
ATOM     14  C   UNL     1       2.907   5.789  19.298  0.00  0.00    +0.000 A 
ENDBRANCH   1   9
BRANCH   1  15
ATOM     15  C   UNL     1       3.467   3.984  16.873  0.00  0.00    +0.000 C 
BRANCH  15  16
ATOM     16  O   UNL     1       4.080   2.803  17.406  0.00  0.00    +0.000 OA
BRANCH  16  17
ATOM     17  C   UNL     1       3.139   1.835  17.852  0.00  0.00    +0.000 C 
BRANCH  17  21
ATOM     18  C   UNL     1       1.360   3.103  21.554  0.00  0.00    +0.000 A 
ATOM     19  C   UNL     1       0.582   3.026  20.401  0.00  0.00    +0.000 A 
ATOM     20  C   UNL     1       1.164   2.630  19.199  0.00  0.00    +0.000 A 
ATOM     21  C   UNL     1       2.527   2.308  19.141  0.00  0.00    +0.000 A 
ATOM     22  C   UNL     1       3.300   2.389  20.303  0.00  0.00    +0.000 A 
ATOM     23  C   UNL     1       2.718   2.788  21.506  0.00  0.00    +0.000 A 
ENDBRANCH  17  21
ENDBRANCH  16  17
ENDBRANCH  15  16
ENDBRANCH   1  15
TORSDOF 6
ENDMDL
MODEL 9
REMARK VINA RESULT:      -7.1      1.308      1.723
REMARK  Name = 
REMARK  6 active torsions:
REMARK  status: ('A' for Active; 'I' for Inactive)
REMARK    1  A    between atoms: C_4  and  C_5
REMARK    2  A    between atoms: C_5  and  O_6
REMARK    3  A    between atoms: O_6  and  C_7
REMARK    4  A    between atoms: C_7  and  C_8
REMARK    5  A    between atoms: C_8  and  C_9
REMARK    6  A    between atoms: C_8  and  N_15
REMARK                            x       y       z     vdW  Elec       q    Type
REMARK                         _______ _______ _______ _____ _____    ______ ____
ROOT
ATOM      1  C   UNL     1       4.735   5.879  17.801  0.00  0.00    +0.000 C 
ENDROOT
BRANCH   1   2
ATOM      2  N   UNL     1       5.665   6.473  16.802  0.00  0.00    +0.000 NA
ATOM      3  C   UNL     1       7.061   5.980  16.962  0.00  0.00    +0.000 C 
ATOM      4  C   UNL     1       7.297   4.512  16.529  0.00  0.00    +0.000 C 
ATOM      5  N   UNL     1       6.884   4.255  15.147  0.00  0.00    +0.000 NA
ATOM      6  C   UNL     1       5.519   4.744  14.909  0.00  0.00    +0.000 C 
ATOM      7  C   UNL     1       5.277   6.195  15.397  0.00  0.00    +0.000 C 
ATOM      8  H   UNL     1       6.937   3.258  14.941  0.00  0.00    +0.000 HD
ENDBRANCH   1   2
BRANCH   1   9
ATOM      9  C   UNL     1       3.687   6.850  18.374  0.00  0.00    +0.000 A 
ATOM     10  C   UNL     1       3.069   6.616  19.613  0.00  0.00    +0.000 A 
ATOM     11  C   UNL     1       1.962   7.370  20.009  0.00  0.00    +0.000 A 
ATOM     12  C   UNL     1       1.470   8.381  19.183  0.00  0.00    +0.000 A 
ATOM     13  C   UNL     1       2.106   8.663  17.977  0.00  0.00    +0.000 A 
ATOM     14  C   UNL     1       3.213   7.909  17.579  0.00  0.00    +0.000 A 
ENDBRANCH   1   9
BRANCH   1  15
ATOM     15  C   UNL     1       5.498   5.277  19.033  0.00  0.00    +0.000 C 
BRANCH  15  16
ATOM     16  O   UNL     1       5.444   3.847  19.113  0.00  0.00    +0.000 OA
BRANCH  16  17
ATOM     17  C   UNL     1       4.335   3.288  18.420  0.00  0.00    +0.000 C 
BRANCH  17  21
ATOM     18  C   UNL     1       1.009   2.861  21.108  0.00  0.00    +0.000 A 
ATOM     19  C   UNL     1       0.784   3.199  19.776  0.00  0.00    +0.000 A 
ATOM     20  C   UNL     1       1.865   3.352  18.910  0.00  0.00    +0.000 A 
ATOM     21  C   UNL     1       3.177   3.168  19.369  0.00  0.00    +0.000 A 
ATOM     22  C   UNL     1       3.392   2.830  20.709  0.00  0.00    +0.000 A 
ATOM     23  C   UNL     1       2.309   2.680  21.577  0.00  0.00    +0.000 A 
ENDBRANCH  17  21
ENDBRANCH  16  17
ENDBRANCH  15  16
ENDBRANCH   1  15
TORSDOF 6
ENDMDL
