MODEL 1
REMARK VINA RESULT:      -7.2      0.000      0.000
REMARK  Name = 
REMARK  7 active torsions:
REMARK  status: ('A' for Active; 'I' for Inactive)
REMARK    1  A    between atoms: C_2  and  O_4
REMARK    2  A    between atoms: O_4  and  C_5
REMARK    3  A    between atoms: C_10  and  C_11
REMARK    4  A    between atoms: N_12  and  N_13
REMARK    5  A    between atoms: C_14  and  C_15
REMARK    6  A    between atoms: N_28  and  C_29
REMARK    7  A    between atoms: C_29  and  C_30
REMARK                            x       y       z     vdW  Elec       q    Type
REMARK                         _______ _______ _______ _____ _____    ______ ____
ROOT
ATOM      1  N   UNL     1       0.045  10.295  20.285  0.00  0.00    +0.000 N 
ATOM      2  C   UNL     1      -0.336  10.788  21.549  0.00  0.00    +0.000 A 
ATOM      3  C   UNL     1       0.282  10.245  22.608  0.00  0.00    +0.000 A 
ATOM      4  S   UNL     1       1.408   9.030  22.139  0.00  0.00    +0.000 S 
ATOM      5  C   UNL     1       0.956   9.218  20.390  0.00  0.00    +0.000 A 
ATOM      6  N   UNL     1       1.415   8.442  19.466  0.00  0.00    +0.000 NA
ENDROOT
BRANCH   2   7
ATOM      7  C   UNL     1      -1.392  11.770  21.779  0.00  0.00    +0.000 A 
ATOM      8  C   UNL     1      -1.425  12.994  21.105  0.00  0.00    +0.000 A 
ATOM      9  C   UNL     1      -2.378  13.962  21.448  0.00  0.00    +0.000 A 
ATOM     10  C   UNL     1      -3.300  13.705  22.464  0.00  0.00    +0.000 A 
ATOM     11  C   UNL     1      -3.239  12.505  23.165  0.00  0.00    +0.000 A 
ATOM     12  C   UNL     1      -2.312  11.532  22.813  0.00  0.00    +0.000 A 
ATOM     13  O   UNL     1      -4.039  12.233  24.238  0.00  0.00    +0.000 OA
ATOM     14  C   UNL     1      -5.316  12.817  24.014  0.00  0.00    +0.000 C 
ATOM     15  C   UNL     1      -5.226  14.303  23.681  0.00  0.00    +0.000 C 
ATOM     16  O   UNL     1      -4.242  14.663  22.704  0.00  0.00    +0.000 OA
ENDBRANCH   2   7
BRANCH   1  18
ATOM     17  C   UNL     1      -1.736  10.018  18.852  0.00  0.00    +0.000 C 
ATOM     18  N   UNL     1      -0.665  10.683  19.165  0.00  0.00    +0.000 NA
BRANCH  17  24
ATOM     19  C   UNL     1      -3.581  11.288  17.674  0.00  0.00    +0.000 A 
ATOM     20  C   UNL     1      -4.257  11.613  16.482  0.00  0.00    +0.000 A 
ATOM     21  C   UNL     1      -3.922  10.989  15.281  0.00  0.00    +0.000 A 
ATOM     22  C   UNL     1      -2.888  10.056  15.252  0.00  0.00    +0.000 A 
ATOM     23  C   UNL     1      -2.181   9.769  16.413  0.00  0.00    +0.000 A 
ATOM     24  C   UNL     1      -2.508  10.381  17.631  0.00  0.00    +0.000 A 
BRANCH  19  25
ATOM     25  O   UNL     1      -3.922  11.828  18.886  0.00  0.00    +0.000 OA
BRANCH  25  27
ATOM     26  F   UNL     1      -5.776  10.574  18.998  0.00  0.00    +0.000 F 
ATOM     27  C   UNL     1      -5.317  11.839  19.160  0.00  0.00    +0.000 C 
ATOM     28  F   UNL     1      -5.502  12.158  20.466  0.00  0.00    +0.000 F 
ENDBRANCH  25  27
ENDBRANCH  19  25
ENDBRANCH  17  24
ENDBRANCH   1  18
BRANCH   6  29
ATOM     29  C   UNL     1       2.326   7.368  19.877  0.00  0.00    +0.000 C 
BRANCH  29  30
ATOM     30  C   UNL     1       1.768   6.005  19.483  0.00  0.00    +0.000 C 
ATOM     31  C   UNL     1       1.606   5.055  20.659  0.00  0.00    +0.000 C 
ATOM     32  C   UNL     1       1.800   3.713  20.000  0.00  0.00    +0.000 C 
ATOM     33  C   UNL     1       2.884   4.015  18.991  0.00  0.00    +0.000 C 
ATOM     34  O   UNL     1       2.681   5.367  18.563  0.00  0.00    +0.000 OA
ENDBRANCH  29  30
ENDBRANCH   6  29
TORSDOF 7
ENDMDL
MODEL 2
REMARK VINA RESULT:      -6.9      0.926      1.145
REMARK  Name = 
REMARK  7 active torsions:
REMARK  status: ('A' for Active; 'I' for Inactive)
REMARK    1  A    between atoms: C_2  and  O_4
REMARK    2  A    between atoms: O_4  and  C_5
REMARK    3  A    between atoms: C_10  and  C_11
REMARK    4  A    between atoms: N_12  and  N_13
REMARK    5  A    between atoms: C_14  and  C_15
REMARK    6  A    between atoms: N_28  and  C_29
REMARK    7  A    between atoms: C_29  and  C_30
REMARK                            x       y       z     vdW  Elec       q    Type
REMARK                         _______ _______ _______ _____ _____    ______ ____
ROOT
ATOM      1  N   UNL     1      -0.497  10.554  20.600  0.00  0.00    +0.000 N 
ATOM      2  C   UNL     1      -1.013  11.209  21.736  0.00  0.00    +0.000 A 
ATOM      3  C   UNL     1      -0.565  10.778  22.924  0.00  0.00    +0.000 A 
ATOM      4  S   UNL     1       0.547   9.475  22.755  0.00  0.00    +0.000 S 
ATOM      5  C   UNL     1       0.335   9.465  20.952  0.00  0.00    +0.000 A 
ATOM      6  N   UNL     1       0.869   8.567  20.194  0.00  0.00    +0.000 NA
ENDROOT
BRANCH   2   7
ATOM      7  C   UNL     1      -2.037  12.250  21.706  0.00  0.00    +0.000 A 
ATOM      8  C   UNL     1      -1.942  13.358  20.860  0.00  0.00    +0.000 A 
ATOM      9  C   UNL     1      -2.877  14.398  20.954  0.00  0.00    +0.000 A 
ATOM     10  C   UNL     1      -3.907  14.328  21.894  0.00  0.00    +0.000 A 
ATOM     11  C   UNL     1      -3.974  13.247  22.766  0.00  0.00    +0.000 A 
ATOM     12  C   UNL     1      -3.065  12.202  22.661  0.00  0.00    +0.000 A 
ATOM     13  O   UNL     1      -4.889  13.167  23.778  0.00  0.00    +0.000 OA
ATOM     14  C   UNL     1      -6.108  13.753  23.337  0.00  0.00    +0.000 C 
ATOM     15  C   UNL     1      -5.913  15.168  22.800  0.00  0.00    +0.000 C 
ATOM     16  O   UNL     1      -4.820  15.343  21.890  0.00  0.00    +0.000 OA
ENDBRANCH   2   7
BRANCH   1  18
ATOM     17  C   UNL     1      -2.076  10.153  18.973  0.00  0.00    +0.000 C 
ATOM     18  N   UNL     1      -1.034  10.828  19.357  0.00  0.00    +0.000 NA
BRANCH  17  24
ATOM     19  C   UNL     1      -3.722  11.294  17.427  0.00  0.00    +0.000 A 
ATOM     20  C   UNL     1      -4.218  11.499  16.125  0.00  0.00    +0.000 A 
ATOM     21  C   UNL     1      -3.721  10.763  15.050  0.00  0.00    +0.000 A 
ATOM     22  C   UNL     1      -2.702   9.836  15.259  0.00  0.00    +0.000 A 
ATOM     23  C   UNL     1      -2.170   9.666  16.532  0.00  0.00    +0.000 A 
ATOM     24  C   UNL     1      -2.662  10.393  17.625  0.00  0.00    +0.000 A 
BRANCH  19  25
ATOM     25  O   UNL     1      -4.227  11.948  18.519  0.00  0.00    +0.000 OA
BRANCH  25  27
ATOM     26  F   UNL     1      -5.700  10.267  18.686  0.00  0.00    +0.000 F 
ATOM     27  C   UNL     1      -5.568  11.606  18.849  0.00  0.00    +0.000 C 
ATOM     28  F   UNL     1      -5.772  11.863  20.165  0.00  0.00    +0.000 F 
ENDBRANCH  25  27
ENDBRANCH  19  25
ENDBRANCH  17  24
ENDBRANCH   1  18
BRANCH   6  29
ATOM     29  C   UNL     1       1.663   7.518  20.846  0.00  0.00    +0.000 C 
BRANCH  29  30
ATOM     30  C   UNL     1       2.615   6.864  19.851  0.00  0.00    +0.000 C 
ATOM     31  C   UNL     1       2.171   7.009  18.404  0.00  0.00    +0.000 C 
ATOM     32  C   UNL     1       2.741   5.761  17.780  0.00  0.00    +0.000 C 
ATOM     33  C   UNL     1       2.541   4.743  18.879  0.00  0.00    +0.000 C 
ATOM     34  O   UNL     1       2.681   5.446  20.120  0.00  0.00    +0.000 OA
ENDBRANCH  29  30
ENDBRANCH   6  29
TORSDOF 7
ENDMDL
MODEL 3
REMARK VINA RESULT:      -6.8      1.085      1.779
REMARK  Name = 
REMARK  7 active torsions:
REMARK  status: ('A' for Active; 'I' for Inactive)
REMARK    1  A    between atoms: C_2  and  O_4
REMARK    2  A    between atoms: O_4  and  C_5
REMARK    3  A    between atoms: C_10  and  C_11
REMARK    4  A    between atoms: N_12  and  N_13
REMARK    5  A    between atoms: C_14  and  C_15
REMARK    6  A    between atoms: N_28  and  C_29
REMARK    7  A    between atoms: C_29  and  C_30
REMARK                            x       y       z     vdW  Elec       q    Type
REMARK                         _______ _______ _______ _____ _____    ______ ____
ROOT
ATOM      1  N   UNL     1       0.096  10.304  20.323  0.00  0.00    +0.000 N 
ATOM      2  C   UNL     1      -0.175  10.756  21.630  0.00  0.00    +0.000 A 
ATOM      3  C   UNL     1       0.512  10.164  22.617  0.00  0.00    +0.000 A 
ATOM      4  S   UNL     1       1.571   8.946  22.020  0.00  0.00    +0.000 S 
ATOM      5  C   UNL     1       0.989   9.206  20.320  0.00  0.00    +0.000 A 
ATOM      6  N   UNL     1       1.358   8.456  19.336  0.00  0.00    +0.000 NA
ENDROOT
BRANCH   2   7
ATOM      7  C   UNL     1      -1.189  11.749  21.977  0.00  0.00    +0.000 A 
ATOM      8  C   UNL     1      -2.174  11.496  22.935  0.00  0.00    +0.000 A 
ATOM      9  C   UNL     1      -3.205  12.422  23.146  0.00  0.00    +0.000 A 
ATOM     10  C   UNL     1      -3.249  13.600  22.399  0.00  0.00    +0.000 A 
ATOM     11  C   UNL     1      -2.295  13.829  21.414  0.00  0.00    +0.000 A 
ATOM     12  C   UNL     1      -1.257  12.928  21.218  0.00  0.00    +0.000 A 
ATOM     13  O   UNL     1      -2.340  14.907  20.575  0.00  0.00    +0.000 OA
ATOM     14  C   UNL     1      -2.846  16.024  21.296  0.00  0.00    +0.000 C 
ATOM     15  C   UNL     1      -4.177  15.724  21.977  0.00  0.00    +0.000 C 
ATOM     16  O   UNL     1      -4.243  14.488  22.698  0.00  0.00    +0.000 OA
ENDBRANCH   2   7
BRANCH   1  18
ATOM     17  C   UNL     1      -1.679   9.998  18.890  0.00  0.00    +0.000 C 
ATOM     18  N   UNL     1      -0.689  10.745  19.277  0.00  0.00    +0.000 NA
BRANCH  17  24
ATOM     19  C   UNL     1      -3.610  11.303  17.902  0.00  0.00    +0.000 A 
ATOM     20  C   UNL     1      -4.359  11.688  16.774  0.00  0.00    +0.000 A 
ATOM     21  C   UNL     1      -4.086  11.147  15.519  0.00  0.00    +0.000 A 
ATOM     22  C   UNL     1      -3.041  10.236  15.372  0.00  0.00    +0.000 A 
ATOM     23  C   UNL     1      -2.262   9.892  16.470  0.00  0.00    +0.000 A 
ATOM     24  C   UNL     1      -2.527  10.421  17.741  0.00  0.00    +0.000 A 
BRANCH  19  25
ATOM     25  O   UNL     1      -3.887  11.761  19.163  0.00  0.00    +0.000 OA
BRANCH  25  27
ATOM     26  F   UNL     1      -5.718  11.699  20.453  0.00  0.00    +0.000 F 
ATOM     27  C   UNL     1      -5.205  12.267  19.335  0.00  0.00    +0.000 C 
ATOM     28  F   UNL     1      -5.132  13.601  19.571  0.00  0.00    +0.000 F 
ENDBRANCH  25  27
ENDBRANCH  19  25
ENDBRANCH  17  24
ENDBRANCH   1  18
BRANCH   6  29
ATOM     29  C   UNL     1       2.275   7.351  19.636  0.00  0.00    +0.000 C 
BRANCH  29  30
ATOM     30  C   UNL     1       2.567   6.534  18.383  0.00  0.00    +0.000 C 
ATOM     31  C   UNL     1       2.156   5.075  18.503  0.00  0.00    +0.000 C 
ATOM     32  C   UNL     1       3.151   4.399  17.595  0.00  0.00    +0.000 C 
ATOM     33  C   UNL     1       4.407   5.198  17.859  0.00  0.00    +0.000 C 
ATOM     34  O   UNL     1       3.989   6.541  18.131  0.00  0.00    +0.000 OA
ENDBRANCH  29  30
ENDBRANCH   6  29
TORSDOF 7
ENDMDL
MODEL 4
REMARK VINA RESULT:      -6.7      3.761      7.295
REMARK  Name = 
REMARK  7 active torsions:
REMARK  status: ('A' for Active; 'I' for Inactive)
REMARK    1  A    between atoms: C_2  and  O_4
REMARK    2  A    between atoms: O_4  and  C_5
REMARK    3  A    between atoms: C_10  and  C_11
REMARK    4  A    between atoms: N_12  and  N_13
REMARK    5  A    between atoms: C_14  and  C_15
REMARK    6  A    between atoms: N_28  and  C_29
REMARK    7  A    between atoms: C_29  and  C_30
REMARK                            x       y       z     vdW  Elec       q    Type
REMARK                         _______ _______ _______ _____ _____    ______ ____
ROOT
ATOM      1  N   UNL     1      -1.644  12.703  21.565  0.00  0.00    +0.000 N 
ATOM      2  C   UNL     1      -0.589  13.630  21.674  0.00  0.00    +0.000 A 
ATOM      3  C   UNL     1      -0.626  14.449  22.735  0.00  0.00    +0.000 A 
ATOM      4  S   UNL     1      -2.011  14.163  23.717  0.00  0.00    +0.000 S 
ATOM      5  C   UNL     1      -2.622  12.895  22.570  0.00  0.00    +0.000 A 
ATOM      6  N   UNL     1      -3.775  12.331  22.707  0.00  0.00    +0.000 NA
ENDROOT
BRANCH   2   7
ATOM      7  C   UNL     1       0.474  13.806  20.688  0.00  0.00    +0.000 A 
ATOM      8  C   UNL     1       1.298  12.749  20.292  0.00  0.00    +0.000 A 
ATOM      9  C   UNL     1       2.388  12.986  19.444  0.00  0.00    +0.000 A 
ATOM     10  C   UNL     1       2.652  14.279  18.989  0.00  0.00    +0.000 A 
ATOM     11  C   UNL     1       1.858  15.337  19.420  0.00  0.00    +0.000 A 
ATOM     12  C   UNL     1       0.762  15.104  20.241  0.00  0.00    +0.000 A 
ATOM     13  O   UNL     1       2.123  16.639  19.101  0.00  0.00    +0.000 OA
ATOM     14  C   UNL     1       2.651  16.686  17.781  0.00  0.00    +0.000 C 
ATOM     15  C   UNL     1       3.847  15.757  17.598  0.00  0.00    +0.000 C 
ATOM     16  O   UNL     1       3.689  14.430  18.114  0.00  0.00    +0.000 OA
ENDBRANCH   2   7
BRANCH   1  18
ATOM     17  C   UNL     1      -2.656  12.293  19.538  0.00  0.00    +0.000 C 
ATOM     18  N   UNL     1      -1.764  11.945  20.417  0.00  0.00    +0.000 NA
BRANCH  17  24
ATOM     19  C   UNL     1      -4.036  11.516  17.565  0.00  0.00    +0.000 A 
ATOM     20  C   UNL     1      -4.144  10.745  16.391  0.00  0.00    +0.000 A 
ATOM     21  C   UNL     1      -3.111   9.893  16.001  0.00  0.00    +0.000 A 
ATOM     22  C   UNL     1      -1.947   9.825  16.764  0.00  0.00    +0.000 A 
ATOM     23  C   UNL     1      -1.811  10.622  17.894  0.00  0.00    +0.000 A 
ATOM     24  C   UNL     1      -2.841  11.479  18.304  0.00  0.00    +0.000 A 
BRANCH  19  25
ATOM     25  O   UNL     1      -5.052  12.315  18.017  0.00  0.00    +0.000 OA
BRANCH  25  27
ATOM     26  F   UNL     1      -7.143  11.589  17.661  0.00  0.00    +0.000 F 
ATOM     27  C   UNL     1      -6.151  11.614  18.585  0.00  0.00    +0.000 C 
ATOM     28  F   UNL     1      -5.782  10.325  18.798  0.00  0.00    +0.000 F 
ENDBRANCH  25  27
ENDBRANCH  19  25
ENDBRANCH  17  24
ENDBRANCH   1  18
BRANCH   6  29
ATOM     29  C   UNL     1      -4.607  12.761  23.836  0.00  0.00    +0.000 C 
BRANCH  29  30
ATOM     30  C   UNL     1      -5.900  13.400  23.342  0.00  0.00    +0.000 C 
ATOM     31  C   UNL     1      -5.983  14.892  23.624  0.00  0.00    +0.000 C 
ATOM     32  C   UNL     1      -7.469  15.096  23.769  0.00  0.00    +0.000 C 
ATOM     33  C   UNL     1      -7.889  13.832  24.485  0.00  0.00    +0.000 C 
ATOM     34  O   UNL     1      -7.020  12.792  24.022  0.00  0.00    +0.000 OA
ENDBRANCH  29  30
ENDBRANCH   6  29
TORSDOF 7
ENDMDL
MODEL 5
REMARK VINA RESULT:      -6.7      2.199      7.245
REMARK  Name = 
REMARK  7 active torsions:
REMARK  status: ('A' for Active; 'I' for Inactive)
REMARK    1  A    between atoms: C_2  and  O_4
REMARK    2  A    between atoms: O_4  and  C_5
REMARK    3  A    between atoms: C_10  and  C_11
REMARK    4  A    between atoms: N_12  and  N_13
REMARK    5  A    between atoms: C_14  and  C_15
REMARK    6  A    between atoms: N_28  and  C_29
REMARK    7  A    between atoms: C_29  and  C_30
REMARK                            x       y       z     vdW  Elec       q    Type
REMARK                         _______ _______ _______ _____ _____    ______ ____
ROOT
ATOM      1  N   UNL     1      -1.914  12.289  20.760  0.00  0.00    +0.000 N 
ATOM      2  C   UNL     1      -1.040  11.526  21.561  0.00  0.00    +0.000 A 
ATOM      3  C   UNL     1      -0.859  11.957  22.817  0.00  0.00    +0.000 A 
ATOM      4  S   UNL     1      -1.753  13.392  23.138  0.00  0.00    +0.000 S 
ATOM      5  C   UNL     1      -2.358  13.455  21.427  0.00  0.00    +0.000 A 
ATOM      6  N   UNL     1      -3.050  14.445  20.970  0.00  0.00    +0.000 NA
ENDROOT
BRANCH   2   7
ATOM      7  C   UNL     1      -0.277  10.370  21.097  0.00  0.00    +0.000 A 
ATOM      8  C   UNL     1      -0.103   9.233  21.890  0.00  0.00    +0.000 A 
ATOM      9  C   UNL     1       0.743   8.200  21.464  0.00  0.00    +0.000 A 
ATOM     10  C   UNL     1       1.412   8.305  20.243  0.00  0.00    +0.000 A 
ATOM     11  C   UNL     1       1.274   9.457  19.476  0.00  0.00    +0.000 A 
ATOM     12  C   UNL     1       0.418  10.472  19.882  0.00  0.00    +0.000 A 
ATOM     13  O   UNL     1       1.981   9.671  18.327  0.00  0.00    +0.000 OA
ATOM     14  C   UNL     1       2.143   8.428  17.654  0.00  0.00    +0.000 C 
ATOM     15  C   UNL     1       2.747   7.353  18.551  0.00  0.00    +0.000 C 
ATOM     16  O   UNL     1       2.170   7.236  19.857  0.00  0.00    +0.000 OA
ENDBRANCH   2   7
BRANCH   1  18
ATOM     17  C   UNL     1      -3.042  11.317  19.005  0.00  0.00    +0.000 C 
ATOM     18  N   UNL     1      -2.019  12.006  19.412  0.00  0.00    +0.000 NA
BRANCH  17  24
ATOM     19  C   UNL     1      -4.231  11.438  16.774  0.00  0.00    +0.000 A 
ATOM     20  C   UNL     1      -4.288  11.087  15.411  0.00  0.00    +0.000 A 
ATOM     21  C   UNL     1      -3.350  10.213  14.862  0.00  0.00    +0.000 A 
ATOM     22  C   UNL     1      -2.329   9.704  15.662  0.00  0.00    +0.000 A 
ATOM     23  C   UNL     1      -2.235  10.087  16.994  0.00  0.00    +0.000 A 
ATOM     24  C   UNL     1      -3.172  10.960  17.565  0.00  0.00    +0.000 A 
BRANCH  19  25
ATOM     25  O   UNL     1      -5.169  12.241  17.368  0.00  0.00    +0.000 OA
BRANCH  25  27
ATOM     26  F   UNL     1      -6.377  11.675  19.169  0.00  0.00    +0.000 F 
ATOM     27  C   UNL     1      -6.333  11.560  17.819  0.00  0.00    +0.000 C 
ATOM     28  F   UNL     1      -7.427  12.202  17.336  0.00  0.00    +0.000 F 
ENDBRANCH  25  27
ENDBRANCH  19  25
ENDBRANCH  17  24
ENDBRANCH   1  18
BRANCH   6  29
ATOM     29  C   UNL     1      -3.332  15.553  21.890  0.00  0.00    +0.000 C 
BRANCH  29  30
ATOM     30  C   UNL     1      -4.828  15.656  22.167  0.00  0.00    +0.000 C 
ATOM     31  C   UNL     1      -5.151  16.070  23.594  0.00  0.00    +0.000 C 
ATOM     32  C   UNL     1      -6.480  15.396  23.818  0.00  0.00    +0.000 C 
ATOM     33  C   UNL     1      -6.294  14.088  23.083  0.00  0.00    +0.000 C 
ATOM     34  O   UNL     1      -5.438  14.362  21.967  0.00  0.00    +0.000 OA
ENDBRANCH  29  30
ENDBRANCH   6  29
TORSDOF 7
ENDMDL
MODEL 6
REMARK VINA RESULT:      -6.6      4.033      7.528
REMARK  Name = 
REMARK  7 active torsions:
REMARK  status: ('A' for Active; 'I' for Inactive)
REMARK    1  A    between atoms: C_2  and  O_4
REMARK    2  A    between atoms: O_4  and  C_5
REMARK    3  A    between atoms: C_10  and  C_11
REMARK    4  A    between atoms: N_12  and  N_13
REMARK    5  A    between atoms: C_14  and  C_15
REMARK    6  A    between atoms: N_28  and  C_29
REMARK    7  A    between atoms: C_29  and  C_30
REMARK                            x       y       z     vdW  Elec       q    Type
REMARK                         _______ _______ _______ _____ _____    ______ ____
ROOT
ATOM      1  N   UNL     1      -2.453  12.397  19.195  0.00  0.00    +0.000 N 
ATOM      2  C   UNL     1      -1.222  12.016  18.625  0.00  0.00    +0.000 A 
ATOM      3  C   UNL     1      -1.284  11.137  17.614  0.00  0.00    +0.000 A 
ATOM      4  S   UNL     1      -2.904  10.666  17.272  0.00  0.00    +0.000 S 
ATOM      5  C   UNL     1      -3.537  11.675  18.644  0.00  0.00    +0.000 A 
ATOM      6  N   UNL     1      -4.776  11.659  19.004  0.00  0.00    +0.000 NA
ENDROOT
BRANCH   2   7
ATOM      7  C   UNL     1       0.089  12.445  19.103  0.00  0.00    +0.000 A 
ATOM      8  C   UNL     1       0.631  11.971  20.302  0.00  0.00    +0.000 A 
ATOM      9  C   UNL     1       1.831  12.505  20.791  0.00  0.00    +0.000 A 
ATOM     10  C   UNL     1       2.490  13.509  20.081  0.00  0.00    +0.000 A 
ATOM     11  C   UNL     1       1.927  14.012  18.912  0.00  0.00    +0.000 A 
ATOM     12  C   UNL     1       0.751  13.470  18.410  0.00  0.00    +0.000 A 
ATOM     13  O   UNL     1       2.462  15.066  18.227  0.00  0.00    +0.000 OA
ATOM     14  C   UNL     1       3.879  14.995  18.315  0.00  0.00    +0.000 C 
ATOM     15  C   UNL     1       4.369  14.893  19.756  0.00  0.00    +0.000 C 
ATOM     16  O   UNL     1       3.686  13.939  20.580  0.00  0.00    +0.000 OA
ENDBRANCH   2   7
BRANCH   1  18
ATOM     17  C   UNL     1      -2.742  12.586  21.471  0.00  0.00    +0.000 C 
ATOM     18  N   UNL     1      -2.458  13.165  20.343  0.00  0.00    +0.000 NA
BRANCH  17  24
ATOM     19  C   UNL     1      -3.886  13.313  23.608  0.00  0.00    +0.000 A 
ATOM     20  C   UNL     1      -3.868  14.074  24.793  0.00  0.00    +0.000 A 
ATOM     21  C   UNL     1      -2.818  14.951  25.059  0.00  0.00    +0.000 A 
ATOM     22  C   UNL     1      -1.760  15.057  24.159  0.00  0.00    +0.000 A 
ATOM     23  C   UNL     1      -1.744  14.270  23.013  0.00  0.00    +0.000 A 
ATOM     24  C   UNL     1      -2.795  13.387  22.726  0.00  0.00    +0.000 A 
BRANCH  19  25
ATOM     25  O   UNL     1      -4.929  12.488  23.278  0.00  0.00    +0.000 OA
BRANCH  25  27
ATOM     26  F   UNL     1      -6.764  13.587  22.609  0.00  0.00    +0.000 F 
ATOM     27  C   UNL     1      -6.210  12.961  23.676  0.00  0.00    +0.000 C 
ATOM     28  F   UNL     1      -6.999  11.894  23.958  0.00  0.00    +0.000 F 
ENDBRANCH  25  27
ENDBRANCH  19  25
ENDBRANCH  17  24
ENDBRANCH   1  18
BRANCH   6  29
ATOM     29  C   UNL     1      -5.683  10.772  18.266  0.00  0.00    +0.000 C 
BRANCH  29  30
ATOM     30  C   UNL     1      -6.987  10.575  19.031  0.00  0.00    +0.000 C 
ATOM     31  C   UNL     1      -6.981  11.212  20.411  0.00  0.00    +0.000 C 
ATOM     32  C   UNL     1      -7.916  10.308  21.172  0.00  0.00    +0.000 C 
ATOM     33  C   UNL     1      -7.572   8.951  20.602  0.00  0.00    +0.000 C 
ATOM     34  O   UNL     1      -7.210   9.162  19.232  0.00  0.00    +0.000 OA
ENDBRANCH  29  30
ENDBRANCH   6  29
TORSDOF 7
ENDMDL
MODEL 7
REMARK VINA RESULT:      -6.6      3.719      7.005
REMARK  Name = 
REMARK  7 active torsions:
REMARK  status: ('A' for Active; 'I' for Inactive)
REMARK    1  A    between atoms: C_2  and  O_4
REMARK    2  A    between atoms: O_4  and  C_5
REMARK    3  A    between atoms: C_10  and  C_11
REMARK    4  A    between atoms: N_12  and  N_13
REMARK    5  A    between atoms: C_14  and  C_15
REMARK    6  A    between atoms: N_28  and  C_29
REMARK    7  A    between atoms: C_29  and  C_30
REMARK                            x       y       z     vdW  Elec       q    Type
REMARK                         _______ _______ _______ _____ _____    ______ ____
ROOT
ATOM      1  N   UNL     1      -1.606  13.179  22.059  0.00  0.00    +0.000 N 
ATOM      2  C   UNL     1      -0.808  14.339  22.112  0.00  0.00    +0.000 A 
ATOM      3  C   UNL     1      -1.037  15.170  23.139  0.00  0.00    +0.000 A 
ATOM      4  S   UNL     1      -2.304  14.600  24.155  0.00  0.00    +0.000 S 
ATOM      5  C   UNL     1      -2.595  13.172  23.071  0.00  0.00    +0.000 A 
ATOM      6  N   UNL     1      -3.575  12.351  23.250  0.00  0.00    +0.000 NA
ENDROOT
BRANCH   2   7
ATOM      7  C   UNL     1       0.174  14.725  21.102  0.00  0.00    +0.000 A 
ATOM      8  C   UNL     1      -0.199  15.346  19.907  0.00  0.00    +0.000 A 
ATOM      9  C   UNL     1       0.756  15.582  18.908  0.00  0.00    +0.000 A 
ATOM     10  C   UNL     1       2.083  15.198  19.106  0.00  0.00    +0.000 A 
ATOM     11  C   UNL     1       2.444  14.538  20.277  0.00  0.00    +0.000 A 
ATOM     12  C   UNL     1       1.508  14.324  21.279  0.00  0.00    +0.000 A 
ATOM     13  O   UNL     1       3.699  14.041  20.489  0.00  0.00    +0.000 OA
ATOM     14  C   UNL     1       4.645  14.918  19.891  0.00  0.00    +0.000 C 
ATOM     15  C   UNL     1       4.337  15.193  18.422  0.00  0.00    +0.000 C 
ATOM     16  O   UNL     1       2.974  15.514  18.121  0.00  0.00    +0.000 OA
ENDBRANCH   2   7
BRANCH   1  18
ATOM     17  C   UNL     1      -2.483  12.468  20.053  0.00  0.00    +0.000 C 
ATOM     18  N   UNL     1      -1.544  12.365  20.945  0.00  0.00    +0.000 NA
BRANCH  17  24
ATOM     19  C   UNL     1      -3.606  11.423  18.040  0.00  0.00    +0.000 A 
ATOM     20  C   UNL     1      -3.528  10.592  16.906  0.00  0.00    +0.000 A 
ATOM     21  C   UNL     1      -2.368   9.870  16.631  0.00  0.00    +0.000 A 
ATOM     22  C   UNL     1      -1.262   9.993  17.470  0.00  0.00    +0.000 A 
ATOM     23  C   UNL     1      -1.312  10.852  18.561  0.00  0.00    +0.000 A 
ATOM     24  C   UNL     1      -2.473  11.581  18.856  0.00  0.00    +0.000 A 
BRANCH  19  25
ATOM     25  O   UNL     1      -4.747  12.099  18.382  0.00  0.00    +0.000 OA
BRANCH  25  27
ATOM     26  F   UNL     1      -6.795  11.435  17.758  0.00  0.00    +0.000 F 
ATOM     27  C   UNL     1      -5.727  12.167  17.354  0.00  0.00    +0.000 C 
ATOM     28  F   UNL     1      -6.153  13.450  17.241  0.00  0.00    +0.000 F 
ENDBRANCH  25  27
ENDBRANCH  19  25
ENDBRANCH  17  24
ENDBRANCH   1  18
BRANCH   6  29
ATOM     29  C   UNL     1      -4.480  12.615  24.374  0.00  0.00    +0.000 C 
BRANCH  29  30
ATOM     30  C   UNL     1      -5.809  13.173  23.878  0.00  0.00    +0.000 C 
ATOM     31  C   UNL     1      -6.991  12.259  24.161  0.00  0.00    +0.000 C 
ATOM     32  C   UNL     1      -7.916  12.588  23.018  0.00  0.00    +0.000 C 
ATOM     33  C   UNL     1      -6.944  12.782  21.876  0.00  0.00    +0.000 C 
ATOM     34  O   UNL     1      -5.750  13.335  22.444  0.00  0.00    +0.000 OA
ENDBRANCH  29  30
ENDBRANCH   6  29
TORSDOF 7
ENDMDL
MODEL 8
REMARK VINA RESULT:      -6.6      1.661      7.239
REMARK  Name = 
REMARK  7 active torsions:
REMARK  status: ('A' for Active; 'I' for Inactive)
REMARK    1  A    between atoms: C_2  and  O_4
REMARK    2  A    between atoms: O_4  and  C_5
REMARK    3  A    between atoms: C_10  and  C_11
REMARK    4  A    between atoms: N_12  and  N_13
REMARK    5  A    between atoms: C_14  and  C_15
REMARK    6  A    between atoms: N_28  and  C_29
REMARK    7  A    between atoms: C_29  and  C_30
REMARK                            x       y       z     vdW  Elec       q    Type
REMARK                         _______ _______ _______ _____ _____    ______ ____
ROOT
ATOM      1  N   UNL     1      -1.201  10.914  20.407  0.00  0.00    +0.000 N 
ATOM      2  C   UNL     1      -0.026  10.274  20.847  0.00  0.00    +0.000 A 
ATOM      3  C   UNL     1       0.278  10.418  22.145  0.00  0.00    +0.000 A 
ATOM      4  S   UNL     1      -0.874  11.399  22.967  0.00  0.00    +0.000 S 
ATOM      5  C   UNL     1      -1.791  11.695  21.428  0.00  0.00    +0.000 A 
ATOM      6  N   UNL     1      -2.786  12.515  21.358  0.00  0.00    +0.000 NA
ENDROOT
BRANCH   2   7
ATOM      7  C   UNL     1       0.903   9.547  19.985  0.00  0.00    +0.000 A 
ATOM      8  C   UNL     1       1.254  10.014  18.715  0.00  0.00    +0.000 A 
ATOM      9  C   UNL     1       2.044   9.225  17.869  0.00  0.00    +0.000 A 
ATOM     10  C   UNL     1       2.484   7.970  18.293  0.00  0.00    +0.000 A 
ATOM     11  C   UNL     1       2.097   7.487  19.538  0.00  0.00    +0.000 A 
ATOM     12  C   UNL     1       1.335   8.275  20.391  0.00  0.00    +0.000 A 
ATOM     13  O   UNL     1       2.402   6.227  19.971  0.00  0.00    +0.000 OA
ATOM     14  C   UNL     1       3.692   5.878  19.485  0.00  0.00    +0.000 C 
ATOM     15  C   UNL     1       3.810   6.049  17.974  0.00  0.00    +0.000 C 
ATOM     16  O   UNL     1       3.303   7.280  17.445  0.00  0.00    +0.000 OA
ENDBRANCH   2   7
BRANCH   1  18
ATOM     17  C   UNL     1      -2.636  10.496  18.656  0.00  0.00    +0.000 C 
ATOM     18  N   UNL     1      -1.487  10.951  19.056  0.00  0.00    +0.000 NA
BRANCH  17  24
ATOM     19  C   UNL     1      -3.961  11.317  16.662  0.00  0.00    +0.000 A 
ATOM     20  C   UNL     1      -4.212  11.281  15.277  0.00  0.00    +0.000 A 
ATOM     21  C   UNL     1      -3.540  10.377  14.455  0.00  0.00    +0.000 A 
ATOM     22  C   UNL     1      -2.588   9.520  15.004  0.00  0.00    +0.000 A 
ATOM     23  C   UNL     1      -2.296   9.586  16.361  0.00  0.00    +0.000 A 
ATOM     24  C   UNL     1      -2.967  10.484  17.203  0.00  0.00    +0.000 A 
BRANCH  19  25
ATOM     25  O   UNL     1      -4.645  12.144  17.514  0.00  0.00    +0.000 OA
BRANCH  25  27
ATOM     26  F   UNL     1      -6.819  12.158  16.969  0.00  0.00    +0.000 F 
ATOM     27  C   UNL     1      -5.938  11.679  17.881  0.00  0.00    +0.000 C 
ATOM     28  F   UNL     1      -5.961  10.326  17.775  0.00  0.00    +0.000 F 
ENDBRANCH  25  27
ENDBRANCH  19  25
ENDBRANCH  17  24
ENDBRANCH   1  18
BRANCH   6  29
ATOM     29  C   UNL     1      -3.160  13.228  22.585  0.00  0.00    +0.000 C 
BRANCH  29  30
ATOM     30  C   UNL     1      -4.635  13.612  22.559  0.00  0.00    +0.000 C 
ATOM     31  C   UNL     1      -4.985  14.737  23.520  0.00  0.00    +0.000 C 
ATOM     32  C   UNL     1      -6.416  14.415  23.864  0.00  0.00    +0.000 C 
ATOM     33  C   UNL     1      -6.391  12.905  23.925  0.00  0.00    +0.000 C 
ATOM     34  O   UNL     1      -5.428  12.471  22.956  0.00  0.00    +0.000 OA
ENDBRANCH  29  30
ENDBRANCH   6  29
TORSDOF 7
ENDMDL
MODEL 9
REMARK VINA RESULT:      -6.5      1.501      2.210
REMARK  Name = 
REMARK  7 active torsions:
REMARK  status: ('A' for Active; 'I' for Inactive)
REMARK    1  A    between atoms: C_2  and  O_4
REMARK    2  A    between atoms: O_4  and  C_5
REMARK    3  A    between atoms: C_10  and  C_11
REMARK    4  A    between atoms: N_12  and  N_13
REMARK    5  A    between atoms: C_14  and  C_15
REMARK    6  A    between atoms: N_28  and  C_29
REMARK    7  A    between atoms: C_29  and  C_30
REMARK                            x       y       z     vdW  Elec       q    Type
REMARK                         _______ _______ _______ _____ _____    ______ ____
ROOT
ATOM      1  N   UNL     1      -0.620  10.724  20.565  0.00  0.00    +0.000 N 
ATOM      2  C   UNL     1      -1.099  11.468  21.661  0.00  0.00    +0.000 A 
ATOM      3  C   UNL     1      -0.672  11.083  22.872  0.00  0.00    +0.000 A 
ATOM      4  S   UNL     1       0.374   9.718  22.778  0.00  0.00    +0.000 S 
ATOM      5  C   UNL     1       0.158   9.617  20.978  0.00  0.00    +0.000 A 
ATOM      6  N   UNL     1       0.644   8.652  20.272  0.00  0.00    +0.000 NA
ENDROOT
BRANCH   2   7
ATOM      7  C   UNL     1      -2.071  12.555  21.573  0.00  0.00    +0.000 A 
ATOM      8  C   UNL     1      -3.436  12.347  21.788  0.00  0.00    +0.000 A 
ATOM      9  C   UNL     1      -4.350  13.385  21.566  0.00  0.00    +0.000 A 
ATOM     10  C   UNL     1      -3.899  14.633  21.132  0.00  0.00    +0.000 A 
ATOM     11  C   UNL     1      -2.546  14.826  20.874  0.00  0.00    +0.000 A 
ATOM     12  C   UNL     1      -1.633  13.808  21.116  0.00  0.00    +0.000 A 
ATOM     13  O   UNL     1      -2.051  15.985  20.346  0.00  0.00    +0.000 OA
ATOM     14  C   UNL     1      -2.801  17.077  20.862  0.00  0.00    +0.000 C 
ATOM     15  C   UNL     1      -4.302  16.904  20.653  0.00  0.00    +0.000 C 
ATOM     16  O   UNL     1      -4.834  15.619  20.997  0.00  0.00    +0.000 OA
ENDBRANCH   2   7
BRANCH   1  18
ATOM     17  C   UNL     1      -2.160  10.239  18.924  0.00  0.00    +0.000 C 
ATOM     18  N   UNL     1      -1.146  10.954  19.308  0.00  0.00    +0.000 NA
BRANCH  17  24
ATOM     19  C   UNL     1      -3.918  11.154  17.351  0.00  0.00    +0.000 A 
ATOM     20  C   UNL     1      -4.397  11.325  16.037  0.00  0.00    +0.000 A 
ATOM     21  C   UNL     1      -3.750  10.721  14.960  0.00  0.00    +0.000 A 
ATOM     22  C   UNL     1      -2.601   9.965  15.179  0.00  0.00    +0.000 A 
ATOM     23  C   UNL     1      -2.091   9.836  16.466  0.00  0.00    +0.000 A 
ATOM     24  C   UNL     1      -2.732  10.431  17.562  0.00  0.00    +0.000 A 
BRANCH  19  25
ATOM     25  O   UNL     1      -4.559  11.676  18.443  0.00  0.00    +0.000 OA
BRANCH  25  27
ATOM     26  F   UNL     1      -6.046  10.039  18.808  0.00  0.00    +0.000 F 
ATOM     27  C   UNL     1      -5.944  11.361  18.525  0.00  0.00    +0.000 C 
ATOM     28  F   UNL     1      -6.481  12.030  19.576  0.00  0.00    +0.000 F 
ENDBRANCH  25  27
ENDBRANCH  19  25
ENDBRANCH  17  24
ENDBRANCH   1  18
BRANCH   6  29
ATOM     29  C   UNL     1       1.386   7.604  20.982  0.00  0.00    +0.000 C 
BRANCH  29  30
ATOM     30  C   UNL     1       2.419   6.957  20.066  0.00  0.00    +0.000 C 
ATOM     31  C   UNL     1       2.408   7.518  18.653  0.00  0.00    +0.000 C 
ATOM     32  C   UNL     1       2.866   6.330  17.846  0.00  0.00    +0.000 C 
ATOM     33  C   UNL     1       2.187   5.185  18.563  0.00  0.00    +0.000 C 
ATOM     34  O   UNL     1       2.131   5.546  19.949  0.00  0.00    +0.000 OA
ENDBRANCH  29  30
ENDBRANCH   6  29
TORSDOF 7
ENDMDL
