MODEL 1
REMARK VINA RESULT:      -7.5      0.000      0.000
REMARK  Name = 
REMARK  5 active torsions:
REMARK  status: ('A' for Active; 'I' for Inactive)
REMARK    1  A    between atoms: C_2  and  C_3
REMARK    2  A    between atoms: C_3  and  O_4
REMARK    3  A    between atoms: O_4  and  C_5
REMARK    4  A    between atoms: N_20  and  C_21
REMARK    5  A    between atoms: C_21  and  C_22
REMARK                            x       y       z     vdW  Elec       q    Type
REMARK                         _______ _______ _______ _____ _____    ______ ____
ROOT
ATOM      1  C   UNL     1       6.397   4.432  14.393  0.00  0.00    +0.000 A 
ATOM      2  C   UNL     1       7.513   4.914  15.066  0.00  0.00    +0.000 A 
ATOM      3  C   UNL     1       7.483   5.055  16.483  0.00  0.00    +0.000 A 
ATOM      4  C   UNL     1       6.340   4.706  17.244  0.00  0.00    +0.000 A 
ATOM      5  C   UNL     1       5.305   4.041  16.586  0.00  0.00    +0.000 A 
ATOM      6  C   UNL     1       5.338   3.940  15.163  0.00  0.00    +0.000 A 
ATOM      7  C   UNL     1       4.012   3.774  17.340  0.00  0.00    +0.000 C 
ATOM      8  C   UNL     1       3.300   2.498  16.831  0.00  0.00    +0.000 C 
ATOM      9  C   UNL     1       2.226   1.937  17.779  0.00  0.00    +0.000 C 
ATOM     10  C   UNL     1       2.671   1.713  19.242  0.00  0.00    +0.000 C 
ATOM     11  C   UNL     1       4.104   2.237  19.537  0.00  0.00    +0.000 C 
ATOM     12  C   UNL     1       4.161   3.604  18.864  0.00  0.00    +0.000 C 
ATOM     13  C   UNL     1       4.803   4.814  19.486  0.00  0.00    +0.000 C 
ATOM     14  C   UNL     1       6.114   5.201  18.680  0.00  0.00    +0.000 C 
ATOM     15  O   UNL     1       7.015   5.879  19.185  0.00  0.00    +0.000 OA
ATOM     16  N   UNL     1       3.680   5.887  19.527  0.00  0.00    +0.000 NA
ATOM     17  C   UNL     1       2.704   5.746  18.356  0.00  0.00    +0.000 C 
ATOM     18  C   UNL     1       3.290   5.149  17.087  0.00  0.00    +0.000 C 
ENDROOT
BRANCH   1  19
ATOM     19  O   UNL     1       6.238   4.349  13.032  0.00  0.00    +0.000 OA
BRANCH  19  20
ATOM     20  C   UNL     1       5.861   3.069  12.510  0.00  0.00    +0.000 C 
BRANCH  20  22
ATOM     21  C   UNL     1       3.693   3.329  10.881  0.00  0.00    +0.000 C 
ATOM     22  C   UNL     1       4.665   3.179  11.608  0.00  0.00    +0.000 C 
ENDBRANCH  20  22
ENDBRANCH  19  20
ENDBRANCH   1  19
BRANCH  16  23
ATOM     23  C   UNL     1       2.736   5.693  20.694  0.00  0.00    +0.000 C 
BRANCH  23  24
ATOM     24  C   UNL     1       1.484   4.938  20.581  0.00  0.00    +0.000 C 
ATOM     25  C   UNL     1       0.684   4.042  20.521  0.00  0.00    +0.000 C 
ENDBRANCH  23  24
ENDBRANCH  16  23
TORSDOF 5
ENDMDL
MODEL 2
REMARK VINA RESULT:      -7.5      0.969      1.144
REMARK  Name = 
REMARK  5 active torsions:
REMARK  status: ('A' for Active; 'I' for Inactive)
REMARK    1  A    between atoms: C_2  and  C_3
REMARK    2  A    between atoms: C_3  and  O_4
REMARK    3  A    between atoms: O_4  and  C_5
REMARK    4  A    between atoms: N_20  and  C_21
REMARK    5  A    between atoms: C_21  and  C_22
REMARK                            x       y       z     vdW  Elec       q    Type
REMARK                         _______ _______ _______ _____ _____    ______ ____
ROOT
ATOM      1  C   UNL     1       6.413   4.468  14.906  0.00  0.00    +0.000 A 
ATOM      2  C   UNL     1       7.509   4.726  15.720  0.00  0.00    +0.000 A 
ATOM      3  C   UNL     1       7.343   4.805  17.132  0.00  0.00    +0.000 A 
ATOM      4  C   UNL     1       6.080   4.618  17.747  0.00  0.00    +0.000 A 
ATOM      5  C   UNL     1       5.033   4.167  16.945  0.00  0.00    +0.000 A 
ATOM      6  C   UNL     1       5.209   4.126  15.529  0.00  0.00    +0.000 A 
ATOM      7  C   UNL     1       3.637   4.086  17.543  0.00  0.00    +0.000 C 
ATOM      8  C   UNL     1       2.789   2.971  16.884  0.00  0.00    +0.000 C 
ATOM      9  C   UNL     1       1.539   2.556  17.678  0.00  0.00    +0.000 C 
ATOM     10  C   UNL     1       1.774   2.195  19.162  0.00  0.00    +0.000 C 
ATOM     11  C   UNL     1       3.231   2.458  19.637  0.00  0.00    +0.000 C 
ATOM     12  C   UNL     1       3.584   3.825  19.060  0.00  0.00    +0.000 C 
ATOM     13  C   UNL     1       4.339   4.881  19.821  0.00  0.00    +0.000 C 
ATOM     14  C   UNL     1       5.778   5.079  19.181  0.00  0.00    +0.000 C 
ATOM     15  O   UNL     1       6.714   5.572  19.818  0.00  0.00    +0.000 OA
ATOM     16  N   UNL     1       3.407   6.124  19.813  0.00  0.00    +0.000 NA
ATOM     17  C   UNL     1       2.559   6.201  18.541  0.00  0.00    +0.000 C 
ATOM     18  C   UNL     1       3.179   5.573  17.304  0.00  0.00    +0.000 C 
ENDROOT
BRANCH   1  19
ATOM     19  O   UNL     1       6.397   4.474  13.534  0.00  0.00    +0.000 OA
BRANCH  19  20
ATOM     20  C   UNL     1       6.204   3.208  12.891  0.00  0.00    +0.000 C 
BRANCH  20  22
ATOM     21  C   UNL     1       4.076   3.276  11.193  0.00  0.00    +0.000 C 
ATOM     22  C   UNL     1       5.010   3.234  11.980  0.00  0.00    +0.000 C 
ENDBRANCH  20  22
ENDBRANCH  19  20
ENDBRANCH   1  19
BRANCH  16  23
ATOM     23  C   UNL     1       2.319   6.038  20.861  0.00  0.00    +0.000 C 
BRANCH  23  24
ATOM     24  C   UNL     1       1.448   7.171  21.192  0.00  0.00    +0.000 C 
ATOM     25  C   UNL     1       0.896   8.239  21.174  0.00  0.00    +0.000 C 
ENDBRANCH  23  24
ENDBRANCH  16  23
TORSDOF 5
ENDMDL
MODEL 3
REMARK VINA RESULT:      -7.3      2.987      7.042
REMARK  Name = 
REMARK  5 active torsions:
REMARK  status: ('A' for Active; 'I' for Inactive)
REMARK    1  A    between atoms: C_2  and  C_3
REMARK    2  A    between atoms: C_3  and  O_4
REMARK    3  A    between atoms: O_4  and  C_5
REMARK    4  A    between atoms: N_20  and  C_21
REMARK    5  A    between atoms: C_21  and  C_22
REMARK                            x       y       z     vdW  Elec       q    Type
REMARK                         _______ _______ _______ _____ _____    ______ ____
ROOT
ATOM      1  C   UNL     1       1.464   7.895  20.646  0.00  0.00    +0.000 A 
ATOM      2  C   UNL     1       1.469   8.798  19.591  0.00  0.00    +0.000 A 
ATOM      3  C   UNL     1       2.093   8.450  18.359  0.00  0.00    +0.000 A 
ATOM      4  C   UNL     1       2.711   7.190  18.165  0.00  0.00    +0.000 A 
ATOM      5  C   UNL     1       2.528   6.223  19.154  0.00  0.00    +0.000 A 
ATOM      6  C   UNL     1       1.930   6.601  20.394  0.00  0.00    +0.000 A 
ATOM      7  C   UNL     1       3.288   4.911  19.042  0.00  0.00    +0.000 C 
ATOM      8  C   UNL     1       2.516   3.739  19.696  0.00  0.00    +0.000 C 
ATOM      9  C   UNL     1       3.002   2.338  19.286  0.00  0.00    +0.000 C 
ATOM     10  C   UNL     1       3.107   2.081  17.765  0.00  0.00    +0.000 C 
ATOM     11  C   UNL     1       2.840   3.349  16.906  0.00  0.00    +0.000 C 
ATOM     12  C   UNL     1       3.616   4.460  17.606  0.00  0.00    +0.000 C 
ATOM     13  C   UNL     1       4.414   5.506  16.876  0.00  0.00    +0.000 C 
ATOM     14  C   UNL     1       3.718   6.923  17.037  0.00  0.00    +0.000 C 
ATOM     15  O   UNL     1       3.929   7.848  16.246  0.00  0.00    +0.000 OA
ATOM     16  N   UNL     1       5.855   5.379  17.444  0.00  0.00    +0.000 NA
ATOM     17  C   UNL     1       5.859   4.939  18.911  0.00  0.00    +0.000 C 
ATOM     18  C   UNL     1       4.639   5.348  19.719  0.00  0.00    +0.000 C 
ENDROOT
BRANCH   1  19
ATOM     19  O   UNL     1       1.005   8.129  21.918  0.00  0.00    +0.000 OA
BRANCH  19  20
ATOM     20  C   UNL     1       1.197   9.451  22.434  0.00  0.00    +0.000 C 
BRANCH  20  22
ATOM     21  C   UNL     1      -1.166  10.609  23.138  0.00  0.00    +0.000 C 
ATOM     22  C   UNL     1      -0.112  10.095  22.789  0.00  0.00    +0.000 C 
ENDBRANCH  20  22
ENDBRANCH  19  20
ENDBRANCH   1  19
BRANCH  16  23
ATOM     23  C   UNL     1       6.627   4.240  16.816  0.00  0.00    +0.000 C 
BRANCH  23  24
ATOM     24  C   UNL     1       6.513   3.896  15.394  0.00  0.00    +0.000 C 
ATOM     25  C   UNL     1       6.227   3.919  14.227  0.00  0.00    +0.000 C 
ENDBRANCH  23  24
ENDBRANCH  16  23
TORSDOF 5
ENDMDL
MODEL 4
REMARK VINA RESULT:      -7.1      0.956      1.016
REMARK  Name = 
REMARK  5 active torsions:
REMARK  status: ('A' for Active; 'I' for Inactive)
REMARK    1  A    between atoms: C_2  and  C_3
REMARK    2  A    between atoms: C_3  and  O_4
REMARK    3  A    between atoms: O_4  and  C_5
REMARK    4  A    between atoms: N_20  and  C_21
REMARK    5  A    between atoms: C_21  and  C_22
REMARK                            x       y       z     vdW  Elec       q    Type
REMARK                         _______ _______ _______ _____ _____    ______ ____
ROOT
ATOM      1  C   UNL     1       6.042   4.138  14.123  0.00  0.00    +0.000 A 
ATOM      2  C   UNL     1       7.133   4.856  14.595  0.00  0.00    +0.000 A 
ATOM      3  C   UNL     1       7.203   5.224  15.969  0.00  0.00    +0.000 A 
ATOM      4  C   UNL     1       6.184   4.870  16.889  0.00  0.00    +0.000 A 
ATOM      5  C   UNL     1       5.199   3.985  16.451  0.00  0.00    +0.000 A 
ATOM      6  C   UNL     1       5.127   3.655  15.065  0.00  0.00    +0.000 A 
ATOM      7  C   UNL     1       4.021   3.692  17.367  0.00  0.00    +0.000 C 
ATOM      8  C   UNL     1       3.449   2.272  17.137  0.00  0.00    +0.000 C 
ATOM      9  C   UNL     1       2.544   1.751  18.265  0.00  0.00    +0.000 C 
ATOM     10  C   UNL     1       3.135   1.827  19.692  0.00  0.00    +0.000 C 
ATOM     11  C   UNL     1       4.503   2.563  19.753  0.00  0.00    +0.000 C 
ATOM     12  C   UNL     1       4.318   3.795  18.875  0.00  0.00    +0.000 C 
ATOM     13  C   UNL     1       4.839   5.161  19.235  0.00  0.00    +0.000 C 
ATOM     14  C   UNL     1       6.014   5.565  18.248  0.00  0.00    +0.000 C 
ATOM     15  O   UNL     1       6.853   6.420  18.547  0.00  0.00    +0.000 OA
ATOM     16  N   UNL     1       3.588   6.082  19.228  0.00  0.00    +0.000 NA
ATOM     17  C   UNL     1       2.546   5.632  18.199  0.00  0.00    +0.000 C 
ATOM     18  C   UNL     1       3.100   4.909  16.983  0.00  0.00    +0.000 C 
ENDROOT
BRANCH   1  19
ATOM     19  O   UNL     1       5.784   3.812  12.815  0.00  0.00    +0.000 OA
BRANCH  19  20
ATOM     20  C   UNL     1       6.910   3.429  12.017  0.00  0.00    +0.000 C 
BRANCH  20  22
ATOM     21  C   UNL     1       6.528   0.938  10.986  0.00  0.00    +0.000 C 
ATOM     22  C   UNL     1       6.720   2.063  11.423  0.00  0.00    +0.000 C 
ENDBRANCH  20  22
ENDBRANCH  19  20
ENDBRANCH   1  19
BRANCH  16  23
ATOM     23  C   UNL     1       2.779   5.970  20.501  0.00  0.00    +0.000 C 
BRANCH  23  24
ATOM     24  C   UNL     1       1.603   5.101  20.619  0.00  0.00    +0.000 C 
ATOM     25  C   UNL     1       0.896   4.136  20.740  0.00  0.00    +0.000 C 
ENDBRANCH  23  24
ENDBRANCH  16  23
TORSDOF 5
ENDMDL
MODEL 5
REMARK VINA RESULT:      -7.0      3.427      7.489
REMARK  Name = 
REMARK  5 active torsions:
REMARK  status: ('A' for Active; 'I' for Inactive)
REMARK    1  A    between atoms: C_2  and  C_3
REMARK    2  A    between atoms: C_3  and  O_4
REMARK    3  A    between atoms: O_4  and  C_5
REMARK    4  A    between atoms: N_20  and  C_21
REMARK    5  A    between atoms: C_21  and  C_22
REMARK                            x       y       z     vdW  Elec       q    Type
REMARK                         _______ _______ _______ _____ _____    ______ ____
ROOT
ATOM      1  C   UNL     1       1.145   8.759  21.278  0.00  0.00    +0.000 A 
ATOM      2  C   UNL     1       1.281   9.621  20.197  0.00  0.00    +0.000 A 
ATOM      3  C   UNL     1       1.747   9.125  18.946  0.00  0.00    +0.000 A 
ATOM      4  C   UNL     1       2.073   7.758  18.760  0.00  0.00    +0.000 A 
ATOM      5  C   UNL     1       1.746   6.872  19.786  0.00  0.00    +0.000 A 
ATOM      6  C   UNL     1       1.312   7.391  21.042  0.00  0.00    +0.000 A 
ATOM      7  C   UNL     1       2.204   5.426  19.675  0.00  0.00    +0.000 C 
ATOM      8  C   UNL     1       1.240   4.458  20.403  0.00  0.00    +0.000 C 
ATOM      9  C   UNL     1       1.395   2.978  20.012  0.00  0.00    +0.000 C 
ATOM     10  C   UNL     1       1.357   2.675  18.496  0.00  0.00    +0.000 C 
ATOM     11  C   UNL     1       1.316   3.955  17.614  0.00  0.00    +0.000 C 
ATOM     12  C   UNL     1       2.347   4.888  18.238  0.00  0.00    +0.000 C 
ATOM     13  C   UNL     1       3.307   5.727  17.437  0.00  0.00    +0.000 C 
ATOM     14  C   UNL     1       2.936   7.262  17.591  0.00  0.00    +0.000 C 
ATOM     15  O   UNL     1       3.292   8.106  16.762  0.00  0.00    +0.000 OA
ATOM     16  N   UNL     1       4.717   5.307  17.935  0.00  0.00    +0.000 NA
ATOM     17  C   UNL     1       4.711   4.904  19.412  0.00  0.00    +0.000 C 
ATOM     18  C   UNL     1       3.653   5.579  20.269  0.00  0.00    +0.000 C 
ENDROOT
BRANCH   1  19
ATOM     19  O   UNL     1       0.818   9.110  22.565  0.00  0.00    +0.000 OA
BRANCH  19  20
ATOM     20  C   UNL     1      -0.578   9.245  22.856  0.00  0.00    +0.000 C 
BRANCH  20  22
ATOM     21  C   UNL     1      -1.345  11.853  23.015  0.00  0.00    +0.000 C 
ATOM     22  C   UNL     1      -0.976  10.688  22.966  0.00  0.00    +0.000 C 
ENDBRANCH  20  22
ENDBRANCH  19  20
ENDBRANCH   1  19
BRANCH  16  23
ATOM     23  C   UNL     1       5.195   4.018  17.302  0.00  0.00    +0.000 C 
BRANCH  23  24
ATOM     24  C   UNL     1       5.600   3.929  15.895  0.00  0.00    +0.000 C 
ATOM     25  C   UNL     1       5.849   4.208  14.753  0.00  0.00    +0.000 C 
ENDBRANCH  23  24
ENDBRANCH  16  23
TORSDOF 5
ENDMDL
MODEL 6
REMARK VINA RESULT:      -6.7      3.341      6.316
REMARK  Name = 
REMARK  5 active torsions:
REMARK  status: ('A' for Active; 'I' for Inactive)
REMARK    1  A    between atoms: C_2  and  C_3
REMARK    2  A    between atoms: C_3  and  O_4
REMARK    3  A    between atoms: O_4  and  C_5
REMARK    4  A    between atoms: N_20  and  C_21
REMARK    5  A    between atoms: C_21  and  C_22
REMARK                            x       y       z     vdW  Elec       q    Type
REMARK                         _______ _______ _______ _____ _____    ______ ____
ROOT
ATOM      1  C   UNL     1       1.327   9.144  18.914  0.00  0.00    +0.000 A 
ATOM      2  C   UNL     1       1.042   8.878  20.248  0.00  0.00    +0.000 A 
ATOM      3  C   UNL     1       1.510   7.675  20.849  0.00  0.00    +0.000 A 
ATOM      4  C   UNL     1       2.278   6.728  20.125  0.00  0.00    +0.000 A 
ATOM      5  C   UNL     1       2.723   7.095  18.856  0.00  0.00    +0.000 A 
ATOM      6  C   UNL     1       2.216   8.288  18.258  0.00  0.00    +0.000 A 
ATOM      7  C   UNL     1       3.431   6.055  18.002  0.00  0.00    +0.000 C 
ATOM      8  C   UNL     1       4.453   6.700  17.034  0.00  0.00    +0.000 C 
ATOM      9  C   UNL     1       5.480   5.725  16.436  0.00  0.00    +0.000 C 
ATOM     10  C   UNL     1       6.241   4.842  17.452  0.00  0.00    +0.000 C 
ATOM     11  C   UNL     1       5.723   4.995  18.910  0.00  0.00    +0.000 C 
ATOM     12  C   UNL     1       4.204   4.975  18.783  0.00  0.00    +0.000 C 
ATOM     13  C   UNL     1       3.298   4.238  19.732  0.00  0.00    +0.000 C 
ATOM     14  C   UNL     1       2.458   5.276  20.589  0.00  0.00    +0.000 C 
ATOM     15  O   UNL     1       1.953   4.969  21.674  0.00  0.00    +0.000 OA
ATOM     16  N   UNL     1       2.481   3.269  18.833  0.00  0.00    +0.000 NA
ATOM     17  C   UNL     1       2.234   3.846  17.437  0.00  0.00    +0.000 C 
ATOM     18  C   UNL     1       2.172   5.363  17.360  0.00  0.00    +0.000 C 
ENDROOT
BRANCH   1  19
ATOM     19  O   UNL     1       0.852  10.197  18.173  0.00  0.00    +0.000 OA
BRANCH  19  20
ATOM     20  C   UNL     1      -0.386  10.775  18.603  0.00  0.00    +0.000 C 
BRANCH  20  22
ATOM     21  C   UNL     1      -2.448   9.827  17.097  0.00  0.00    +0.000 C 
ATOM     22  C   UNL     1      -1.542  10.250  17.801  0.00  0.00    +0.000 C 
ENDBRANCH  20  22
ENDBRANCH  19  20
ENDBRANCH   1  19
BRANCH  16  23
ATOM     23  C   UNL     1       3.254   2.018  18.477  0.00  0.00    +0.000 C 
BRANCH  23  24
ATOM     24  C   UNL     1       4.203   1.385  19.399  0.00  0.00    +0.000 C 
ATOM     25  C   UNL     1       5.002   1.204  20.279  0.00  0.00    +0.000 C 
ENDBRANCH  23  24
ENDBRANCH  16  23
TORSDOF 5
ENDMDL
MODEL 7
REMARK VINA RESULT:      -6.6      1.036      1.084
REMARK  Name = 
REMARK  5 active torsions:
REMARK  status: ('A' for Active; 'I' for Inactive)
REMARK    1  A    between atoms: C_2  and  C_3
REMARK    2  A    between atoms: C_3  and  O_4
REMARK    3  A    between atoms: O_4  and  C_5
REMARK    4  A    between atoms: N_20  and  C_21
REMARK    5  A    between atoms: C_21  and  C_22
REMARK                            x       y       z     vdW  Elec       q    Type
REMARK                         _______ _______ _______ _____ _____    ______ ____
ROOT
ATOM      1  C   UNL     1       6.342   3.770  14.183  0.00  0.00    +0.000 A 
ATOM      2  C   UNL     1       7.069   4.921  14.460  0.00  0.00    +0.000 A 
ATOM      3  C   UNL     1       6.880   5.601  15.698  0.00  0.00    +0.000 A 
ATOM      4  C   UNL     1       5.969   5.130  16.676  0.00  0.00    +0.000 A 
ATOM      5  C   UNL     1       5.396   3.875  16.474  0.00  0.00    +0.000 A 
ATOM      6  C   UNL     1       5.571   3.226  15.215  0.00  0.00    +0.000 A 
ATOM      7  C   UNL     1       4.315   3.402  17.433  0.00  0.00    +0.000 C 
ATOM      8  C   UNL     1       4.295   1.860  17.566  0.00  0.00    +0.000 C 
ATOM      9  C   UNL     1       3.528   1.328  18.788  0.00  0.00    +0.000 C 
ATOM     10  C   UNL     1       3.924   1.943  20.151  0.00  0.00    +0.000 C 
ATOM     11  C   UNL     1       4.940   3.114  20.026  0.00  0.00    +0.000 C 
ATOM     12  C   UNL     1       4.419   3.955  18.867  0.00  0.00    +0.000 C 
ATOM     13  C   UNL     1       4.398   5.460  18.872  0.00  0.00    +0.000 C 
ATOM     14  C   UNL     1       5.445   6.015  17.816  0.00  0.00    +0.000 C 
ATOM     15  O   UNL     1       5.904   7.160  17.891  0.00  0.00    +0.000 OA
ATOM     16  N   UNL     1       2.912   5.842  18.632  0.00  0.00    +0.000 NA
ATOM     17  C   UNL     1       2.189   4.821  17.749  0.00  0.00    +0.000 C 
ATOM     18  C   UNL     1       3.068   4.081  16.754  0.00  0.00    +0.000 C 
ENDROOT
BRANCH   1  19
ATOM     19  O   UNL     1       6.334   3.076  12.999  0.00  0.00    +0.000 OA
BRANCH  19  20
ATOM     20  C   UNL     1       5.961   3.813  11.829  0.00  0.00    +0.000 C 
BRANCH  20  22
ATOM     21  C   UNL     1       3.546   3.022  10.849  0.00  0.00    +0.000 C 
ATOM     22  C   UNL     1       4.642   3.345  11.285  0.00  0.00    +0.000 C 
ENDBRANCH  20  22
ENDBRANCH  19  20
ENDBRANCH   1  19
BRANCH  16  23
ATOM     23  C   UNL     1       2.079   5.749  19.892  0.00  0.00    +0.000 C 
BRANCH  23  24
ATOM     24  C   UNL     1       1.301   4.556  20.241  0.00  0.00    +0.000 C 
ATOM     25  C   UNL     1       0.938   3.531  20.754  0.00  0.00    +0.000 C 
ENDBRANCH  23  24
ENDBRANCH  16  23
TORSDOF 5
ENDMDL
MODEL 8
REMARK VINA RESULT:      -6.6      2.620      6.130
REMARK  Name = 
REMARK  5 active torsions:
REMARK  status: ('A' for Active; 'I' for Inactive)
REMARK    1  A    between atoms: C_2  and  C_3
REMARK    2  A    between atoms: C_3  and  O_4
REMARK    3  A    between atoms: O_4  and  C_5
REMARK    4  A    between atoms: N_20  and  C_21
REMARK    5  A    between atoms: C_21  and  C_22
REMARK                            x       y       z     vdW  Elec       q    Type
REMARK                         _______ _______ _______ _____ _____    ______ ____
ROOT
ATOM      1  C   UNL     1       1.806   3.260  18.273  0.00  0.00    +0.000 A 
ATOM      2  C   UNL     1       1.100   4.444  18.445  0.00  0.00    +0.000 A 
ATOM      3  C   UNL     1       1.708   5.688  18.111  0.00  0.00    +0.000 A 
ATOM      4  C   UNL     1       3.025   5.761  17.592  0.00  0.00    +0.000 A 
ATOM      5  C   UNL     1       3.646   4.563  17.239  0.00  0.00    +0.000 A 
ATOM      6  C   UNL     1       3.036   3.328  17.613  0.00  0.00    +0.000 A 
ATOM      7  C   UNL     1       5.103   4.595  16.809  0.00  0.00    +0.000 C 
ATOM      8  C   UNL     1       5.437   3.458  15.812  0.00  0.00    +0.000 C 
ATOM      9  C   UNL     1       6.747   3.650  15.029  0.00  0.00    +0.000 C 
ATOM     10  C   UNL     1       6.908   5.009  14.310  0.00  0.00    +0.000 C 
ATOM     11  C   UNL     1       5.765   6.014  14.629  0.00  0.00    +0.000 C 
ATOM     12  C   UNL     1       5.563   5.903  16.136  0.00  0.00    +0.000 C 
ATOM     13  C   UNL     1       5.334   7.087  17.036  0.00  0.00    +0.000 C 
ATOM     14  C   UNL     1       3.849   7.056  17.596  0.00  0.00    +0.000 C 
ATOM     15  O   UNL     1       3.289   8.073  18.018  0.00  0.00    +0.000 OA
ATOM     16  N   UNL     1       6.469   7.012  18.094  0.00  0.00    +0.000 NA
ATOM     17  C   UNL     1       6.877   5.569  18.401  0.00  0.00    +0.000 C 
ATOM     18  C   UNL     1       5.782   4.530  18.227  0.00  0.00    +0.000 C 
ENDROOT
BRANCH   1  19
ATOM     19  O   UNL     1       1.398   2.005  18.653  0.00  0.00    +0.000 OA
BRANCH  19  20
ATOM     20  C   UNL     1       2.011   1.462  19.828  0.00  0.00    +0.000 C 
BRANCH  20  22
ATOM     21  C   UNL     1       2.133   3.283  21.849  0.00  0.00    +0.000 C 
ATOM     22  C   UNL     1       2.044   2.468  20.943  0.00  0.00    +0.000 C 
ENDBRANCH  20  22
ENDBRANCH  19  20
ENDBRANCH   1  19
BRANCH  16  23
ATOM     23  C   UNL     1       7.780   7.562  17.577  0.00  0.00    +0.000 C 
BRANCH  23  24
ATOM     24  C   UNL     1       8.239   8.924  17.872  0.00  0.00    +0.000 C 
ATOM     25  C   UNL     1       8.713   9.881  18.422  0.00  0.00    +0.000 C 
ENDBRANCH  23  24
ENDBRANCH  16  23
TORSDOF 5
ENDMDL
MODEL 9
REMARK VINA RESULT:      -6.5      1.407      1.870
REMARK  Name = 
REMARK  5 active torsions:
REMARK  status: ('A' for Active; 'I' for Inactive)
REMARK    1  A    between atoms: C_2  and  C_3
REMARK    2  A    between atoms: C_3  and  O_4
REMARK    3  A    between atoms: O_4  and  C_5
REMARK    4  A    between atoms: N_20  and  C_21
REMARK    5  A    between atoms: C_21  and  C_22
REMARK                            x       y       z     vdW  Elec       q    Type
REMARK                         _______ _______ _______ _____ _____    ______ ____
ROOT
ATOM      1  C   UNL     1       5.862   4.086  14.913  0.00  0.00    +0.000 A 
ATOM      2  C   UNL     1       7.012   4.449  15.604  0.00  0.00    +0.000 A 
ATOM      3  C   UNL     1       6.952   4.693  17.006  0.00  0.00    +0.000 A 
ATOM      4  C   UNL     1       5.742   4.568  17.734  0.00  0.00    +0.000 A 
ATOM      5  C   UNL     1       4.646   4.014  17.073  0.00  0.00    +0.000 A 
ATOM      6  C   UNL     1       4.716   3.808  15.663  0.00  0.00    +0.000 A 
ATOM      7  C   UNL     1       3.301   3.991  17.783  0.00  0.00    +0.000 C 
ATOM      8  C   UNL     1       2.428   2.797  17.326  0.00  0.00    +0.000 C 
ATOM      9  C   UNL     1       1.249   2.466  18.257  0.00  0.00    +0.000 C 
ATOM     10  C   UNL     1       1.603   2.285  19.752  0.00  0.00    +0.000 C 
ATOM     11  C   UNL     1       3.086   2.618  20.078  0.00  0.00    +0.000 C 
ATOM     12  C   UNL     1       3.368   3.910  19.320  0.00  0.00    +0.000 C 
ATOM     13  C   UNL     1       4.158   5.056  19.891  0.00  0.00    +0.000 C 
ATOM     14  C   UNL     1       5.540   5.191  19.123  0.00  0.00    +0.000 C 
ATOM     15  O   UNL     1       6.512   5.766  19.624  0.00  0.00    +0.000 OA
ATOM     16  N   UNL     1       3.204   6.280  19.810  0.00  0.00    +0.000 NA
ATOM     17  C   UNL     1       2.262   6.198  18.606  0.00  0.00    +0.000 C 
ATOM     18  C   UNL     1       2.799   5.434  17.407  0.00  0.00    +0.000 C 
ENDROOT
BRANCH   1  19
ATOM     19  O   UNL     1       5.743   3.929  13.554  0.00  0.00    +0.000 OA
BRANCH  19  20
ATOM     20  C   UNL     1       6.954   3.686  12.830  0.00  0.00    +0.000 C 
BRANCH  20  22
ATOM     21  C   UNL     1       8.218   6.020  12.219  0.00  0.00    +0.000 C 
ATOM     22  C   UNL     1       7.638   4.972  12.461  0.00  0.00    +0.000 C 
ENDBRANCH  20  22
ENDBRANCH  19  20
ENDBRANCH   1  19
BRANCH  16  23
ATOM     23  C   UNL     1       2.200   6.308  20.941  0.00  0.00    +0.000 C 
BRANCH  23  24
ATOM     24  C   UNL     1       1.335   7.462  21.203  0.00  0.00    +0.000 C 
ATOM     25  C   UNL     1       0.830   8.552  21.158  0.00  0.00    +0.000 C 
ENDBRANCH  23  24
ENDBRANCH  16  23
TORSDOF 5
ENDMDL
