MODEL 1
REMARK VINA RESULT:      -7.8      0.000      0.000
REMARK  Name = 
REMARK  9 active torsions:
REMARK  status: ('A' for Active; 'I' for Inactive)
REMARK    1  A    between atoms: C_1  and  C_2
REMARK    2  A    between atoms: C_2  and  O_3
REMARK    3  A    between atoms: O_3  and  C_4
REMARK    4  A    between atoms: C_7  and  N_8
REMARK    5  A    between atoms: C_13  and  N_14
REMARK    6  A    between atoms: N_14  and  C_15
REMARK    7  A    between atoms: C_15  and  C_16
REMARK    8  A    between atoms: C_19  and  C_20
REMARK    9  A    between atoms: C_20  and  C_21
REMARK                            x       y       z     vdW  Elec       q    Type
REMARK                         _______ _______ _______ _____ _____    ______ ____
ROOT
ATOM      1  N   UNL     1      -1.016  11.081  22.095  0.00  0.00    +0.000 N 
ATOM      2  N   UNL     1      -0.577  10.815  23.375  0.00  0.00    +0.000 NA
ATOM      3  N   UNL     1       0.246   9.801  23.386  0.00  0.00    +0.000 NA
ATOM      4  C   UNL     1       0.539   9.497  22.105  0.00  0.00    +0.000 A 
ATOM      5  C   UNL     1       1.399   8.464  21.676  0.00  0.00    +0.000 A 
ATOM      6  C   UNL     1       1.728   8.218  20.343  0.00  0.00    +0.000 A 
ATOM      7  C   UNL     1       1.153   9.127  19.439  0.00  0.00    +0.000 A 
ATOM      8  C   UNL     1       0.191  10.182  19.829  0.00  0.00    +0.000 A 
ATOM      9  C   UNL     1      -0.148  10.345  21.210  0.00  0.00    +0.000 A 
ENDROOT
BRANCH   1  13
ATOM     10  C   UNL     1      -4.437  13.816  21.667  0.00  0.00    +0.000 A 
ATOM     11  C   UNL     1      -3.569  13.499  20.635  0.00  0.00    +0.000 A 
ATOM     12  C   UNL     1      -2.506  12.597  20.841  0.00  0.00    +0.000 A 
ATOM     13  C   UNL     1      -2.201  11.970  22.091  0.00  0.00    +0.000 A 
ATOM     14  C   UNL     1      -3.074  12.302  23.133  0.00  0.00    +0.000 A 
ATOM     15  C   UNL     1      -4.187  13.212  22.908  0.00  0.00    +0.000 A 
BRANCH  10  16
ATOM     16  O   UNL     1      -5.431  14.699  21.318  0.00  0.00    +0.000 OA
BRANCH  16  18
ATOM     17  C   UNL     1      -7.552  13.518  21.097  0.00  0.00    +0.000 C 
ATOM     18  C   UNL     1      -6.730  14.540  21.892  0.00  0.00    +0.000 C 
ENDBRANCH  16  18
ENDBRANCH  10  16
ENDBRANCH   1  13
BRANCH   6  19
ATOM     19  N   UNL     1       2.456   7.044  20.095  0.00  0.00    +0.000 N 
ATOM     20  H   UNL     1       3.427   7.271  19.883  0.00  0.00    +0.000 HD
BRANCH  19  21
ATOM     21  C   UNL     1       2.134   5.832  19.322  0.00  0.00    +0.000 C 
BRANCH  21  22
ATOM     22  C   UNL     1       3.165   5.631  18.180  0.00  0.00    +0.000 A 
ATOM     23  C   UNL     1       3.837   6.739  17.642  0.00  0.00    +0.000 A 
ATOM     24  C   UNL     1       4.809   6.610  16.631  0.00  0.00    +0.000 A 
ATOM     25  C   UNL     1       5.148   5.357  16.108  0.00  0.00    +0.000 A 
ATOM     26  C   UNL     1       4.492   4.240  16.630  0.00  0.00    +0.000 A 
ATOM     27  C   UNL     1       3.511   4.368  17.651  0.00  0.00    +0.000 A 
BRANCH  25  28
ATOM     28  C   UNL     1       6.194   5.237  15.014  0.00  0.00    +0.000 C 
ATOM     29  C   UNL     1       6.133   3.917  14.256  0.00  0.00    +0.000 C 
ENDBRANCH  25  28
ENDBRANCH  21  22
ENDBRANCH  19  21
ENDBRANCH   6  19
TORSDOF 7
ENDMDL
MODEL 2
REMARK VINA RESULT:      -7.7      0.866      1.543
REMARK  Name = 
REMARK  9 active torsions:
REMARK  status: ('A' for Active; 'I' for Inactive)
REMARK    1  A    between atoms: C_1  and  C_2
REMARK    2  A    between atoms: C_2  and  O_3
REMARK    3  A    between atoms: O_3  and  C_4
REMARK    4  A    between atoms: C_7  and  N_8
REMARK    5  A    between atoms: C_13  and  N_14
REMARK    6  A    between atoms: N_14  and  C_15
REMARK    7  A    between atoms: C_15  and  C_16
REMARK    8  A    between atoms: C_19  and  C_20
REMARK    9  A    between atoms: C_20  and  C_21
REMARK                            x       y       z     vdW  Elec       q    Type
REMARK                         _______ _______ _______ _____ _____    ______ ____
ROOT
ATOM      1  N   UNL     1      -0.710  11.212  21.881  0.00  0.00    +0.000 N 
ATOM      2  N   UNL     1      -0.397  10.898  23.187  0.00  0.00    +0.000 NA
ATOM      3  N   UNL     1       0.305   9.798  23.249  0.00  0.00    +0.000 NA
ATOM      4  C   UNL     1       0.652   9.462  21.990  0.00  0.00    +0.000 A 
ATOM      5  C   UNL     1       1.419   8.338  21.616  0.00  0.00    +0.000 A 
ATOM      6  C   UNL     1       1.814   8.057  20.308  0.00  0.00    +0.000 A 
ATOM      7  C   UNL     1       1.412   9.025  19.372  0.00  0.00    +0.000 A 
ATOM      8  C   UNL     1       0.549  10.182  19.701  0.00  0.00    +0.000 A 
ATOM      9  C   UNL     1       0.132  10.382  21.055  0.00  0.00    +0.000 A 
ENDROOT
BRANCH   1  13
ATOM     10  C   UNL     1      -3.953  14.179  22.072  0.00  0.00    +0.000 A 
ATOM     11  C   UNL     1      -3.435  13.531  23.181  0.00  0.00    +0.000 A 
ATOM     12  C   UNL     1      -2.380  12.606  23.046  0.00  0.00    +0.000 A 
ATOM     13  C   UNL     1      -1.784  12.228  21.800  0.00  0.00    +0.000 A 
ATOM     14  C   UNL     1      -2.319  12.877  20.682  0.00  0.00    +0.000 A 
ATOM     15  C   UNL     1      -3.390  13.851  20.830  0.00  0.00    +0.000 A 
BRANCH  10  16
ATOM     16  O   UNL     1      -4.970  15.060  22.358  0.00  0.00    +0.000 OA
BRANCH  16  18
ATOM     17  C   UNL     1      -6.927  15.568  23.719  0.00  0.00    +0.000 C 
ATOM     18  C   UNL     1      -5.452  15.146  23.700  0.00  0.00    +0.000 C 
ENDBRANCH  16  18
ENDBRANCH  10  16
ENDBRANCH   1  13
BRANCH   6  19
ATOM     19  N   UNL     1       2.421   6.809  20.104  0.00  0.00    +0.000 N 
ATOM     20  H   UNL     1       3.436   6.905  20.116  0.00  0.00    +0.000 HD
BRANCH  19  21
ATOM     21  C   UNL     1       2.119   5.709  19.170  0.00  0.00    +0.000 C 
BRANCH  21  22
ATOM     22  C   UNL     1       3.242   5.580  18.108  0.00  0.00    +0.000 A 
ATOM     23  C   UNL     1       3.600   4.315  17.618  0.00  0.00    +0.000 A 
ATOM     24  C   UNL     1       4.586   4.145  16.626  0.00  0.00    +0.000 A 
ATOM     25  C   UNL     1       5.265   5.242  16.084  0.00  0.00    +0.000 A 
ATOM     26  C   UNL     1       4.924   6.510  16.556  0.00  0.00    +0.000 A 
ATOM     27  C   UNL     1       3.929   6.685  17.556  0.00  0.00    +0.000 A 
BRANCH  25  28
ATOM     28  C   UNL     1       6.330   5.038  15.021  0.00  0.00    +0.000 C 
ATOM     29  C   UNL     1       5.902   4.090  13.906  0.00  0.00    +0.000 C 
ENDBRANCH  25  28
ENDBRANCH  21  22
ENDBRANCH  19  21
ENDBRANCH   6  19
TORSDOF 7
ENDMDL
MODEL 3
REMARK VINA RESULT:      -7.7      2.809      5.270
REMARK  Name = 
REMARK  9 active torsions:
REMARK  status: ('A' for Active; 'I' for Inactive)
REMARK    1  A    between atoms: C_1  and  C_2
REMARK    2  A    between atoms: C_2  and  O_3
REMARK    3  A    between atoms: O_3  and  C_4
REMARK    4  A    between atoms: C_7  and  N_8
REMARK    5  A    between atoms: C_13  and  N_14
REMARK    6  A    between atoms: N_14  and  C_15
REMARK    7  A    between atoms: C_15  and  C_16
REMARK    8  A    between atoms: C_19  and  C_20
REMARK    9  A    between atoms: C_20  and  C_21
REMARK                            x       y       z     vdW  Elec       q    Type
REMARK                         _______ _______ _______ _____ _____    ______ ____
ROOT
ATOM      1  N   UNL     1       1.832   7.940  19.605  0.00  0.00    +0.000 N 
ATOM      2  N   UNL     1       1.883   8.593  18.391  0.00  0.00    +0.000 NA
ATOM      3  N   UNL     1       2.704   7.994  17.570  0.00  0.00    +0.000 NA
ATOM      4  C   UNL     1       3.062   6.821  18.133  0.00  0.00    +0.000 A 
ATOM      5  C   UNL     1       3.936   5.867  17.570  0.00  0.00    +0.000 A 
ATOM      6  C   UNL     1       4.235   4.635  18.153  0.00  0.00    +0.000 A 
ATOM      7  C   UNL     1       3.550   4.395  19.356  0.00  0.00    +0.000 A 
ATOM      8  C   UNL     1       2.679   5.389  20.023  0.00  0.00    +0.000 A 
ATOM      9  C   UNL     1       2.459   6.657  19.399  0.00  0.00    +0.000 A 
ENDROOT
BRANCH   1  13
ATOM     10  C   UNL     1      -0.105  10.719  22.413  0.00  0.00    +0.000 A 
ATOM     11  C   UNL     1       0.003  10.949  21.051  0.00  0.00    +0.000 A 
ATOM     12  C   UNL     1       0.620  10.002  20.208  0.00  0.00    +0.000 A 
ATOM     13  C   UNL     1       1.206   8.775  20.655  0.00  0.00    +0.000 A 
ATOM     14  C   UNL     1       1.105   8.553  22.033  0.00  0.00    +0.000 A 
ATOM     15  C   UNL     1       0.443   9.521  22.895  0.00  0.00    +0.000 A 
BRANCH  10  16
ATOM     16  O   UNL     1      -0.738  11.724  23.106  0.00  0.00    +0.000 OA
BRANCH  16  18
ATOM     17  C   UNL     1      -2.838  12.802  22.497  0.00  0.00    +0.000 C 
ATOM     18  C   UNL     1      -1.308  12.812  22.377  0.00  0.00    +0.000 C 
ENDBRANCH  16  18
ENDBRANCH  10  16
ENDBRANCH   1  13
BRANCH   6  19
ATOM     19  N   UNL     1       5.256   3.895  17.538  0.00  0.00    +0.000 N 
ATOM     20  H   UNL     1       5.589   3.165  18.166  0.00  0.00    +0.000 HD
BRANCH  19  21
ATOM     21  C   UNL     1       6.416   4.306  16.726  0.00  0.00    +0.000 C 
BRANCH  21  22
ATOM     22  C   UNL     1       7.102   5.546  17.356  0.00  0.00    +0.000 A 
ATOM     23  C   UNL     1       7.097   6.770  16.671  0.00  0.00    +0.000 A 
ATOM     24  C   UNL     1       7.673   7.937  17.214  0.00  0.00    +0.000 A 
ATOM     25  C   UNL     1       8.287   7.924  18.471  0.00  0.00    +0.000 A 
ATOM     26  C   UNL     1       8.301   6.716  19.170  0.00  0.00    +0.000 A 
ATOM     27  C   UNL     1       7.721   5.538  18.626  0.00  0.00    +0.000 A 
BRANCH  25  28
ATOM     28  C   UNL     1       8.908   9.189  19.036  0.00  0.00    +0.000 C 
ATOM     29  C   UNL     1       8.849  10.375  18.080  0.00  0.00    +0.000 C 
ENDBRANCH  25  28
ENDBRANCH  21  22
ENDBRANCH  19  21
ENDBRANCH   6  19
TORSDOF 7
ENDMDL
MODEL 4
REMARK VINA RESULT:      -7.5      3.370     11.366
REMARK  Name = 
REMARK  9 active torsions:
REMARK  status: ('A' for Active; 'I' for Inactive)
REMARK    1  A    between atoms: C_1  and  C_2
REMARK    2  A    between atoms: C_2  and  O_3
REMARK    3  A    between atoms: O_3  and  C_4
REMARK    4  A    between atoms: C_7  and  N_8
REMARK    5  A    between atoms: C_13  and  N_14
REMARK    6  A    between atoms: N_14  and  C_15
REMARK    7  A    between atoms: C_15  and  C_16
REMARK    8  A    between atoms: C_19  and  C_20
REMARK    9  A    between atoms: C_20  and  C_21
REMARK                            x       y       z     vdW  Elec       q    Type
REMARK                         _______ _______ _______ _____ _____    ______ ____
ROOT
ATOM      1  N   UNL     1       2.522   7.834  18.345  0.00  0.00    +0.000 N 
ATOM      2  N   UNL     1       2.511   8.860  17.423  0.00  0.00    +0.000 NA
ATOM      3  N   UNL     1       1.661   9.790  17.766  0.00  0.00    +0.000 NA
ATOM      4  C   UNL     1       1.235   9.515  19.017  0.00  0.00    +0.000 A 
ATOM      5  C   UNL     1       0.311  10.277  19.762  0.00  0.00    +0.000 A 
ATOM      6  C   UNL     1      -0.058   9.997  21.078  0.00  0.00    +0.000 A 
ATOM      7  C   UNL     1       0.609   8.892  21.632  0.00  0.00    +0.000 A 
ATOM      8  C   UNL     1       1.533   8.019  20.872  0.00  0.00    +0.000 A 
ATOM      9  C   UNL     1       1.825   8.330  19.507  0.00  0.00    +0.000 A 
ENDROOT
BRANCH   1  13
ATOM     10  C   UNL     1       4.801   4.506  16.587  0.00  0.00    +0.000 A 
ATOM     11  C   UNL     1       5.172   5.836  16.481  0.00  0.00    +0.000 A 
ATOM     12  C   UNL     1       4.403   6.849  17.089  0.00  0.00    +0.000 A 
ATOM     13  C   UNL     1       3.191   6.623  17.816  0.00  0.00    +0.000 A 
ATOM     14  C   UNL     1       2.813   5.280  17.910  0.00  0.00    +0.000 A 
ATOM     15  C   UNL     1       3.626   4.235  17.304  0.00  0.00    +0.000 A 
BRANCH  10  16
ATOM     16  O   UNL     1       5.651   3.630  15.953  0.00  0.00    +0.000 OA
BRANCH  16  18
ATOM     17  C   UNL     1       6.031   3.813  13.552  0.00  0.00    +0.000 C 
ATOM     18  C   UNL     1       6.547   4.134  14.961  0.00  0.00    +0.000 C 
ENDBRANCH  16  18
ENDBRANCH  10  16
ENDBRANCH   1  13
BRANCH   6  19
ATOM     19  N   UNL     1      -1.116  10.759  21.595  0.00  0.00    +0.000 N 
ATOM     20  H   UNL     1      -1.426  11.444  20.906  0.00  0.00    +0.000 HD
BRANCH  19  21
ATOM     21  C   UNL     1      -1.330  11.374  22.917  0.00  0.00    +0.000 C 
BRANCH  21  22
ATOM     22  C   UNL     1      -2.687  12.126  22.948  0.00  0.00    +0.000 A 
ATOM     23  C   UNL     1      -3.200  12.692  21.771  0.00  0.00    +0.000 A 
ATOM     24  C   UNL     1      -4.444  13.352  21.736  0.00  0.00    +0.000 A 
ATOM     25  C   UNL     1      -5.229  13.480  22.887  0.00  0.00    +0.000 A 
ATOM     26  C   UNL     1      -4.738  12.923  24.068  0.00  0.00    +0.000 A 
ATOM     27  C   UNL     1      -3.484  12.256  24.108  0.00  0.00    +0.000 A 
BRANCH  25  28
ATOM     28  C   UNL     1      -6.564  14.201  22.830  0.00  0.00    +0.000 C 
ATOM     29  C   UNL     1      -6.435  15.701  22.591  0.00  0.00    +0.000 C 
ENDBRANCH  25  28
ENDBRANCH  21  22
ENDBRANCH  19  21
ENDBRANCH   6  19
TORSDOF 7
ENDMDL
MODEL 5
REMARK VINA RESULT:      -7.5      2.651      4.384
REMARK  Name = 
REMARK  9 active torsions:
REMARK  status: ('A' for Active; 'I' for Inactive)
REMARK    1  A    between atoms: C_1  and  C_2
REMARK    2  A    between atoms: C_2  and  O_3
REMARK    3  A    between atoms: O_3  and  C_4
REMARK    4  A    between atoms: C_7  and  N_8
REMARK    5  A    between atoms: C_13  and  N_14
REMARK    6  A    between atoms: N_14  and  C_15
REMARK    7  A    between atoms: C_15  and  C_16
REMARK    8  A    between atoms: C_19  and  C_20
REMARK    9  A    between atoms: C_20  and  C_21
REMARK                            x       y       z     vdW  Elec       q    Type
REMARK                         _______ _______ _______ _____ _____    ______ ____
ROOT
ATOM      1  N   UNL     1       1.381   8.420  19.993  0.00  0.00    +0.000 N 
ATOM      2  N   UNL     1       1.614   9.040  18.783  0.00  0.00    +0.000 NA
ATOM      3  N   UNL     1       2.571   8.441  18.127  0.00  0.00    +0.000 NA
ATOM      4  C   UNL     1       2.859   7.295  18.777  0.00  0.00    +0.000 A 
ATOM      5  C   UNL     1       3.834   6.350  18.394  0.00  0.00    +0.000 A 
ATOM      6  C   UNL     1       4.062   5.143  19.057  0.00  0.00    +0.000 A 
ATOM      7  C   UNL     1       3.195   4.918  20.139  0.00  0.00    +0.000 A 
ATOM      8  C   UNL     1       2.204   5.905  20.623  0.00  0.00    +0.000 A 
ATOM      9  C   UNL     1       2.061   7.149  19.932  0.00  0.00    +0.000 A 
ENDROOT
BRANCH   1  13
ATOM     10  C   UNL     1      -0.984  11.253  22.390  0.00  0.00    +0.000 A 
ATOM     11  C   UNL     1      -0.496  11.533  21.124  0.00  0.00    +0.000 A 
ATOM     12  C   UNL     1       0.237  10.567  20.406  0.00  0.00    +0.000 A 
ATOM     13  C   UNL     1       0.572   9.266  20.901  0.00  0.00    +0.000 A 
ATOM     14  C   UNL     1       0.088   8.993  22.184  0.00  0.00    +0.000 A 
ATOM     15  C   UNL     1      -0.692   9.983  22.911  0.00  0.00    +0.000 A 
BRANCH  10  16
ATOM     16  O   UNL     1      -1.688  12.285  22.965  0.00  0.00    +0.000 OA
BRANCH  16  18
ATOM     17  C   UNL     1      -0.680  14.502  23.057  0.00  0.00    +0.000 C 
ATOM     18  C   UNL     1      -1.664  13.569  22.339  0.00  0.00    +0.000 C 
ENDBRANCH  16  18
ENDBRANCH  10  16
ENDBRANCH   1  13
BRANCH   6  19
ATOM     19  N   UNL     1       5.185   4.415  18.639  0.00  0.00    +0.000 N 
ATOM     20  H   UNL     1       5.481   3.772  19.373  0.00  0.00    +0.000 HD
BRANCH  19  21
ATOM     21  C   UNL     1       6.409   4.819  17.923  0.00  0.00    +0.000 C 
BRANCH  21  22
ATOM     22  C   UNL     1       6.279   4.499  16.411  0.00  0.00    +0.000 A 
ATOM     23  C   UNL     1       7.231   4.994  15.507  0.00  0.00    +0.000 A 
ATOM     24  C   UNL     1       7.182   4.703  14.129  0.00  0.00    +0.000 A 
ATOM     25  C   UNL     1       6.166   3.904  13.594  0.00  0.00    +0.000 A 
ATOM     26  C   UNL     1       5.208   3.400  14.475  0.00  0.00    +0.000 A 
ATOM     27  C   UNL     1       5.255   3.691  15.865  0.00  0.00    +0.000 A 
BRANCH  25  28
ATOM     28  C   UNL     1       6.126   3.607  12.105  0.00  0.00    +0.000 C 
ATOM     29  C   UNL     1       4.728   3.290  11.586  0.00  0.00    +0.000 C 
ENDBRANCH  25  28
ENDBRANCH  21  22
ENDBRANCH  19  21
ENDBRANCH   6  19
TORSDOF 7
ENDMDL
MODEL 6
REMARK VINA RESULT:      -7.5      3.526     11.302
REMARK  Name = 
REMARK  9 active torsions:
REMARK  status: ('A' for Active; 'I' for Inactive)
REMARK    1  A    between atoms: C_1  and  C_2
REMARK    2  A    between atoms: C_2  and  O_3
REMARK    3  A    between atoms: O_3  and  C_4
REMARK    4  A    between atoms: C_7  and  N_8
REMARK    5  A    between atoms: C_13  and  N_14
REMARK    6  A    between atoms: N_14  and  C_15
REMARK    7  A    between atoms: C_15  and  C_16
REMARK    8  A    between atoms: C_19  and  C_20
REMARK    9  A    between atoms: C_20  and  C_21
REMARK                            x       y       z     vdW  Elec       q    Type
REMARK                         _______ _______ _______ _____ _____    ______ ____
ROOT
ATOM      1  N   UNL     1       2.977   6.228  18.478  0.00  0.00    +0.000 N 
ATOM      2  N   UNL     1       2.704   5.394  19.543  0.00  0.00    +0.000 NA
ATOM      3  N   UNL     1       2.175   6.059  20.534  0.00  0.00    +0.000 NA
ATOM      4  C   UNL     1       1.890   7.301  20.090  0.00  0.00    +0.000 A 
ATOM      5  C   UNL     1       1.303   8.336  20.847  0.00  0.00    +0.000 A 
ATOM      6  C   UNL     1       0.965   9.589  20.336  0.00  0.00    +0.000 A 
ATOM      7  C   UNL     1       1.225   9.731  18.963  0.00  0.00    +0.000 A 
ATOM      8  C   UNL     1       1.903   8.704  18.140  0.00  0.00    +0.000 A 
ATOM      9  C   UNL     1       2.275   7.460  18.741  0.00  0.00    +0.000 A 
ENDROOT
BRANCH   1  13
ATOM     10  C   UNL     1       5.764   4.742  15.414  0.00  0.00    +0.000 A 
ATOM     11  C   UNL     1       5.501   6.085  15.632  0.00  0.00    +0.000 A 
ATOM     12  C   UNL     1       4.611   6.488  16.648  0.00  0.00    +0.000 A 
ATOM     13  C   UNL     1       3.887   5.592  17.498  0.00  0.00    +0.000 A 
ATOM     14  C   UNL     1       4.147   4.237  17.266  0.00  0.00    +0.000 A 
ATOM     15  C   UNL     1       5.088   3.827  16.235  0.00  0.00    +0.000 A 
BRANCH  10  16
ATOM     16  O   UNL     1       6.659   4.500  14.399  0.00  0.00    +0.000 OA
BRANCH  16  18
ATOM     17  C   UNL     1       7.035   4.064  12.030  0.00  0.00    +0.000 C 
ATOM     18  C   UNL     1       6.248   3.693  13.294  0.00  0.00    +0.000 C 
ENDBRANCH  16  18
ENDBRANCH  10  16
ENDBRANCH   1  13
BRANCH   6  19
ATOM     19  N   UNL     1       0.552  10.546  21.275  0.00  0.00    +0.000 N 
ATOM     20  H   UNL     1      -0.149  10.147  21.899  0.00  0.00    +0.000 HD
BRANCH  19  21
ATOM     21  C   UNL     1       0.224  11.977  21.143  0.00  0.00    +0.000 C 
BRANCH  21  22
ATOM     22  C   UNL     1      -1.210  12.252  21.667  0.00  0.00    +0.000 A 
ATOM     23  C   UNL     1      -2.174  12.803  20.810  0.00  0.00    +0.000 A 
ATOM     24  C   UNL     1      -3.500  13.037  21.224  0.00  0.00    +0.000 A 
ATOM     25  C   UNL     1      -3.918  12.734  22.524  0.00  0.00    +0.000 A 
ATOM     26  C   UNL     1      -2.975  12.183  23.393  0.00  0.00    +0.000 A 
ATOM     27  C   UNL     1      -1.637  11.944  22.979  0.00  0.00    +0.000 A 
BRANCH  25  28
ATOM     28  C   UNL     1      -5.350  13.000  22.954  0.00  0.00    +0.000 C 
ATOM     29  C   UNL     1      -5.545  14.364  23.605  0.00  0.00    +0.000 C 
ENDBRANCH  25  28
ENDBRANCH  21  22
ENDBRANCH  19  21
ENDBRANCH   6  19
TORSDOF 7
ENDMDL
MODEL 7
REMARK VINA RESULT:      -7.5      2.169      3.124
REMARK  Name = 
REMARK  9 active torsions:
REMARK  status: ('A' for Active; 'I' for Inactive)
REMARK    1  A    between atoms: C_1  and  C_2
REMARK    2  A    between atoms: C_2  and  O_3
REMARK    3  A    between atoms: O_3  and  C_4
REMARK    4  A    between atoms: C_7  and  N_8
REMARK    5  A    between atoms: C_13  and  N_14
REMARK    6  A    between atoms: N_14  and  C_15
REMARK    7  A    between atoms: C_15  and  C_16
REMARK    8  A    between atoms: C_19  and  C_20
REMARK    9  A    between atoms: C_20  and  C_21
REMARK                            x       y       z     vdW  Elec       q    Type
REMARK                         _______ _______ _______ _____ _____    ______ ____
ROOT
ATOM      1  N   UNL     1      -1.189  11.615  21.899  0.00  0.00    +0.000 N 
ATOM      2  N   UNL     1      -0.324  11.098  22.840  0.00  0.00    +0.000 NA
ATOM      3  N   UNL     1       0.507  10.250  22.296  0.00  0.00    +0.000 NA
ATOM      4  C   UNL     1       0.359  10.332  20.958  0.00  0.00    +0.000 A 
ATOM      5  C   UNL     1       1.076   9.584  20.000  0.00  0.00    +0.000 A 
ATOM      6  C   UNL     1       0.941   9.741  18.619  0.00  0.00    +0.000 A 
ATOM      7  C   UNL     1       0.043  10.756  18.248  0.00  0.00    +0.000 A 
ATOM      8  C   UNL     1      -0.784  11.519  19.210  0.00  0.00    +0.000 A 
ATOM      9  C   UNL     1      -0.638  11.269  20.611  0.00  0.00    +0.000 A 
ENDROOT
BRANCH   1  13
ATOM     10  C   UNL     1      -4.706  13.809  23.375  0.00  0.00    +0.000 A 
ATOM     11  C   UNL     1      -4.260  13.860  22.064  0.00  0.00    +0.000 A 
ATOM     12  C   UNL     1      -3.136  13.112  21.658  0.00  0.00    +0.000 A 
ATOM     13  C   UNL     1      -2.350  12.288  22.526  0.00  0.00    +0.000 A 
ATOM     14  C   UNL     1      -2.798  12.249  23.850  0.00  0.00    +0.000 A 
ATOM     15  C   UNL     1      -3.976  13.001  24.258  0.00  0.00    +0.000 A 
BRANCH  10  16
ATOM     16  O   UNL     1      -5.817  14.580  23.623  0.00  0.00    +0.000 OA
BRANCH  16  18
ATOM     17  C   UNL     1      -7.894  13.655  22.742  0.00  0.00    +0.000 C 
ATOM     18  C   UNL     1      -7.039  13.934  23.986  0.00  0.00    +0.000 C 
ENDBRANCH  16  18
ENDBRANCH  10  16
ENDBRANCH   1  13
BRANCH   6  19
ATOM     19  N   UNL     1       1.603   8.793  17.825  0.00  0.00    +0.000 N 
ATOM     20  H   UNL     1       0.928   8.159  17.398  0.00  0.00    +0.000 HD
BRANCH  19  21
ATOM     21  C   UNL     1       2.828   8.005  18.051  0.00  0.00    +0.000 C 
BRANCH  21  22
ATOM     22  C   UNL     1       2.470   6.589  18.573  0.00  0.00    +0.000 A 
ATOM     23  C   UNL     1       2.532   6.315  19.948  0.00  0.00    +0.000 A 
ATOM     24  C   UNL     1       2.181   5.059  20.480  0.00  0.00    +0.000 A 
ATOM     25  C   UNL     1       1.757   4.014  19.651  0.00  0.00    +0.000 A 
ATOM     26  C   UNL     1       1.686   4.266  18.280  0.00  0.00    +0.000 A 
ATOM     27  C   UNL     1       2.038   5.532  17.740  0.00  0.00    +0.000 A 
BRANCH  25  28
ATOM     28  C   UNL     1       1.390   2.664  20.242  0.00  0.00    +0.000 C 
ATOM     29  C   UNL     1       1.397   2.646  21.766  0.00  0.00    +0.000 C 
ENDBRANCH  25  28
ENDBRANCH  21  22
ENDBRANCH  19  21
ENDBRANCH   6  19
TORSDOF 7
ENDMDL
MODEL 8
REMARK VINA RESULT:      -7.5      2.356      3.836
REMARK  Name = 
REMARK  9 active torsions:
REMARK  status: ('A' for Active; 'I' for Inactive)
REMARK    1  A    between atoms: C_1  and  C_2
REMARK    2  A    between atoms: C_2  and  O_3
REMARK    3  A    between atoms: O_3  and  C_4
REMARK    4  A    between atoms: C_7  and  N_8
REMARK    5  A    between atoms: C_13  and  N_14
REMARK    6  A    between atoms: N_14  and  C_15
REMARK    7  A    between atoms: C_15  and  C_16
REMARK    8  A    between atoms: C_19  and  C_20
REMARK    9  A    between atoms: C_20  and  C_21
REMARK                            x       y       z     vdW  Elec       q    Type
REMARK                         _______ _______ _______ _____ _____    ______ ____
ROOT
ATOM      1  N   UNL     1       1.295   9.423  19.036  0.00  0.00    +0.000 N 
ATOM      2  N   UNL     1       1.689   9.631  17.731  0.00  0.00    +0.000 NA
ATOM      3  N   UNL     1       2.550   8.726  17.351  0.00  0.00    +0.000 NA
ATOM      4  C   UNL     1       2.598   7.778  18.310  0.00  0.00    +0.000 A 
ATOM      5  C   UNL     1       3.403   6.620  18.288  0.00  0.00    +0.000 A 
ATOM      6  C   UNL     1       3.380   5.628  19.270  0.00  0.00    +0.000 A 
ATOM      7  C   UNL     1       2.440   5.860  20.289  0.00  0.00    +0.000 A 
ATOM      8  C   UNL     1       1.624   7.090  20.395  0.00  0.00    +0.000 A 
ATOM      9  C   UNL     1       1.737   8.095  19.383  0.00  0.00    +0.000 A 
ENDROOT
BRANCH   1  13
ATOM     10  C   UNL     1      -1.008  12.922  20.384  0.00  0.00    +0.000 A 
ATOM     11  C   UNL     1      -1.346  12.155  19.281  0.00  0.00    +0.000 A 
ATOM     12  C   UNL     1      -0.571  11.033  18.921  0.00  0.00    +0.000 A 
ATOM     13  C   UNL     1       0.614  10.610  19.603  0.00  0.00    +0.000 A 
ATOM     14  C   UNL     1       0.957  11.395  20.709  0.00  0.00    +0.000 A 
ATOM     15  C   UNL     1       0.138  12.535  21.094  0.00  0.00    +0.000 A 
BRANCH  10  16
ATOM     16  O   UNL     1      -1.859  13.976  20.620  0.00  0.00    +0.000 OA
BRANCH  16  18
ATOM     17  C   UNL     1      -3.357  13.070  22.317  0.00  0.00    +0.000 C 
ATOM     18  C   UNL     1      -3.228  13.702  20.925  0.00  0.00    +0.000 C 
ENDBRANCH  16  18
ENDBRANCH  10  16
ENDBRANCH   1  13
BRANCH   6  19
ATOM     19  N   UNL     1       4.371   4.640  19.169  0.00  0.00    +0.000 N 
ATOM     20  H   UNL     1       4.306   3.996  19.956  0.00  0.00    +0.000 HD
BRANCH  19  21
ATOM     21  C   UNL     1       5.798   4.712  18.808  0.00  0.00    +0.000 C 
BRANCH  21  22
ATOM     22  C   UNL     1       5.973   4.569  17.273  0.00  0.00    +0.000 A 
ATOM     23  C   UNL     1       7.139   5.046  16.655  0.00  0.00    +0.000 A 
ATOM     24  C   UNL     1       7.366   4.908  15.272  0.00  0.00    +0.000 A 
ATOM     25  C   UNL     1       6.425   4.288  14.442  0.00  0.00    +0.000 A 
ATOM     26  C   UNL     1       5.259   3.804  15.036  0.00  0.00    +0.000 A 
ATOM     27  C   UNL     1       5.027   3.941  16.432  0.00  0.00    +0.000 A 
BRANCH  25  28
ATOM     28  C   UNL     1       6.684   4.154  12.951  0.00  0.00    +0.000 C 
ATOM     29  C   UNL     1       5.722   3.204  12.250  0.00  0.00    +0.000 C 
ENDBRANCH  25  28
ENDBRANCH  21  22
ENDBRANCH  19  21
ENDBRANCH   6  19
TORSDOF 7
ENDMDL
MODEL 9
REMARK VINA RESULT:      -7.5      4.435     10.418
REMARK  Name = 
REMARK  9 active torsions:
REMARK  status: ('A' for Active; 'I' for Inactive)
REMARK    1  A    between atoms: C_1  and  C_2
REMARK    2  A    between atoms: C_2  and  O_3
REMARK    3  A    between atoms: O_3  and  C_4
REMARK    4  A    between atoms: C_7  and  N_8
REMARK    5  A    between atoms: C_13  and  N_14
REMARK    6  A    between atoms: N_14  and  C_15
REMARK    7  A    between atoms: C_15  and  C_16
REMARK    8  A    between atoms: C_19  and  C_20
REMARK    9  A    between atoms: C_20  and  C_21
REMARK                            x       y       z     vdW  Elec       q    Type
REMARK                         _______ _______ _______ _____ _____    ______ ____
ROOT
ATOM      1  N   UNL     1       3.290   6.010  18.086  0.00  0.00    +0.000 N 
ATOM      2  N   UNL     1       2.946   5.200  19.148  0.00  0.00    +0.000 NA
ATOM      3  N   UNL     1       2.378   5.892  20.099  0.00  0.00    +0.000 NA
ATOM      4  C   UNL     1       2.141   7.130  19.620  0.00  0.00    +0.000 A 
ATOM      5  C   UNL     1       1.535   8.189  20.329  0.00  0.00    +0.000 A 
ATOM      6  C   UNL     1       1.248   9.440  19.780  0.00  0.00    +0.000 A 
ATOM      7  C   UNL     1       1.583   9.553  18.420  0.00  0.00    +0.000 A 
ATOM      8  C   UNL     1       2.283   8.499  17.651  0.00  0.00    +0.000 A 
ATOM      9  C   UNL     1       2.599   7.259  18.291  0.00  0.00    +0.000 A 
ENDROOT
BRANCH   1  13
ATOM     10  C   UNL     1       6.166   4.413  15.163  0.00  0.00    +0.000 A 
ATOM     11  C   UNL     1       5.826   5.753  15.258  0.00  0.00    +0.000 A 
ATOM     12  C   UNL     1       4.912   6.195  16.235  0.00  0.00    +0.000 A 
ATOM     13  C   UNL     1       4.238   5.340  17.166  0.00  0.00    +0.000 A 
ATOM     14  C   UNL     1       4.576   3.987  17.058  0.00  0.00    +0.000 A 
ATOM     15  C   UNL     1       5.542   3.539  16.066  0.00  0.00    +0.000 A 
BRANCH  10  16
ATOM     16  O   UNL     1       7.077   4.131  14.172  0.00  0.00    +0.000 OA
BRANCH  16  18
ATOM     17  C   UNL     1       5.716   3.269  12.343  0.00  0.00    +0.000 C 
ATOM     18  C   UNL     1       6.703   4.347  12.810  0.00  0.00    +0.000 C 
ENDBRANCH  16  18
ENDBRANCH  10  16
ENDBRANCH   1  13
BRANCH   6  19
ATOM     19  N   UNL     1       0.806  10.420  20.681  0.00  0.00    +0.000 N 
ATOM     20  H   UNL     1       0.707  10.021  21.614  0.00  0.00    +0.000 HD
BRANCH  19  21
ATOM     21  C   UNL     1      -0.224  11.468  20.566  0.00  0.00    +0.000 C 
BRANCH  21  22
ATOM     22  C   UNL     1      -1.071  11.253  19.284  0.00  0.00    +0.000 A 
ATOM     23  C   UNL     1      -1.875  10.109  19.161  0.00  0.00    +0.000 A 
ATOM     24  C   UNL     1      -2.693   9.883  18.037  0.00  0.00    +0.000 A 
ATOM     25  C   UNL     1      -2.735  10.796  16.977  0.00  0.00    +0.000 A 
ATOM     26  C   UNL     1      -1.945  11.941  17.079  0.00  0.00    +0.000 A 
ATOM     27  C   UNL     1      -1.120  12.173  18.213  0.00  0.00    +0.000 A 
BRANCH  25  28
ATOM     28  C   UNL     1      -3.618  10.532  15.769  0.00  0.00    +0.000 C 
ATOM     29  C   UNL     1      -2.852  10.009  14.560  0.00  0.00    +0.000 C 
ENDBRANCH  25  28
ENDBRANCH  21  22
ENDBRANCH  19  21
ENDBRANCH   6  19
TORSDOF 7
ENDMDL
