MODEL 1
REMARK VINA RESULT:      -9.5      0.000      0.000
REMARK  Name = 
REMARK  5 active torsions:
REMARK  status: ('A' for Active; 'I' for Inactive)
REMARK    1  A    between atoms: N_2  and  C_4
REMARK    2  A    between atoms: C_9  and  C_10
REMARK    3  A    between atoms: N_11  and  N_12
REMARK    4  A    between atoms: N_16  and  C_17
REMARK    5  A    between atoms: N_25  and  C_26
REMARK                            x       y       z     vdW  Elec       q    Type
REMARK                         _______ _______ _______ _____ _____    ______ ____
ROOT
ATOM      1  N   UNL     1       1.593   9.293  18.116  0.00  0.00    +0.000 N 
ATOM      2  C   UNL     1       0.751  10.090  18.877  0.00  0.00    +0.000 A 
ATOM      3  N   UNL     1       0.920  10.378  20.142  0.00  0.00    +0.000 NA
ATOM      4  C   UNL     1      -0.059  11.165  20.722  0.00  0.00    +0.000 A 
ATOM      5  N   UNL     1       0.092  11.410  21.991  0.00  0.00    +0.000 NA
ATOM      6  N   UNL     1      -1.106  11.587  19.942  0.00  0.00    +0.000 N 
ATOM      7  C   UNL     1      -1.435  11.149  18.706  0.00  0.00    +0.000 A 
ATOM      8  N   UNL     1      -2.621  11.357  18.242  0.00  0.00    +0.000 NA
ATOM      9  N   UNL     1      -0.348  10.512  18.168  0.00  0.00    +0.000 N 
ATOM     10  H   UNL     1       1.342   9.201  17.136  0.00  0.00    +0.000 HD
ATOM     11  H   UNL     1      -1.797  12.191  20.344  0.00  0.00    +0.000 HD
ATOM     12  H   UNL     1      -0.396  10.301  17.189  0.00  0.00    +0.000 HD
ENDROOT
BRANCH   5  13
ATOM     13  C   UNL     1      -0.882  12.141  22.708  0.00  0.00    +0.000 A 
ATOM     14  C   UNL     1      -2.042  11.543  23.224  0.00  0.00    +0.000 A 
ATOM     15  C   UNL     1      -3.098  12.305  23.714  0.00  0.00    +0.000 A 
ATOM     16  C   UNL     1      -2.933  13.674  23.870  0.00  0.00    +0.000 A 
ATOM     17  C   UNL     1      -1.720  14.269  23.524  0.00  0.00    +0.000 A 
ATOM     18  C   UNL     1      -0.707  13.507  22.921  0.00  0.00    +0.000 A 
ENDBRANCH   5  13
BRANCH   8  19
ATOM     19  C   UNL     1      -3.019  10.894  16.985  0.00  0.00    +0.000 A 
ATOM     20  C   UNL     1      -2.354   9.878  16.288  0.00  0.00    +0.000 A 
ATOM     21  C   UNL     1      -2.649   9.601  14.963  0.00  0.00    +0.000 A 
ATOM     22  C   UNL     1      -3.733  10.246  14.363  0.00  0.00    +0.000 A 
ATOM     23  C   UNL     1      -4.509  11.143  15.089  0.00  0.00    +0.000 A 
ATOM     24  C   UNL     1      -4.143  11.465  16.396  0.00  0.00    +0.000 A 
ENDBRANCH   8  19
BRANCH   1  26
ATOM     25  C   UNL     1       2.744   7.383  17.794  0.00  0.00    +0.000 C 
ATOM     26  N   UNL     1       2.334   8.274  18.646  0.00  0.00    +0.000 NA
BRANCH  25  32
ATOM     27  C   UNL     1       4.789   5.869  17.823  0.00  0.00    +0.000 A 
ATOM     28  C   UNL     1       5.471   4.729  18.279  0.00  0.00    +0.000 A 
ATOM     29  C   UNL     1       4.803   3.917  19.168  0.00  0.00    +0.000 A 
ATOM     30  C   UNL     1       3.532   4.210  19.605  0.00  0.00    +0.000 A 
ATOM     31  C   UNL     1       2.852   5.336  19.180  0.00  0.00    +0.000 A 
ATOM     32  C   UNL     1       3.487   6.188  18.260  0.00  0.00    +0.000 A 
ATOM     33  O   UNL     1       3.060   3.276  20.472  0.00  0.00    +0.000 OA
ATOM     34  C   UNL     1       4.162   2.344  20.506  0.00  0.00    +0.000 C 
ATOM     35  O   UNL     1       5.288   2.771  19.710  0.00  0.00    +0.000 OA
BRANCH  27  37
ATOM     36  O   UNL     1       6.343   7.498  17.397  0.00  0.00    +0.000 OA
ATOM     37  N   UNL     1       5.498   6.733  16.909  0.00  0.00    +0.000 N 
ATOM     38  O   UNL     1       5.238   6.622  15.705  0.00  0.00    +0.000 OA
ENDBRANCH  27  37
ENDBRANCH  25  32
ENDBRANCH   1  26
TORSDOF 5
ENDMDL
MODEL 2
REMARK VINA RESULT:      -9.1      1.293      2.298
REMARK  Name = 
REMARK  5 active torsions:
REMARK  status: ('A' for Active; 'I' for Inactive)
REMARK    1  A    between atoms: N_2  and  C_4
REMARK    2  A    between atoms: C_9  and  C_10
REMARK    3  A    between atoms: N_11  and  N_12
REMARK    4  A    between atoms: N_16  and  C_17
REMARK    5  A    between atoms: N_25  and  C_26
REMARK                            x       y       z     vdW  Elec       q    Type
REMARK                         _______ _______ _______ _____ _____    ______ ____
ROOT
ATOM      1  N   UNL     1       1.754  10.107  17.736  0.00  0.00    +0.000 N 
ATOM      2  C   UNL     1       0.847  10.712  18.594  0.00  0.00    +0.000 A 
ATOM      3  N   UNL     1       1.066  10.991  19.853  0.00  0.00    +0.000 NA
ATOM      4  C   UNL     1       0.011  11.566  20.540  0.00  0.00    +0.000 A 
ATOM      5  N   UNL     1       0.220  11.799  21.803  0.00  0.00    +0.000 NA
ATOM      6  N   UNL     1      -1.157  11.807  19.862  0.00  0.00    +0.000 N 
ATOM      7  C   UNL     1      -1.503  11.350  18.637  0.00  0.00    +0.000 A 
ATOM      8  N   UNL     1      -2.741  11.347  18.275  0.00  0.00    +0.000 NA
ATOM      9  N   UNL     1      -0.366  10.942  17.990  0.00  0.00    +0.000 N 
ATOM     10  H   UNL     1       1.444   9.998  16.776  0.00  0.00    +0.000 HD
ATOM     11  H   UNL     1      -1.911  12.261  20.341  0.00  0.00    +0.000 HD
ATOM     12  H   UNL     1      -0.456  10.753  17.009  0.00  0.00    +0.000 HD
ENDROOT
BRANCH   5  13
ATOM     13  C   UNL     1      -0.808  12.316  22.623  0.00  0.00    +0.000 A 
ATOM     14  C   UNL     1      -1.860  11.520  23.102  0.00  0.00    +0.000 A 
ATOM     15  C   UNL     1      -2.982  12.080  23.703  0.00  0.00    +0.000 A 
ATOM     16  C   UNL     1      -2.986  13.435  24.005  0.00  0.00    +0.000 A 
ATOM     17  C   UNL     1      -1.874  14.217  23.694  0.00  0.00    +0.000 A 
ATOM     18  C   UNL     1      -0.799  13.663  22.982  0.00  0.00    +0.000 A 
ENDBRANCH   5  13
BRANCH   8  19
ATOM     19  C   UNL     1      -3.151  10.853  17.033  0.00  0.00    +0.000 A 
ATOM     20  C   UNL     1      -2.580   9.732  16.419  0.00  0.00    +0.000 A 
ATOM     21  C   UNL     1      -2.865   9.409  15.103  0.00  0.00    +0.000 A 
ATOM     22  C   UNL     1      -3.857  10.127  14.430  0.00  0.00    +0.000 A 
ATOM     23  C   UNL     1      -4.552  11.143  15.076  0.00  0.00    +0.000 A 
ATOM     24  C   UNL     1      -4.190  11.504  16.375  0.00  0.00    +0.000 A 
ENDBRANCH   8  19
BRANCH   1  26
ATOM     25  C   UNL     1       2.794   8.124  17.487  0.00  0.00    +0.000 C 
ATOM     26  N   UNL     1       2.711   9.230  18.163  0.00  0.00    +0.000 NA
BRANCH  25  32
ATOM     27  C   UNL     1       3.464   6.146  18.942  0.00  0.00    +0.000 A 
ATOM     28  C   UNL     1       4.379   5.150  19.320  0.00  0.00    +0.000 A 
ATOM     29  C   UNL     1       5.574   5.110  18.638  0.00  0.00    +0.000 A 
ATOM     30  C   UNL     1       5.861   5.994  17.624  0.00  0.00    +0.000 A 
ATOM     31  C   UNL     1       4.967   6.971  17.227  0.00  0.00    +0.000 A 
ATOM     32  C   UNL     1       3.738   7.060  17.904  0.00  0.00    +0.000 A 
ATOM     33  O   UNL     1       7.094   5.781  17.092  0.00  0.00    +0.000 OA
ATOM     34  C   UNL     1       7.566   4.688  17.908  0.00  0.00    +0.000 C 
ATOM     35  O   UNL     1       6.584   4.231  18.864  0.00  0.00    +0.000 OA
BRANCH  27  37
ATOM     36  O   UNL     1       1.397   5.265  19.387  0.00  0.00    +0.000 OA
ATOM     37  N   UNL     1       2.201   6.174  19.641  0.00  0.00    +0.000 N 
ATOM     38  O   UNL     1       2.028   7.079  20.466  0.00  0.00    +0.000 OA
ENDBRANCH  27  37
ENDBRANCH  25  32
ENDBRANCH   1  26
TORSDOF 5
ENDMDL
MODEL 3
REMARK VINA RESULT:      -8.8      6.583     10.979
REMARK  Name = 
REMARK  5 active torsions:
REMARK  status: ('A' for Active; 'I' for Inactive)
REMARK    1  A    between atoms: N_2  and  C_4
REMARK    2  A    between atoms: C_9  and  C_10
REMARK    3  A    between atoms: N_11  and  N_12
REMARK    4  A    between atoms: N_16  and  C_17
REMARK    5  A    between atoms: N_25  and  C_26
REMARK                            x       y       z     vdW  Elec       q    Type
REMARK                         _______ _______ _______ _____ _____    ______ ____
ROOT
ATOM      1  N   UNL     1       7.856   7.714  18.629  0.00  0.00    +0.000 N 
ATOM      2  C   UNL     1       7.338   6.834  17.689  0.00  0.00    +0.000 A 
ATOM      3  N   UNL     1       7.814   6.645  16.485  0.00  0.00    +0.000 NA
ATOM      4  C   UNL     1       7.125   5.744  15.693  0.00  0.00    +0.000 A 
ATOM      5  N   UNL     1       7.577   5.595  14.483  0.00  0.00    +0.000 NA
ATOM      6  N   UNL     1       6.023   5.120  16.221  0.00  0.00    +0.000 N 
ATOM      7  C   UNL     1       5.373   5.432  17.365  0.00  0.00    +0.000 A 
ATOM      8  N   UNL     1       4.169   5.013  17.559  0.00  0.00    +0.000 NA
ATOM      9  N   UNL     1       6.201   6.204  18.137  0.00  0.00    +0.000 N 
ATOM     10  H   UNL     1       7.394   7.711  19.533  0.00  0.00    +0.000 HD
ATOM     11  H   UNL     1       5.543   4.435  15.669  0.00  0.00    +0.000 HD
ATOM     12  H   UNL     1       5.914   6.352  19.086  0.00  0.00    +0.000 HD
ENDROOT
BRANCH   5  13
ATOM     13  C   UNL     1       6.912   4.758  13.559  0.00  0.00    +0.000 A 
ATOM     14  C   UNL     1       5.611   4.281  13.779  0.00  0.00    +0.000 A 
ATOM     15  C   UNL     1       5.060   3.276  12.989  0.00  0.00    +0.000 A 
ATOM     16  C   UNL     1       5.733   2.864  11.848  0.00  0.00    +0.000 A 
ATOM     17  C   UNL     1       6.952   3.452  11.513  0.00  0.00    +0.000 A 
ATOM     18  C   UNL     1       7.551   4.378  12.381  0.00  0.00    +0.000 A 
ENDBRANCH   5  13
BRANCH   8  19
ATOM     19  C   UNL     1       3.444   5.338  18.709  0.00  0.00    +0.000 A 
ATOM     20  C   UNL     1       3.234   4.448  19.768  0.00  0.00    +0.000 A 
ATOM     21  C   UNL     1       2.336   4.735  20.783  0.00  0.00    +0.000 A 
ATOM     22  C   UNL     1       1.747   6.001  20.826  0.00  0.00    +0.000 A 
ATOM     23  C   UNL     1       2.067   6.959  19.870  0.00  0.00    +0.000 A 
ATOM     24  C   UNL     1       2.911   6.619  18.813  0.00  0.00    +0.000 A 
ENDBRANCH   8  19
BRANCH   1  26
ATOM     25  C   UNL     1       8.892   9.602  19.289  0.00  0.00    +0.000 C 
ATOM     26  N   UNL     1       8.510   8.865  18.290  0.00  0.00    +0.000 NA
BRANCH  25  32
ATOM     27  C   UNL     1       9.508  11.975  19.974  0.00  0.00    +0.000 A 
ATOM     28  C   UNL     1      10.127  13.209  19.718  0.00  0.00    +0.000 A 
ATOM     29  C   UNL     1      10.762  13.347  18.505  0.00  0.00    +0.000 A 
ATOM     30  C   UNL     1      10.803  12.324  17.585  0.00  0.00    +0.000 A 
ATOM     31  C   UNL     1      10.213  11.098  17.826  0.00  0.00    +0.000 A 
ATOM     32  C   UNL     1       9.540  10.913  19.047  0.00  0.00    +0.000 A 
ATOM     33  O   UNL     1      11.473  12.676  16.456  0.00  0.00    +0.000 OA
ATOM     34  C   UNL     1      11.820  14.046  16.752  0.00  0.00    +0.000 C 
ATOM     35  O   UNL     1      11.406  14.462  18.071  0.00  0.00    +0.000 OA
BRANCH  27  37
ATOM     36  O   UNL     1       9.166  10.821  21.924  0.00  0.00    +0.000 OA
ATOM     37  N   UNL     1       8.862  11.821  21.257  0.00  0.00    +0.000 N 
ATOM     38  O   UNL     1       8.083  12.713  21.611  0.00  0.00    +0.000 OA
ENDBRANCH  27  37
ENDBRANCH  25  32
ENDBRANCH   1  26
TORSDOF 5
ENDMDL
MODEL 4
REMARK VINA RESULT:      -8.7      2.733      5.462
REMARK  Name = 
REMARK  5 active torsions:
REMARK  status: ('A' for Active; 'I' for Inactive)
REMARK    1  A    between atoms: N_2  and  C_4
REMARK    2  A    between atoms: C_9  and  C_10
REMARK    3  A    between atoms: N_11  and  N_12
REMARK    4  A    between atoms: N_16  and  C_17
REMARK    5  A    between atoms: N_25  and  C_26
REMARK                            x       y       z     vdW  Elec       q    Type
REMARK                         _______ _______ _______ _____ _____    ______ ____
ROOT
ATOM      1  N   UNL     1       2.413   9.304  18.483  0.00  0.00    +0.000 N 
ATOM      2  C   UNL     1       1.170   9.912  18.385  0.00  0.00    +0.000 A 
ATOM      3  N   UNL     1       0.083   9.344  17.929  0.00  0.00    +0.000 NA
ATOM      4  C   UNL     1      -1.047  10.142  17.886  0.00  0.00    +0.000 A 
ATOM      5  N   UNL     1      -2.112   9.584  17.389  0.00  0.00    +0.000 NA
ATOM      6  N   UNL     1      -0.949  11.438  18.325  0.00  0.00    +0.000 N 
ATOM      7  C   UNL     1       0.181  12.127  18.601  0.00  0.00    +0.000 A 
ATOM      8  N   UNL     1       0.155  13.416  18.654  0.00  0.00    +0.000 NA
ATOM      9  N   UNL     1       1.204  11.232  18.768  0.00  0.00    +0.000 N 
ATOM     10  H   UNL     1       3.147   9.871  18.898  0.00  0.00    +0.000 HD
ATOM     11  H   UNL     1      -1.772  12.009  18.335  0.00  0.00    +0.000 HD
ATOM     12  H   UNL     1       2.054  11.596  19.156  0.00  0.00    +0.000 HD
ENDROOT
BRANCH   5  13
ATOM     13  C   UNL     1      -3.306  10.322  17.225  0.00  0.00    +0.000 A 
ATOM     14  C   UNL     1      -3.591  11.041  16.054  0.00  0.00    +0.000 A 
ATOM     15  C   UNL     1      -4.645  11.947  15.995  0.00  0.00    +0.000 A 
ATOM     16  C   UNL     1      -5.546  12.012  17.047  0.00  0.00    +0.000 A 
ATOM     17  C   UNL     1      -5.380  11.178  18.153  0.00  0.00    +0.000 A 
ATOM     18  C   UNL     1      -4.248  10.354  18.251  0.00  0.00    +0.000 A 
ENDBRANCH   5  13
BRANCH   8  19
ATOM     19  C   UNL     1       1.303  14.173  18.901  0.00  0.00    +0.000 A 
ATOM     20  C   UNL     1       2.330  14.349  17.967  0.00  0.00    +0.000 A 
ATOM     21  C   UNL     1       3.539  14.922  18.326  0.00  0.00    +0.000 A 
ATOM     22  C   UNL     1       3.675  15.471  19.604  0.00  0.00    +0.000 A 
ATOM     23  C   UNL     1       2.608  15.450  20.495  0.00  0.00    +0.000 A 
ATOM     24  C   UNL     1       1.429  14.796  20.140  0.00  0.00    +0.000 A 
ENDBRANCH   8  19
BRANCH   1  26
ATOM     25  C   UNL     1       3.518   7.362  18.195  0.00  0.00    +0.000 C 
ATOM     26  N   UNL     1       2.824   8.310  17.640  0.00  0.00    +0.000 NA
BRANCH  25  32
ATOM     27  C   UNL     1       3.714   4.919  17.510  0.00  0.00    +0.000 A 
ATOM     28  C   UNL     1       4.272   3.903  16.717  0.00  0.00    +0.000 A 
ATOM     29  C   UNL     1       5.221   4.283  15.795  0.00  0.00    +0.000 A 
ATOM     30  C   UNL     1       5.601   5.596  15.644  0.00  0.00    +0.000 A 
ATOM     31  C   UNL     1       5.051   6.612  16.404  0.00  0.00    +0.000 A 
ATOM     32  C   UNL     1       4.088   6.271  17.369  0.00  0.00    +0.000 A 
ATOM     33  O   UNL     1       6.553   5.747  14.685  0.00  0.00    +0.000 OA
ATOM     34  C   UNL     1       6.756   4.378  14.275  0.00  0.00    +0.000 C 
ATOM     35  O   UNL     1       5.879   3.450  14.949  0.00  0.00    +0.000 OA
BRANCH  27  37
ATOM     36  O   UNL     1       3.073   4.310  19.624  0.00  0.00    +0.000 OA
ATOM     37  N   UNL     1       2.701   4.524  18.461  0.00  0.00    +0.000 N 
ATOM     38  O   UNL     1       1.534   4.465  18.057  0.00  0.00    +0.000 OA
ENDBRANCH  27  37
ENDBRANCH  25  32
ENDBRANCH   1  26
TORSDOF 5
ENDMDL
MODEL 5
REMARK VINA RESULT:      -8.6      2.830      5.540
REMARK  Name = 
REMARK  5 active torsions:
REMARK  status: ('A' for Active; 'I' for Inactive)
REMARK    1  A    between atoms: N_2  and  C_4
REMARK    2  A    between atoms: C_9  and  C_10
REMARK    3  A    between atoms: N_11  and  N_12
REMARK    4  A    between atoms: N_16  and  C_17
REMARK    5  A    between atoms: N_25  and  C_26
REMARK                            x       y       z     vdW  Elec       q    Type
REMARK                         _______ _______ _______ _____ _____    ______ ____
ROOT
ATOM      1  N   UNL     1       2.537   9.234  18.558  0.00  0.00    +0.000 N 
ATOM      2  C   UNL     1       1.350   9.947  18.476  0.00  0.00    +0.000 A 
ATOM      3  N   UNL     1       0.206   9.469  18.056  0.00  0.00    +0.000 NA
ATOM      4  C   UNL     1      -0.850  10.363  18.023  0.00  0.00    +0.000 A 
ATOM      5  N   UNL     1      -1.972   9.893  17.561  0.00  0.00    +0.000 NA
ATOM      6  N   UNL     1      -0.629  11.652  18.435  0.00  0.00    +0.000 N 
ATOM      7  C   UNL     1       0.564  12.243  18.673  0.00  0.00    +0.000 A 
ATOM      8  N   UNL     1       0.652  13.530  18.702  0.00  0.00    +0.000 NA
ATOM      9  N   UNL     1       1.509  11.265  18.834  0.00  0.00    +0.000 N 
ATOM     10  H   UNL     1       3.327   9.740  18.945  0.00  0.00    +0.000 HD
ATOM     11  H   UNL     1      -1.398  12.294  18.453  0.00  0.00    +0.000 HD
ATOM     12  H   UNL     1       2.396  11.559  19.195  0.00  0.00    +0.000 HD
ENDROOT
BRANCH   5  13
ATOM     13  C   UNL     1      -3.100  10.730  17.411  0.00  0.00    +0.000 A 
ATOM     14  C   UNL     1      -3.781  11.278  18.508  0.00  0.00    +0.000 A 
ATOM     15  C   UNL     1      -5.018  11.899  18.362  0.00  0.00    +0.000 A 
ATOM     16  C   UNL     1      -5.506  12.149  17.087  0.00  0.00    +0.000 A 
ATOM     17  C   UNL     1      -4.759  11.767  15.973  0.00  0.00    +0.000 A 
ATOM     18  C   UNL     1      -3.572  11.037  16.135  0.00  0.00    +0.000 A 
ENDBRANCH   5  13
BRANCH   8  19
ATOM     19  C   UNL     1       1.868  14.187  18.910  0.00  0.00    +0.000 A 
ATOM     20  C   UNL     1       2.766  14.497  17.881  0.00  0.00    +0.000 A 
ATOM     21  C   UNL     1       4.046  14.950  18.155  0.00  0.00    +0.000 A 
ATOM     22  C   UNL     1       4.389  15.248  19.476  0.00  0.00    +0.000 A 
ATOM     23  C   UNL     1       3.456  15.101  20.497  0.00  0.00    +0.000 A 
ATOM     24  C   UNL     1       2.201  14.566  20.207  0.00  0.00    +0.000 A 
ENDBRANCH   8  19
BRANCH   1  26
ATOM     25  C   UNL     1       3.797   7.416  18.130  0.00  0.00    +0.000 C 
ATOM     26  N   UNL     1       2.838   8.193  17.724  0.00  0.00    +0.000 NA
BRANCH  25  32
ATOM     27  C   UNL     1       3.821   4.972  17.420  0.00  0.00    +0.000 A 
ATOM     28  C   UNL     1       4.287   3.933  16.598  0.00  0.00    +0.000 A 
ATOM     29  C   UNL     1       5.221   4.265  15.642  0.00  0.00    +0.000 A 
ATOM     30  C   UNL     1       5.672   5.556  15.486  0.00  0.00    +0.000 A 
ATOM     31  C   UNL     1       5.213   6.594  16.275  0.00  0.00    +0.000 A 
ATOM     32  C   UNL     1       4.269   6.301  17.274  0.00  0.00    +0.000 A 
ATOM     33  O   UNL     1       6.594   5.659  14.492  0.00  0.00    +0.000 OA
ATOM     34  C   UNL     1       6.699   4.285  14.063  0.00  0.00    +0.000 C 
ATOM     35  O   UNL     1       5.796   3.403  14.765  0.00  0.00    +0.000 OA
BRANCH  27  37
ATOM     36  O   UNL     1       1.643   4.606  18.030  0.00  0.00    +0.000 OA
ATOM     37  N   UNL     1       2.824   4.628  18.407  0.00  0.00    +0.000 N 
ATOM     38  O   UNL     1       3.223   4.347  19.543  0.00  0.00    +0.000 OA
ENDBRANCH  27  37
ENDBRANCH  25  32
ENDBRANCH   1  26
TORSDOF 5
ENDMDL
MODEL 6
REMARK VINA RESULT:      -8.5      6.396     10.958
REMARK  Name = 
REMARK  5 active torsions:
REMARK  status: ('A' for Active; 'I' for Inactive)
REMARK    1  A    between atoms: N_2  and  C_4
REMARK    2  A    between atoms: C_9  and  C_10
REMARK    3  A    between atoms: N_11  and  N_12
REMARK    4  A    between atoms: N_16  and  C_17
REMARK    5  A    between atoms: N_25  and  C_26
REMARK                            x       y       z     vdW  Elec       q    Type
REMARK                         _______ _______ _______ _____ _____    ______ ____
ROOT
ATOM      1  N   UNL     1       7.708   7.915  18.611  0.00  0.00    +0.000 N 
ATOM      2  C   UNL     1       7.233   6.999  17.684  0.00  0.00    +0.000 A 
ATOM      3  N   UNL     1       7.803   6.713  16.542  0.00  0.00    +0.000 NA
ATOM      4  C   UNL     1       7.143   5.791  15.748  0.00  0.00    +0.000 A 
ATOM      5  N   UNL     1       7.691   5.547  14.593  0.00  0.00    +0.000 NA
ATOM      6  N   UNL     1       5.973   5.247  16.212  0.00  0.00    +0.000 N 
ATOM      7  C   UNL     1       5.242   5.658  17.273  0.00  0.00    +0.000 A 
ATOM      8  N   UNL     1       4.008   5.301  17.384  0.00  0.00    +0.000 NA
ATOM      9  N   UNL     1       6.035   6.445  18.067  0.00  0.00    +0.000 N 
ATOM     10  H   UNL     1       7.170   7.990  19.469  0.00  0.00    +0.000 HD
ATOM     11  H   UNL     1       5.511   4.548  15.663  0.00  0.00    +0.000 HD
ATOM     12  H   UNL     1       5.674   6.665  18.976  0.00  0.00    +0.000 HD
ENDROOT
BRANCH   5  13
ATOM     13  C   UNL     1       7.070   4.679  13.667  0.00  0.00    +0.000 A 
ATOM     14  C   UNL     1       7.617   4.413  12.402  0.00  0.00    +0.000 A 
ATOM     15  C   UNL     1       6.887   3.754  11.418  0.00  0.00    +0.000 A 
ATOM     16  C   UNL     1       5.666   3.183  11.745  0.00  0.00    +0.000 A 
ATOM     17  C   UNL     1       5.181   3.285  13.048  0.00  0.00    +0.000 A 
ATOM     18  C   UNL     1       5.870   4.053  13.999  0.00  0.00    +0.000 A 
ENDBRANCH   5  13
BRANCH   8  19
ATOM     19  C   UNL     1       3.202   5.728  18.443  0.00  0.00    +0.000 A 
ATOM     20  C   UNL     1       2.734   7.040  18.579  0.00  0.00    +0.000 A 
ATOM     21  C   UNL     1       2.125   7.471  19.746  0.00  0.00    +0.000 A 
ATOM     22  C   UNL     1       1.837   6.534  20.743  0.00  0.00    +0.000 A 
ATOM     23  C   UNL     1       2.149   5.192  20.560  0.00  0.00    +0.000 A 
ATOM     24  C   UNL     1       2.836   4.798  19.411  0.00  0.00    +0.000 A 
ENDBRANCH   8  19
BRANCH   1  26
ATOM     25  C   UNL     1       8.942   9.687  19.255  0.00  0.00    +0.000 C 
ATOM     26  N   UNL     1       8.441   9.015  18.262  0.00  0.00    +0.000 NA
BRANCH  25  32
ATOM     27  C   UNL     1       9.652  12.050  19.880  0.00  0.00    +0.000 A 
ATOM     28  C   UNL     1      10.366  13.231  19.620  0.00  0.00    +0.000 A 
ATOM     29  C   UNL     1      11.101  13.270  18.456  0.00  0.00    +0.000 A 
ATOM     30  C   UNL     1      11.148  12.202  17.590  0.00  0.00    +0.000 A 
ATOM     31  C   UNL     1      10.465  11.026  17.838  0.00  0.00    +0.000 A 
ATOM     32  C   UNL     1       9.689  10.943  19.007  0.00  0.00    +0.000 A 
ATOM     33  O   UNL     1      11.925  12.457  16.504  0.00  0.00    +0.000 OA
ATOM     34  C   UNL     1      12.333  13.817  16.765  0.00  0.00    +0.000 C 
ATOM     35  O   UNL     1      11.845  14.322  18.027  0.00  0.00    +0.000 OA
BRANCH  27  37
ATOM     36  O   UNL     1       9.031  10.982  21.810  0.00  0.00    +0.000 OA
ATOM     37  N   UNL     1       8.899  11.998  21.112  0.00  0.00    +0.000 N 
ATOM     38  O   UNL     1       8.210  12.984  21.398  0.00  0.00    +0.000 OA
ENDBRANCH  27  37
ENDBRANCH  25  32
ENDBRANCH   1  26
TORSDOF 5
ENDMDL
MODEL 7
REMARK VINA RESULT:      -8.4      2.295      5.451
REMARK  Name = 
REMARK  5 active torsions:
REMARK  status: ('A' for Active; 'I' for Inactive)
REMARK    1  A    between atoms: N_2  and  C_4
REMARK    2  A    between atoms: C_9  and  C_10
REMARK    3  A    between atoms: N_11  and  N_12
REMARK    4  A    between atoms: N_16  and  C_17
REMARK    5  A    between atoms: N_25  and  C_26
REMARK                            x       y       z     vdW  Elec       q    Type
REMARK                         _______ _______ _______ _____ _____    ______ ____
ROOT
ATOM      1  N   UNL     1       1.389   9.507  19.412  0.00  0.00    +0.000 N 
ATOM      2  C   UNL     1       0.145  10.096  19.238  0.00  0.00    +0.000 A 
ATOM      3  N   UNL     1      -0.869   9.553  18.614  0.00  0.00    +0.000 NA
ATOM      4  C   UNL     1      -2.012  10.328  18.524  0.00  0.00    +0.000 A 
ATOM      5  N   UNL     1      -3.000   9.800  17.862  0.00  0.00    +0.000 NA
ATOM      6  N   UNL     1      -2.003  11.575  19.094  0.00  0.00    +0.000 N 
ATOM      7  C   UNL     1      -0.931  12.257  19.558  0.00  0.00    +0.000 A 
ATOM      8  N   UNL     1      -1.003  13.533  19.732  0.00  0.00    +0.000 NA
ATOM      9  N   UNL     1       0.097  11.371  19.748  0.00  0.00    +0.000 N 
ATOM     10  H   UNL     1       2.056  10.044  19.958  0.00  0.00    +0.000 HD
ATOM     11  H   UNL     1      -2.840  12.126  19.070  0.00  0.00    +0.000 HD
ATOM     12  H   UNL     1       0.888  11.712  20.260  0.00  0.00    +0.000 HD
ENDROOT
BRANCH   5  13
ATOM     13  C   UNL     1      -4.192  10.526  17.641  0.00  0.00    +0.000 A 
ATOM     14  C   UNL     1      -4.305  11.498  16.635  0.00  0.00    +0.000 A 
ATOM     15  C   UNL     1      -5.392  12.365  16.580  0.00  0.00    +0.000 A 
ATOM     16  C   UNL     1      -6.475  12.152  17.420  0.00  0.00    +0.000 A 
ATOM     17  C   UNL     1      -6.459  11.081  18.313  0.00  0.00    +0.000 A 
ATOM     18  C   UNL     1      -5.309  10.286  18.440  0.00  0.00    +0.000 A 
ENDBRANCH   5  13
BRANCH   8  19
ATOM     19  C   UNL     1       0.088  14.285  20.175  0.00  0.00    +0.000 A 
ATOM     20  C   UNL     1       0.419  14.447  21.526  0.00  0.00    +0.000 A 
ATOM     21  C   UNL     1       1.370  15.369  21.929  0.00  0.00    +0.000 A 
ATOM     22  C   UNL     1       2.118  16.038  20.957  0.00  0.00    +0.000 A 
ATOM     23  C   UNL     1       1.916  15.773  19.607  0.00  0.00    +0.000 A 
ATOM     24  C   UNL     1       0.897  14.900  19.224  0.00  0.00    +0.000 A 
ENDBRANCH   8  19
BRANCH   1  26
ATOM     25  C   UNL     1       2.535   7.599  19.061  0.00  0.00    +0.000 C 
ATOM     26  N   UNL     1       1.918   8.610  18.527  0.00  0.00    +0.000 NA
BRANCH  25  32
ATOM     27  C   UNL     1       3.085   5.210  18.379  0.00  0.00    +0.000 A 
ATOM     28  C   UNL     1       3.749   4.286  17.555  0.00  0.00    +0.000 A 
ATOM     29  C   UNL     1       4.557   4.801  16.567  0.00  0.00    +0.000 A 
ATOM     30  C   UNL     1       4.703   6.157  16.381  0.00  0.00    +0.000 A 
ATOM     31  C   UNL     1       4.046   7.080  17.172  0.00  0.00    +0.000 A 
ATOM     32  C   UNL     1       3.220   6.602  18.204  0.00  0.00    +0.000 A 
ATOM     33  O   UNL     1       5.549   6.445  15.357  0.00  0.00    +0.000 OA
ATOM     34  C   UNL     1       5.947   5.122  14.941  0.00  0.00    +0.000 C 
ATOM     35  O   UNL     1       5.285   4.074  15.681  0.00  0.00    +0.000 OA
BRANCH  27  37
ATOM     36  O   UNL     1       1.168   4.133  19.022  0.00  0.00    +0.000 OA
ATOM     37  N   UNL     1       2.219   4.670  19.401  0.00  0.00    +0.000 N 
ATOM     38  O   UNL     1       2.605   4.750  20.573  0.00  0.00    +0.000 OA
ENDBRANCH  27  37
ENDBRANCH  25  32
ENDBRANCH   1  26
TORSDOF 5
ENDMDL
MODEL 8
REMARK VINA RESULT:      -8.3      3.431      5.655
REMARK  Name = 
REMARK  5 active torsions:
REMARK  status: ('A' for Active; 'I' for Inactive)
REMARK    1  A    between atoms: N_2  and  C_4
REMARK    2  A    between atoms: C_9  and  C_10
REMARK    3  A    between atoms: N_11  and  N_12
REMARK    4  A    between atoms: N_16  and  C_17
REMARK    5  A    between atoms: N_25  and  C_26
REMARK                            x       y       z     vdW  Elec       q    Type
REMARK                         _______ _______ _______ _____ _____    ______ ____
ROOT
ATOM      1  N   UNL     1       1.221   9.882  17.920  0.00  0.00    +0.000 N 
ATOM      2  C   UNL     1       1.606  11.150  18.329  0.00  0.00    +0.000 A 
ATOM      3  N   UNL     1       2.662  11.795  17.904  0.00  0.00    +0.000 NA
ATOM      4  C   UNL     1       2.882  13.040  18.468  0.00  0.00    +0.000 A 
ATOM      5  N   UNL     1       3.958  13.655  18.074  0.00  0.00    +0.000 NA
ATOM      6  N   UNL     1       1.990  13.501  19.403  0.00  0.00    +0.000 N 
ATOM      7  C   UNL     1       1.017  12.796  20.025  0.00  0.00    +0.000 A 
ATOM      8  N   UNL     1       0.498  13.240  21.119  0.00  0.00    +0.000 NA
ATOM      9  N   UNL     1       0.778  11.657  19.303  0.00  0.00    +0.000 N 
ATOM     10  H   UNL     1       0.351   9.539  18.316  0.00  0.00    +0.000 HD
ATOM     11  H   UNL     1       2.119  14.417  19.786  0.00  0.00    +0.000 HD
ATOM     12  H   UNL     1      -0.043  11.138  19.551  0.00  0.00    +0.000 HD
ENDROOT
BRANCH   5  13
ATOM     13  C   UNL     1       4.326  14.899  18.634  0.00  0.00    +0.000 A 
ATOM     14  C   UNL     1       5.335  15.019  19.602  0.00  0.00    +0.000 A 
ATOM     15  C   UNL     1       5.525  16.199  20.314  0.00  0.00    +0.000 A 
ATOM     16  C   UNL     1       4.830  17.339  19.937  0.00  0.00    +0.000 A 
ATOM     17  C   UNL     1       3.946  17.287  18.860  0.00  0.00    +0.000 A 
ATOM     18  C   UNL     1       3.676  16.063  18.227  0.00  0.00    +0.000 A 
ENDBRANCH   5  13
BRANCH   8  19
ATOM     19  C   UNL     1      -0.486  12.532  21.816  0.00  0.00    +0.000 A 
ATOM     20  C   UNL     1      -1.779  13.020  22.039  0.00  0.00    +0.000 A 
ATOM     21  C   UNL     1      -2.647  12.386  22.912  0.00  0.00    +0.000 A 
ATOM     22  C   UNL     1      -2.275  11.155  23.460  0.00  0.00    +0.000 A 
ATOM     23  C   UNL     1      -1.058  10.574  23.124  0.00  0.00    +0.000 A 
ATOM     24  C   UNL     1      -0.167  11.269  22.306  0.00  0.00    +0.000 A 
ENDBRANCH   8  19
BRANCH   1  26
ATOM     25  C   UNL     1       2.279   7.934  18.324  0.00  0.00    +0.000 C 
ATOM     26  N   UNL     1       2.111   8.931  17.507  0.00  0.00    +0.000 NA
BRANCH  25  32
ATOM     27  C   UNL     1       3.213   5.578  18.559  0.00  0.00    +0.000 A 
ATOM     28  C   UNL     1       4.175   4.600  18.261  0.00  0.00    +0.000 A 
ATOM     29  C   UNL     1       5.205   4.972  17.427  0.00  0.00    +0.000 A 
ATOM     30  C   UNL     1       5.288   6.239  16.897  0.00  0.00    +0.000 A 
ATOM     31  C   UNL     1       4.341   7.210  17.165  0.00  0.00    +0.000 A 
ATOM     32  C   UNL     1       3.278   6.881  18.024  0.00  0.00    +0.000 A 
ATOM     33  O   UNL     1       6.384   6.394  16.107  0.00  0.00    +0.000 OA
ATOM     34  C   UNL     1       7.001   5.094  16.229  0.00  0.00    +0.000 C 
ATOM     35  O   UNL     1       6.231   4.175  17.033  0.00  0.00    +0.000 OA
BRANCH  27  37
ATOM     36  O   UNL     1       1.224   4.494  18.902  0.00  0.00    +0.000 OA
ATOM     37  N   UNL     1       2.119   5.181  19.415  0.00  0.00    +0.000 N 
ATOM     38  O   UNL     1       2.174   5.524  20.602  0.00  0.00    +0.000 OA
ENDBRANCH  27  37
ENDBRANCH  25  32
ENDBRANCH   1  26
TORSDOF 5
ENDMDL
MODEL 9
REMARK VINA RESULT:      -8.2      3.479      5.678
REMARK  Name = 
REMARK  5 active torsions:
REMARK  status: ('A' for Active; 'I' for Inactive)
REMARK    1  A    between atoms: N_2  and  C_4
REMARK    2  A    between atoms: C_9  and  C_10
REMARK    3  A    between atoms: N_11  and  N_12
REMARK    4  A    between atoms: N_16  and  C_17
REMARK    5  A    between atoms: N_25  and  C_26
REMARK                            x       y       z     vdW  Elec       q    Type
REMARK                         _______ _______ _______ _____ _____    ______ ____
ROOT
ATOM      1  N   UNL     1       1.334   9.645  17.904  0.00  0.00    +0.000 N 
ATOM      2  C   UNL     1       1.711  10.924  18.289  0.00  0.00    +0.000 A 
ATOM      3  N   UNL     1       2.688  11.616  17.762  0.00  0.00    +0.000 NA
ATOM      4  C   UNL     1       2.918  12.862  18.319  0.00  0.00    +0.000 A 
ATOM      5  N   UNL     1       3.920  13.526  17.820  0.00  0.00    +0.000 NA
ATOM      6  N   UNL     1       2.115  13.276  19.351  0.00  0.00    +0.000 N 
ATOM      7  C   UNL     1       1.243  12.525  20.062  0.00  0.00    +0.000 A 
ATOM      8  N   UNL     1       0.828  12.935  21.213  0.00  0.00    +0.000 NA
ATOM      9  N   UNL     1       0.973  11.385  19.353  0.00  0.00    +0.000 N 
ATOM     10  H   UNL     1       0.527   9.262  18.385  0.00  0.00    +0.000 HD
ATOM     11  H   UNL     1       2.248  14.193  19.731  0.00  0.00    +0.000 HD
ATOM     12  H   UNL     1       0.205  10.830  19.680  0.00  0.00    +0.000 HD
ENDROOT
BRANCH   5  13
ATOM     13  C   UNL     1       4.297  14.778  18.357  0.00  0.00    +0.000 A 
ATOM     14  C   UNL     1       5.308  14.908  19.322  0.00  0.00    +0.000 A 
ATOM     15  C   UNL     1       5.506  16.101  20.011  0.00  0.00    +0.000 A 
ATOM     16  C   UNL     1       4.819  17.238  19.614  0.00  0.00    +0.000 A 
ATOM     17  C   UNL     1       3.933  17.171  18.538  0.00  0.00    +0.000 A 
ATOM     18  C   UNL     1       3.655  15.938  17.929  0.00  0.00    +0.000 A 
ENDBRANCH   5  13
BRANCH   8  19
ATOM     19  C   UNL     1      -0.045  12.180  22.000  0.00  0.00    +0.000 A 
ATOM     20  C   UNL     1       0.174  10.837  22.329  0.00  0.00    +0.000 A 
ATOM     21  C   UNL     1      -0.814  10.071  22.925  0.00  0.00    +0.000 A 
ATOM     22  C   UNL     1      -1.993  10.694  23.342  0.00  0.00    +0.000 A 
ATOM     23  C   UNL     1      -2.166  12.063  23.169  0.00  0.00    +0.000 A 
ATOM     24  C   UNL     1      -1.191  12.798  22.494  0.00  0.00    +0.000 A 
ENDBRANCH   8  19
BRANCH   1  26
ATOM     25  C   UNL     1       2.356   7.644  18.072  0.00  0.00    +0.000 C 
ATOM     26  N   UNL     1       2.212   8.736  17.383  0.00  0.00    +0.000 NA
BRANCH  25  32
ATOM     27  C   UNL     1       3.103   5.232  17.753  0.00  0.00    +0.000 A 
ATOM     28  C   UNL     1       4.054   4.280  17.351  0.00  0.00    +0.000 A 
ATOM     29  C   UNL     1       5.247   4.761  16.860  0.00  0.00    +0.000 A 
ATOM     30  C   UNL     1       5.499   6.110  16.755  0.00  0.00    +0.000 A 
ATOM     31  C   UNL     1       4.569   7.061  17.131  0.00  0.00    +0.000 A 
ATOM     32  C   UNL     1       3.340   6.618  17.651  0.00  0.00    +0.000 A 
ATOM     33  O   UNL     1       6.737   6.363  16.253  0.00  0.00    +0.000 OA
ATOM     34  C   UNL     1       7.250   5.024  16.087  0.00  0.00    +0.000 C 
ATOM     35  O   UNL     1       6.289   4.003  16.432  0.00  0.00    +0.000 OA
BRANCH  27  37
ATOM     36  O   UNL     1       1.012   4.366  17.400  0.00  0.00    +0.000 OA
ATOM     37  N   UNL     1       1.842   4.729  18.246  0.00  0.00    +0.000 N 
ATOM     38  O   UNL     1       1.697   4.662  19.472  0.00  0.00    +0.000 OA
ENDBRANCH  27  37
ENDBRANCH  25  32
ENDBRANCH   1  26
TORSDOF 5
ENDMDL
