MODEL 1
REMARK VINA RESULT:      -7.3      0.000      0.000
REMARK  Name = 
REMARK  9 active torsions:
REMARK  status: ('A' for Active; 'I' for Inactive)
REMARK    1  A    between atoms: C_1  and  C_2
REMARK    2  A    between atoms: C_2  and  C_3
REMARK    3  A    between atoms: C_6  and  S_7
REMARK    4  A    between atoms: S_7  and  C_8
REMARK    5  A    between atoms: C_8  and  C_9
REMARK    6  A    between atoms: N_11  and  C_12
REMARK    7  A    between atoms: C_15  and  O_16
REMARK    8  A    between atoms: O_16  and  C_17
REMARK    9  A    between atoms: C_19  and  N_20
REMARK                            x       y       z     vdW  Elec       q    Type
REMARK                         _______ _______ _______ _____ _____    ______ ____
ROOT
ATOM      1  C   UNL     1       5.006   5.530  15.851  0.00  0.00    +0.000 C 
ATOM      2  O   UNL     1       4.568   6.478  16.503  0.00  0.00    +0.000 OA
ATOM      3  N   UNL     1       4.845   4.201  16.228  0.00  0.00    +0.000 N 
ATOM      4  H   UNL     1       5.663   3.618  16.056  0.00  0.00    +0.000 HD
ENDROOT
BRANCH   3   5
ATOM      5  C   UNL     1       4.026   3.843  17.325  0.00  0.00    +0.000 A 
ATOM      6  C   UNL     1       2.762   3.299  17.061  0.00  0.00    +0.000 A 
ATOM      7  C   UNL     1       1.936   2.874  18.105  0.00  0.00    +0.000 A 
ATOM      8  C   UNL     1       2.346   2.996  19.432  0.00  0.00    +0.000 A 
ATOM      9  C   UNL     1       3.592   3.552  19.715  0.00  0.00    +0.000 A 
ATOM     10  C   UNL     1       4.438   3.963  18.664  0.00  0.00    +0.000 A 
BRANCH  10  11
ATOM     11  N   UNL     1       5.717   4.594  19.018  0.00  0.00    +0.000 N 
ATOM     12  O   UNL     1       5.707   5.531  19.833  0.00  0.00    +0.000 OA
ATOM     13  O   UNL     1       6.745   4.167  18.472  0.00  0.00    +0.000 OA
ENDBRANCH  10  11
BRANCH   8  14
ATOM     14  O   UNL     1       1.444   2.539  20.352  0.00  0.00    +0.000 OA
ATOM     15  C   UNL     1       1.785   2.691  21.726  0.00  0.00    +0.000 C 
ENDBRANCH   8  14
ENDBRANCH   3   5
BRANCH   1  16
ATOM     16  C   UNL     1       5.879   5.729  14.631  0.00  0.00    +0.000 C 
BRANCH  16  17
ATOM     17  S   UNL     1       6.827   4.235  14.228  0.00  0.00    +0.000 S 
BRANCH  17  21
ATOM     18  C   UNL     1       4.511   2.987  11.484  0.00  0.00    +0.000 A 
ATOM     19  N   UNL     1       5.514   2.114  11.290  0.00  0.00    +0.000 NA
ATOM     20  N   UNL     1       6.394   2.511  12.223  0.00  0.00    +0.000 N 
ATOM     21  C   UNL     1       5.909   3.562  12.939  0.00  0.00    +0.000 A 
ATOM     22  N   UNL     1       4.727   3.895  12.492  0.00  0.00    +0.000 NA
ATOM     23  H   UNL     1       7.280   2.035  12.323  0.00  0.00    +0.000 HD
BRANCH  18  25
ATOM     24  C   UNL     1       3.105   4.242   9.828  0.00  0.00    +0.000 C 
ATOM     25  C   UNL     1       3.282   2.972  10.650  0.00  0.00    +0.000 C 
ENDBRANCH  18  25
ENDBRANCH  17  21
ENDBRANCH  16  17
ENDBRANCH   1  16
TORSDOF 7
ENDMDL
MODEL 2
REMARK VINA RESULT:      -7.1      5.812      7.963
REMARK  Name = 
REMARK  9 active torsions:
REMARK  status: ('A' for Active; 'I' for Inactive)
REMARK    1  A    between atoms: C_1  and  C_2
REMARK    2  A    between atoms: C_2  and  C_3
REMARK    3  A    between atoms: C_6  and  S_7
REMARK    4  A    between atoms: S_7  and  C_8
REMARK    5  A    between atoms: C_8  and  C_9
REMARK    6  A    between atoms: N_11  and  C_12
REMARK    7  A    between atoms: C_15  and  O_16
REMARK    8  A    between atoms: O_16  and  C_17
REMARK    9  A    between atoms: C_19  and  N_20
REMARK                            x       y       z     vdW  Elec       q    Type
REMARK                         _______ _______ _______ _____ _____    ______ ____
ROOT
ATOM      1  C   UNL     1       7.552   7.732  17.811  0.00  0.00    +0.000 C 
ATOM      2  O   UNL     1       7.900   6.921  18.669  0.00  0.00    +0.000 OA
ATOM      3  N   UNL     1       6.490   7.519  16.939  0.00  0.00    +0.000 N 
ATOM      4  H   UNL     1       6.658   7.848  15.990  0.00  0.00    +0.000 HD
ENDROOT
BRANCH   3   5
ATOM      5  C   UNL     1       5.633   6.402  17.086  0.00  0.00    +0.000 A 
ATOM      6  C   UNL     1       4.370   6.605  17.656  0.00  0.00    +0.000 A 
ATOM      7  C   UNL     1       3.462   5.548  17.770  0.00  0.00    +0.000 A 
ATOM      8  C   UNL     1       3.800   4.268  17.333  0.00  0.00    +0.000 A 
ATOM      9  C   UNL     1       5.060   4.044  16.781  0.00  0.00    +0.000 A 
ATOM     10  C   UNL     1       5.971   5.111  16.644  0.00  0.00    +0.000 A 
BRANCH  10  11
ATOM     11  N   UNL     1       7.307   4.810  16.108  0.00  0.00    +0.000 N 
ATOM     12  O   UNL     1       8.093   4.158  16.814  0.00  0.00    +0.000 OA
ATOM     13  O   UNL     1       7.586   5.236  14.978  0.00  0.00    +0.000 OA
ENDBRANCH  10  11
BRANCH   8  14
ATOM     14  O   UNL     1       2.819   3.330  17.501  0.00  0.00    +0.000 OA
ATOM     15  C   UNL     1       3.228   2.031  17.917  0.00  0.00    +0.000 C 
ENDBRANCH   8  14
ENDBRANCH   3   5
BRANCH   1  16
ATOM     16  C   UNL     1       8.338   8.997  17.537  0.00  0.00    +0.000 C 
BRANCH  16  17
ATOM     17  S   UNL     1       8.966   9.746  19.066  0.00  0.00    +0.000 S 
BRANCH  17  21
ATOM     18  C   UNL     1      10.609  12.863  17.640  0.00  0.00    +0.000 A 
ATOM     19  N   UNL     1       9.704  13.474  18.423  0.00  0.00    +0.000 NA
ATOM     20  N   UNL     1       9.060  12.422  18.952  0.00  0.00    +0.000 N 
ATOM     21  C   UNL     1       9.585  11.249  18.505  0.00  0.00    +0.000 A 
ATOM     22  N   UNL     1      10.559  11.490  17.667  0.00  0.00    +0.000 NA
ATOM     23  H   UNL     1       8.295  12.564  19.598  0.00  0.00    +0.000 HD
BRANCH  18  25
ATOM     24  C   UNL     1      11.390  15.135  16.919  0.00  0.00    +0.000 C 
ATOM     25  C   UNL     1      11.568  13.627  16.802  0.00  0.00    +0.000 C 
ENDBRANCH  18  25
ENDBRANCH  17  21
ENDBRANCH  16  17
ENDBRANCH   1  16
TORSDOF 7
ENDMDL
MODEL 3
REMARK VINA RESULT:      -6.9      2.440      2.958
REMARK  Name = 
REMARK  9 active torsions:
REMARK  status: ('A' for Active; 'I' for Inactive)
REMARK    1  A    between atoms: C_1  and  C_2
REMARK    2  A    between atoms: C_2  and  C_3
REMARK    3  A    between atoms: C_6  and  S_7
REMARK    4  A    between atoms: S_7  and  C_8
REMARK    5  A    between atoms: C_8  and  C_9
REMARK    6  A    between atoms: N_11  and  C_12
REMARK    7  A    between atoms: C_15  and  O_16
REMARK    8  A    between atoms: O_16  and  C_17
REMARK    9  A    between atoms: C_19  and  N_20
REMARK                            x       y       z     vdW  Elec       q    Type
REMARK                         _______ _______ _______ _____ _____    ______ ____
ROOT
ATOM      1  C   UNL     1       5.575   4.363  16.905  0.00  0.00    +0.000 C 
ATOM      2  O   UNL     1       6.216   4.613  17.926  0.00  0.00    +0.000 OA
ATOM      3  N   UNL     1       4.261   4.771  16.705  0.00  0.00    +0.000 N 
ATOM      4  H   UNL     1       3.676   4.079  16.240  0.00  0.00    +0.000 HD
ENDROOT
BRANCH   3   5
ATOM      5  C   UNL     1       3.617   5.644  17.615  0.00  0.00    +0.000 A 
ATOM      6  C   UNL     1       3.603   7.014  17.324  0.00  0.00    +0.000 A 
ATOM      7  C   UNL     1       2.932   7.913  18.157  0.00  0.00    +0.000 A 
ATOM      8  C   UNL     1       2.275   7.467  19.304  0.00  0.00    +0.000 A 
ATOM      9  C   UNL     1       2.295   6.109  19.619  0.00  0.00    +0.000 A 
ATOM     10  C   UNL     1       2.953   5.196  18.770  0.00  0.00    +0.000 A 
BRANCH  10  11
ATOM     11  N   UNL     1       2.992   3.784  19.178  0.00  0.00    +0.000 N 
ATOM     12  O   UNL     1       2.482   2.938  18.426  0.00  0.00    +0.000 OA
ATOM     13  O   UNL     1       3.523   3.511  20.264  0.00  0.00    +0.000 OA
ENDBRANCH  10  11
BRANCH   8  14
ATOM     14  O   UNL     1       1.656   8.449  20.026  0.00  0.00    +0.000 OA
ATOM     15  C   UNL     1       1.055   8.068  21.258  0.00  0.00    +0.000 C 
ENDBRANCH   8  14
ENDBRANCH   3   5
BRANCH   1  16
ATOM     16  C   UNL     1       6.121   3.467  15.813  0.00  0.00    +0.000 C 
BRANCH  16  17
ATOM     17  S   UNL     1       6.728   4.424  14.396  0.00  0.00    +0.000 S 
BRANCH  17  21
ATOM     18  C   UNL     1       4.554   3.048  11.599  0.00  0.00    +0.000 A 
ATOM     19  N   UNL     1       5.620   2.253  11.411  0.00  0.00    +0.000 NA
ATOM     20  N   UNL     1       6.454   2.700  12.363  0.00  0.00    +0.000 N 
ATOM     21  C   UNL     1       5.883   3.704  13.084  0.00  0.00    +0.000 A 
ATOM     22  N   UNL     1       4.687   3.956  12.622  0.00  0.00    +0.000 NA
ATOM     23  H   UNL     1       7.371   2.290  12.472  0.00  0.00    +0.000 HD
BRANCH  18  25
ATOM     24  C   UNL     1       3.151   4.170   9.849  0.00  0.00    +0.000 C 
ATOM     25  C   UNL     1       3.341   2.954  10.746  0.00  0.00    +0.000 C 
ENDBRANCH  18  25
ENDBRANCH  17  21
ENDBRANCH  16  17
ENDBRANCH   1  16
TORSDOF 7
ENDMDL
MODEL 4
REMARK VINA RESULT:      -6.8      1.334      1.775
REMARK  Name = 
REMARK  9 active torsions:
REMARK  status: ('A' for Active; 'I' for Inactive)
REMARK    1  A    between atoms: C_1  and  C_2
REMARK    2  A    between atoms: C_2  and  C_3
REMARK    3  A    between atoms: C_6  and  S_7
REMARK    4  A    between atoms: S_7  and  C_8
REMARK    5  A    between atoms: C_8  and  C_9
REMARK    6  A    between atoms: N_11  and  C_12
REMARK    7  A    between atoms: C_15  and  O_16
REMARK    8  A    between atoms: O_16  and  C_17
REMARK    9  A    between atoms: C_19  and  N_20
REMARK                            x       y       z     vdW  Elec       q    Type
REMARK                         _______ _______ _______ _____ _____    ______ ____
ROOT
ATOM      1  C   UNL     1       5.554   4.838  16.220  0.00  0.00    +0.000 C 
ATOM      2  O   UNL     1       6.464   4.513  16.983  0.00  0.00    +0.000 OA
ATOM      3  N   UNL     1       4.207   4.642  16.506  0.00  0.00    +0.000 N 
ATOM      4  H   UNL     1       3.649   4.349  15.706  0.00  0.00    +0.000 HD
ENDROOT
BRANCH   3   5
ATOM      5  C   UNL     1       3.785   4.188  17.779  0.00  0.00    +0.000 A 
ATOM      6  C   UNL     1       3.825   2.813  18.040  0.00  0.00    +0.000 A 
ATOM      7  C   UNL     1       3.476   2.316  19.299  0.00  0.00    +0.000 A 
ATOM      8  C   UNL     1       3.066   3.177  20.316  0.00  0.00    +0.000 A 
ATOM      9  C   UNL     1       3.003   4.547  20.068  0.00  0.00    +0.000 A 
ATOM     10  C   UNL     1       3.375   5.055  18.807  0.00  0.00    +0.000 A 
BRANCH  10  11
ATOM     11  N   UNL     1       3.235   6.501  18.580  0.00  0.00    +0.000 N 
ATOM     12  O   UNL     1       4.127   7.088  17.946  0.00  0.00    +0.000 OA
ATOM     13  O   UNL     1       2.235   7.066  19.046  0.00  0.00    +0.000 OA
ENDBRANCH  10  11
BRANCH   8  14
ATOM     14  O   UNL     1       2.758   2.560  21.497  0.00  0.00    +0.000 OA
ATOM     15  C   UNL     1       1.388   2.551  21.885  0.00  0.00    +0.000 C 
ENDBRANCH   8  14
ENDBRANCH   3   5
BRANCH   1  16
ATOM     16  C   UNL     1       5.823   5.369  14.828  0.00  0.00    +0.000 C 
BRANCH  16  17
ATOM     17  S   UNL     1       7.000   4.325  13.923  0.00  0.00    +0.000 S 
BRANCH  17  21
ATOM     18  C   UNL     1       4.511   2.969  11.390  0.00  0.00    +0.000 A 
ATOM     19  N   UNL     1       5.432   1.995  11.283  0.00  0.00    +0.000 NA
ATOM     20  N   UNL     1       6.368   2.422  12.146  0.00  0.00    +0.000 N 
ATOM     21  C   UNL     1       5.993   3.587  12.740  0.00  0.00    +0.000 A 
ATOM     22  N   UNL     1       4.831   3.966  12.279  0.00  0.00    +0.000 NA
ATOM     23  H   UNL     1       7.214   1.887  12.285  0.00  0.00    +0.000 HD
BRANCH  18  25
ATOM     24  C   UNL     1       3.069   4.236   9.776  0.00  0.00    +0.000 C 
ATOM     25  C   UNL     1       3.261   2.962  10.587  0.00  0.00    +0.000 C 
ENDBRANCH  18  25
ENDBRANCH  17  21
ENDBRANCH  16  17
ENDBRANCH   1  16
TORSDOF 7
ENDMDL
MODEL 5
REMARK VINA RESULT:      -6.8      4.715      7.241
REMARK  Name = 
REMARK  9 active torsions:
REMARK  status: ('A' for Active; 'I' for Inactive)
REMARK    1  A    between atoms: C_1  and  C_2
REMARK    2  A    between atoms: C_2  and  C_3
REMARK    3  A    between atoms: C_6  and  S_7
REMARK    4  A    between atoms: S_7  and  C_8
REMARK    5  A    between atoms: C_8  and  C_9
REMARK    6  A    between atoms: N_11  and  C_12
REMARK    7  A    between atoms: C_15  and  O_16
REMARK    8  A    between atoms: O_16  and  C_17
REMARK    9  A    between atoms: C_19  and  N_20
REMARK                            x       y       z     vdW  Elec       q    Type
REMARK                         _______ _______ _______ _____ _____    ______ ____
ROOT
ATOM      1  C   UNL     1       7.399   5.783  18.461  0.00  0.00    +0.000 C 
ATOM      2  O   UNL     1       7.862   4.658  18.275  0.00  0.00    +0.000 OA
ATOM      3  N   UNL     1       6.045   6.084  18.350  0.00  0.00    +0.000 N 
ATOM      4  H   UNL     1       5.853   6.986  17.916  0.00  0.00    +0.000 HD
ENDROOT
BRANCH   3   5
ATOM      5  C   UNL     1       5.080   5.066  18.161  0.00  0.00    +0.000 A 
ATOM      6  C   UNL     1       4.510   4.472  19.293  0.00  0.00    +0.000 A 
ATOM      7  C   UNL     1       3.511   3.504  19.164  0.00  0.00    +0.000 A 
ATOM      8  C   UNL     1       3.071   3.098  17.904  0.00  0.00    +0.000 A 
ATOM      9  C   UNL     1       3.641   3.664  16.765  0.00  0.00    +0.000 A 
ATOM     10  C   UNL     1       4.634   4.657  16.892  0.00  0.00    +0.000 A 
BRANCH  10  11
ATOM     11  N   UNL     1       5.243   5.181  15.660  0.00  0.00    +0.000 N 
ATOM     12  O   UNL     1       5.647   4.370  14.811  0.00  0.00    +0.000 OA
ATOM     13  O   UNL     1       5.334   6.411  15.537  0.00  0.00    +0.000 OA
ENDBRANCH  10  11
BRANCH   8  14
ATOM     14  O   UNL     1       2.088   2.148  17.922  0.00  0.00    +0.000 OA
ATOM     15  C   UNL     1       0.933   2.425  18.706  0.00  0.00    +0.000 C 
ENDBRANCH   8  14
ENDBRANCH   3   5
BRANCH   1  16
ATOM     16  C   UNL     1       8.285   6.986  18.706  0.00  0.00    +0.000 C 
BRANCH  16  17
ATOM     17  S   UNL     1       7.775   8.414  17.709  0.00  0.00    +0.000 S 
BRANCH  17  21
ATOM     18  C   UNL     1       9.906  11.353  18.836  0.00  0.00    +0.000 A 
ATOM     19  N   UNL     1       9.814  10.727  20.022  0.00  0.00    +0.000 NA
ATOM     20  N   UNL     1       9.045   9.673  19.704  0.00  0.00    +0.000 N 
ATOM     21  C   UNL     1       8.720   9.682  18.383  0.00  0.00    +0.000 A 
ATOM     22  N   UNL     1       9.239  10.734  17.806  0.00  0.00    +0.000 NA
ATOM     23  H   UNL     1       8.787   8.999  20.412  0.00  0.00    +0.000 HD
BRANCH  18  25
ATOM     24  C   UNL     1      10.555  13.198  17.267  0.00  0.00    +0.000 C 
ATOM     25  C   UNL     1      10.657  12.624  18.674  0.00  0.00    +0.000 C 
ENDBRANCH  18  25
ENDBRANCH  17  21
ENDBRANCH  16  17
ENDBRANCH   1  16
TORSDOF 7
ENDMDL
MODEL 6
REMARK VINA RESULT:      -6.8      3.789      6.641
REMARK  Name = 
REMARK  9 active torsions:
REMARK  status: ('A' for Active; 'I' for Inactive)
REMARK    1  A    between atoms: C_1  and  C_2
REMARK    2  A    between atoms: C_2  and  C_3
REMARK    3  A    between atoms: C_6  and  S_7
REMARK    4  A    between atoms: S_7  and  C_8
REMARK    5  A    between atoms: C_8  and  C_9
REMARK    6  A    between atoms: N_11  and  C_12
REMARK    7  A    between atoms: C_15  and  O_16
REMARK    8  A    between atoms: O_16  and  C_17
REMARK    9  A    between atoms: C_19  and  N_20
REMARK                            x       y       z     vdW  Elec       q    Type
REMARK                         _______ _______ _______ _____ _____    ______ ____
ROOT
ATOM      1  C   UNL     1       3.739   2.793  18.974  0.00  0.00    +0.000 C 
ATOM      2  O   UNL     1       3.672   1.922  18.106  0.00  0.00    +0.000 OA
ATOM      3  N   UNL     1       4.565   3.908  18.881  0.00  0.00    +0.000 N 
ATOM      4  H   UNL     1       5.008   4.173  19.759  0.00  0.00    +0.000 HD
ENDROOT
BRANCH   3   5
ATOM      5  C   UNL     1       5.280   4.193  17.693  0.00  0.00    +0.000 A 
ATOM      6  C   UNL     1       4.654   3.947  16.465  0.00  0.00    +0.000 A 
ATOM      7  C   UNL     1       5.292   4.266  15.263  0.00  0.00    +0.000 A 
ATOM      8  C   UNL     1       6.572   4.821  15.261  0.00  0.00    +0.000 A 
ATOM      9  C   UNL     1       7.218   5.055  16.474  0.00  0.00    +0.000 A 
ATOM     10  C   UNL     1       6.569   4.755  17.689  0.00  0.00    +0.000 A 
BRANCH  10  11
ATOM     11  N   UNL     1       7.316   4.968  18.937  0.00  0.00    +0.000 N 
ATOM     12  O   UNL     1       6.712   5.439  19.914  0.00  0.00    +0.000 OA
ATOM     13  O   UNL     1       8.521   4.678  18.947  0.00  0.00    +0.000 OA
ENDBRANCH  10  11
BRANCH   8  14
ATOM     14  O   UNL     1       7.076   5.087  14.018  0.00  0.00    +0.000 OA
ATOM     15  C   UNL     1       6.764   4.164  12.981  0.00  0.00    +0.000 C 
ENDBRANCH   8  14
ENDBRANCH   3   5
BRANCH   1  16
ATOM     16  C   UNL     1       3.015   2.664  20.298  0.00  0.00    +0.000 C 
BRANCH  16  17
ATOM     17  S   UNL     1       1.381   3.451  20.253  0.00  0.00    +0.000 S 
BRANCH  17  21
ATOM     18  C   UNL     1       2.331   6.903  18.975  0.00  0.00    +0.000 A 
ATOM     19  N   UNL     1       2.137   7.231  20.264  0.00  0.00    +0.000 NA
ATOM     20  N   UNL     1       1.772   6.048  20.784  0.00  0.00    +0.000 N 
ATOM     21  C   UNL     1       1.772   5.073  19.835  0.00  0.00    +0.000 A 
ATOM     22  N   UNL     1       2.111   5.579  18.679  0.00  0.00    +0.000 NA
ATOM     23  H   UNL     1       1.545   5.972  21.766  0.00  0.00    +0.000 HD
BRANCH  18  25
ATOM     24  C   UNL     1       4.006   7.529  17.217  0.00  0.00    +0.000 C 
ATOM     25  C   UNL     1       2.732   7.909  17.959  0.00  0.00    +0.000 C 
ENDBRANCH  18  25
ENDBRANCH  17  21
ENDBRANCH  16  17
ENDBRANCH   1  16
TORSDOF 7
ENDMDL
MODEL 7
REMARK VINA RESULT:      -6.8      5.841      7.959
REMARK  Name = 
REMARK  9 active torsions:
REMARK  status: ('A' for Active; 'I' for Inactive)
REMARK    1  A    between atoms: C_1  and  C_2
REMARK    2  A    between atoms: C_2  and  C_3
REMARK    3  A    between atoms: C_6  and  S_7
REMARK    4  A    between atoms: S_7  and  C_8
REMARK    5  A    between atoms: C_8  and  C_9
REMARK    6  A    between atoms: N_11  and  C_12
REMARK    7  A    between atoms: C_15  and  O_16
REMARK    8  A    between atoms: O_16  and  C_17
REMARK    9  A    between atoms: C_19  and  N_20
REMARK                            x       y       z     vdW  Elec       q    Type
REMARK                         _______ _______ _______ _____ _____    ______ ____
ROOT
ATOM      1  C   UNL     1       7.406   7.754  17.740  0.00  0.00    +0.000 C 
ATOM      2  O   UNL     1       7.820   6.927  18.552  0.00  0.00    +0.000 OA
ATOM      3  N   UNL     1       6.330   7.523  16.890  0.00  0.00    +0.000 N 
ATOM      4  H   UNL     1       6.452   7.899  15.951  0.00  0.00    +0.000 HD
ENDROOT
BRANCH   3   5
ATOM      5  C   UNL     1       5.535   6.359  17.013  0.00  0.00    +0.000 A 
ATOM      6  C   UNL     1       4.273   6.476  17.608  0.00  0.00    +0.000 A 
ATOM      7  C   UNL     1       3.423   5.370  17.702  0.00  0.00    +0.000 A 
ATOM      8  C   UNL     1       3.820   4.124  17.219  0.00  0.00    +0.000 A 
ATOM      9  C   UNL     1       5.081   3.984  16.640  0.00  0.00    +0.000 A 
ATOM     10  C   UNL     1       5.933   5.102  16.524  0.00  0.00    +0.000 A 
BRANCH  10  11
ATOM     11  N   UNL     1       7.273   4.889  15.958  0.00  0.00    +0.000 N 
ATOM     12  O   UNL     1       7.547   5.425  14.873  0.00  0.00    +0.000 OA
ATOM     13  O   UNL     1       8.060   4.169  16.590  0.00  0.00    +0.000 OA
ENDBRANCH  10  11
BRANCH   8  14
ATOM     14  O   UNL     1       2.893   3.131  17.370  0.00  0.00    +0.000 OA
ATOM     15  C   UNL     1       3.139   2.163  18.384  0.00  0.00    +0.000 C 
ENDBRANCH   8  14
ENDBRANCH   3   5
BRANCH   1  16
ATOM     16  C   UNL     1       8.119   9.069  17.498  0.00  0.00    +0.000 C 
BRANCH  16  17
ATOM     17  S   UNL     1       9.027   9.624  18.967  0.00  0.00    +0.000 S 
BRANCH  17  21
ATOM     18  C   UNL     1       9.831  13.214  18.012  0.00  0.00    +0.000 A 
ATOM     19  N   UNL     1      10.988  12.656  17.619  0.00  0.00    +0.000 NA
ATOM     20  N   UNL     1      10.786  11.371  17.949  0.00  0.00    +0.000 N 
ATOM     21  C   UNL     1       9.553  11.192  18.496  0.00  0.00    +0.000 A 
ATOM     22  N   UNL     1       8.926  12.337  18.560  0.00  0.00    +0.000 NA
ATOM     23  H   UNL     1      11.505  10.681  17.777  0.00  0.00    +0.000 HD
BRANCH  18  25
ATOM     24  C   UNL     1      10.460  15.517  18.781  0.00  0.00    +0.000 C 
ATOM     25  C   UNL     1       9.574  14.671  17.877  0.00  0.00    +0.000 C 
ENDBRANCH  18  25
ENDBRANCH  17  21
ENDBRANCH  16  17
ENDBRANCH   1  16
TORSDOF 7
ENDMDL
MODEL 8
REMARK VINA RESULT:      -6.7      6.171      8.198
REMARK  Name = 
REMARK  9 active torsions:
REMARK  status: ('A' for Active; 'I' for Inactive)
REMARK    1  A    between atoms: C_1  and  C_2
REMARK    2  A    between atoms: C_2  and  C_3
REMARK    3  A    between atoms: C_6  and  S_7
REMARK    4  A    between atoms: S_7  and  C_8
REMARK    5  A    between atoms: C_8  and  C_9
REMARK    6  A    between atoms: N_11  and  C_12
REMARK    7  A    between atoms: C_15  and  O_16
REMARK    8  A    between atoms: O_16  and  C_17
REMARK    9  A    between atoms: C_19  and  N_20
REMARK                            x       y       z     vdW  Elec       q    Type
REMARK                         _______ _______ _______ _____ _____    ______ ____
ROOT
ATOM      1  C   UNL     1       2.077   8.325  18.483  0.00  0.00    +0.000 C 
ATOM      2  O   UNL     1       2.069   8.659  17.298  0.00  0.00    +0.000 OA
ATOM      3  N   UNL     1       2.654   7.146  18.943  0.00  0.00    +0.000 N 
ATOM      4  H   UNL     1       2.123   6.683  19.680  0.00  0.00    +0.000 HD
ENDROOT
BRANCH   3   5
ATOM      5  C   UNL     1       3.411   6.314  18.084  0.00  0.00    +0.000 A 
ATOM      6  C   UNL     1       4.599   6.823  17.545  0.00  0.00    +0.000 A 
ATOM      7  C   UNL     1       5.415   6.025  16.738  0.00  0.00    +0.000 A 
ATOM      8  C   UNL     1       5.055   4.711  16.440  0.00  0.00    +0.000 A 
ATOM      9  C   UNL     1       3.867   4.194  16.952  0.00  0.00    +0.000 A 
ATOM     10  C   UNL     1       3.051   4.989  17.784  0.00  0.00    +0.000 A 
BRANCH  10  11
ATOM     11  N   UNL     1       1.781   4.415  18.251  0.00  0.00    +0.000 N 
ATOM     12  O   UNL     1       1.036   3.874  17.418  0.00  0.00    +0.000 OA
ATOM     13  O   UNL     1       1.510   4.512  19.457  0.00  0.00    +0.000 OA
ENDBRANCH  10  11
BRANCH   8  14
ATOM     14  O   UNL     1       5.944   4.043  15.644  0.00  0.00    +0.000 OA
ATOM     15  C   UNL     1       6.859   4.831  14.890  0.00  0.00    +0.000 C 
ENDBRANCH   8  14
ENDBRANCH   3   5
BRANCH   1  16
ATOM     16  C   UNL     1       1.341   9.114  19.545  0.00  0.00    +0.000 C 
BRANCH  16  17
ATOM     17  S   UNL     1       1.076  10.837  19.043  0.00  0.00    +0.000 S 
BRANCH  17  21
ATOM     18  C   UNL     1      -2.600  10.976  18.086  0.00  0.00    +0.000 A 
ATOM     19  N   UNL     1      -2.194  10.118  17.134  0.00  0.00    +0.000 NA
ATOM     20  N   UNL     1      -0.881  10.035  17.397  0.00  0.00    +0.000 N 
ATOM     21  C   UNL     1      -0.545  10.801  18.471  0.00  0.00    +0.000 A 
ATOM     22  N   UNL     1      -1.604  11.417  18.924  0.00  0.00    +0.000 NA
ATOM     23  H   UNL     1      -0.283   9.452  16.828  0.00  0.00    +0.000 HD
BRANCH  18  25
ATOM     24  C   UNL     1      -4.735  11.447  16.856  0.00  0.00    +0.000 C 
ATOM     25  C   UNL     1      -4.014  11.418  18.197  0.00  0.00    +0.000 C 
ENDBRANCH  18  25
ENDBRANCH  17  21
ENDBRANCH  16  17
ENDBRANCH   1  16
TORSDOF 7
ENDMDL
MODEL 9
REMARK VINA RESULT:      -6.7      4.174      6.350
REMARK  Name = 
REMARK  9 active torsions:
REMARK  status: ('A' for Active; 'I' for Inactive)
REMARK    1  A    between atoms: C_1  and  C_2
REMARK    2  A    between atoms: C_2  and  C_3
REMARK    3  A    between atoms: C_6  and  S_7
REMARK    4  A    between atoms: S_7  and  C_8
REMARK    5  A    between atoms: C_8  and  C_9
REMARK    6  A    between atoms: N_11  and  C_12
REMARK    7  A    between atoms: C_15  and  O_16
REMARK    8  A    between atoms: O_16  and  C_17
REMARK    9  A    between atoms: C_19  and  N_20
REMARK                            x       y       z     vdW  Elec       q    Type
REMARK                         _______ _______ _______ _____ _____    ______ ____
ROOT
ATOM      1  C   UNL     1       1.863   4.740  20.663  0.00  0.00    +0.000 C 
ATOM      2  O   UNL     1       0.740   4.642  20.168  0.00  0.00    +0.000 OA
ATOM      3  N   UNL     1       2.601   5.919  20.664  0.00  0.00    +0.000 N 
ATOM      4  H   UNL     1       3.597   5.787  20.497  0.00  0.00    +0.000 HD
ENDROOT
BRANCH   3   5
ATOM      5  C   UNL     1       2.036   7.139  20.220  0.00  0.00    +0.000 A 
ATOM      6  C   UNL     1       1.264   7.881  21.124  0.00  0.00    +0.000 A 
ATOM      7  C   UNL     1       0.732   9.120  20.757  0.00  0.00    +0.000 A 
ATOM      8  C   UNL     1       0.945   9.637  19.479  0.00  0.00    +0.000 A 
ATOM      9  C   UNL     1       1.695   8.903  18.561  0.00  0.00    +0.000 A 
ATOM     10  C   UNL     1       2.252   7.663  18.934  0.00  0.00    +0.000 A 
BRANCH  10  11
ATOM     11  N   UNL     1       2.985   6.904  17.910  0.00  0.00    +0.000 N 
ATOM     12  O   UNL     1       4.038   7.384  17.461  0.00  0.00    +0.000 OA
ATOM     13  O   UNL     1       2.506   5.824  17.536  0.00  0.00    +0.000 OA
ENDBRANCH  10  11
BRANCH   8  14
ATOM     14  O   UNL     1       0.372  10.857  19.255  0.00  0.00    +0.000 OA
ATOM     15  C   UNL     1      -1.046  10.896  19.135  0.00  0.00    +0.000 C 
ENDBRANCH   8  14
ENDBRANCH   3   5
BRANCH   1  16
ATOM     16  C   UNL     1       2.606   3.541  21.211  0.00  0.00    +0.000 C 
BRANCH  16  17
ATOM     17  S   UNL     1       3.086   2.386  19.897  0.00  0.00    +0.000 S 
BRANCH  17  21
ATOM     18  C   UNL     1       5.657   4.191  17.757  0.00  0.00    +0.000 A 
ATOM     19  N   UNL     1       6.192   4.465  18.958  0.00  0.00    +0.000 NA
ATOM     20  N   UNL     1       5.314   3.869  19.780  0.00  0.00    +0.000 N 
ATOM     21  C   UNL     1       4.319   3.260  19.079  0.00  0.00    +0.000 A 
ATOM     22  N   UNL     1       4.499   3.452  17.799  0.00  0.00    +0.000 NA
ATOM     23  H   UNL     1       5.446   3.908  20.782  0.00  0.00    +0.000 HD
BRANCH  18  25
ATOM     24  C   UNL     1       5.316   4.609  15.307  0.00  0.00    +0.000 C 
ATOM     25  C   UNL     1       6.269   4.675  16.493  0.00  0.00    +0.000 C 
ENDBRANCH  18  25
ENDBRANCH  17  21
ENDBRANCH  16  17
ENDBRANCH   1  16
TORSDOF 7
ENDMDL
