MODEL 1
REMARK VINA RESULT:      -7.0      0.000      0.000
REMARK  Name = 
REMARK  6 active torsions:
REMARK  status: ('A' for Active; 'I' for Inactive)
REMARK    1  A    between atoms: C_1  and  C_2
REMARK    2  A    between atoms: N_10  and  C_11
REMARK    3  A    between atoms: C_11  and  C_12
REMARK    4  A    between atoms: C_19  and  C_20
REMARK    5  A    between atoms: N_24  and  C_25
REMARK    6  A    between atoms: C_25  and  C_26
REMARK                            x       y       z     vdW  Elec       q    Type
REMARK                         _______ _______ _______ _____ _____    ______ ____
ROOT
ATOM      1  C   UNL     1      -1.146  12.134  23.018  0.00  0.00    +0.000 C 
ATOM      2  C   UNL     1      -0.969  12.336  21.504  0.00  0.00    +0.000 C 
ATOM      3  C   UNL     1      -2.220  12.365  20.625  0.00  0.00    +0.000 A 
ATOM      4  C   UNL     1      -3.479  12.706  21.131  0.00  0.00    +0.000 A 
ATOM      5  F   UNL     1      -3.656  13.065  22.407  0.00  0.00    +0.000 F 
ATOM      6  C   UNL     1      -4.589  12.660  20.302  0.00  0.00    +0.000 A 
ATOM      7  N   UNL     1      -4.552  12.289  19.007  0.00  0.00    +0.000 NA
ATOM      8  C   UNL     1      -3.327  11.980  18.521  0.00  0.00    +0.000 A 
ATOM      9  C   UNL     1      -2.132  12.010  19.254  0.00  0.00    +0.000 A 
ATOM     10  N   UNL     1      -0.910  11.773  18.636  0.00  0.00    +0.000 N 
ATOM     11  C   UNL     1       0.048  12.877  18.638  0.00  0.00    +0.000 C 
ATOM     12  C   UNL     1       0.856  12.928  19.953  0.00  0.00    +0.000 C 
ATOM     13  C   UNL     1       2.292  13.434  19.713  0.00  0.00    +0.000 C 
ATOM     14  N   UNL     1       0.002  13.406  21.098  0.00  0.00    +0.000 N 
ATOM     15  C   UNL     1      -0.378  14.660  21.530  0.00  0.00    +0.000 C 
ATOM     16  O   UNL     1      -1.169  14.854  22.454  0.00  0.00    +0.000 OA
ATOM     17  N   UNL     1       0.058  15.804  20.968  0.00  0.00    +0.000 N 
ATOM     18  H   UNL     1      -0.297  16.622  21.453  0.00  0.00    +0.000 HD
ENDROOT
BRANCH  10  19
ATOM     19  C   UNL     1      -0.618  10.525  17.932  0.00  0.00    +0.000 C 
BRANCH  19  20
ATOM     20  C   UNL     1       0.344   9.611  18.657  0.00  0.00    +0.000 A 
ATOM     21  C   UNL     1       0.233   9.353  20.033  0.00  0.00    +0.000 A 
ATOM     22  C   UNL     1       1.119   8.489  20.680  0.00  0.00    +0.000 A 
ATOM     23  C   UNL     1       2.115   7.846  19.955  0.00  0.00    +0.000 A 
ATOM     24  C   UNL     1       2.227   8.067  18.585  0.00  0.00    +0.000 A 
ATOM     25  C   UNL     1       1.351   8.944  17.941  0.00  0.00    +0.000 A 
ENDBRANCH  19  20
ENDBRANCH  10  19
BRANCH  17  26
ATOM     26  C   UNL     1       1.019  16.011  19.944  0.00  0.00    +0.000 C 
BRANCH  26  27
ATOM     27  C   UNL     1       0.593  16.807  18.765  0.00  0.00    +0.000 A 
ATOM     28  C   UNL     1      -0.734  17.213  18.632  0.00  0.00    +0.000 A 
ATOM     29  C   UNL     1      -1.081  18.123  17.637  0.00  0.00    +0.000 A 
ATOM     30  C   UNL     1      -0.099  18.624  16.778  0.00  0.00    +0.000 A 
ATOM     31  C   UNL     1       1.226  18.213  16.903  0.00  0.00    +0.000 A 
ATOM     32  C   UNL     1       1.573  17.301  17.891  0.00  0.00    +0.000 A 
ENDBRANCH  26  27
ENDBRANCH  17  26
TORSDOF 4
ENDMDL
MODEL 2
REMARK VINA RESULT:      -7.0      2.661      6.482
REMARK  Name = 
REMARK  6 active torsions:
REMARK  status: ('A' for Active; 'I' for Inactive)
REMARK    1  A    between atoms: C_1  and  C_2
REMARK    2  A    between atoms: N_10  and  C_11
REMARK    3  A    between atoms: C_11  and  C_12
REMARK    4  A    between atoms: C_19  and  C_20
REMARK    5  A    between atoms: N_24  and  C_25
REMARK    6  A    between atoms: C_25  and  C_26
REMARK                            x       y       z     vdW  Elec       q    Type
REMARK                         _______ _______ _______ _____ _____    ______ ____
ROOT
ATOM      1  C   UNL     1       3.028  13.992  20.466  0.00  0.00    +0.000 C 
ATOM      2  C   UNL     1       1.498  13.876  20.580  0.00  0.00    +0.000 C 
ATOM      3  C   UNL     1       0.641  15.007  20.012  0.00  0.00    +0.000 A 
ATOM      4  C   UNL     1       1.102  15.858  19.002  0.00  0.00    +0.000 A 
ATOM      5  F   UNL     1       2.309  15.707  18.445  0.00  0.00    +0.000 F 
ATOM      6  C   UNL     1       0.304  16.904  18.565  0.00  0.00    +0.000 A 
ATOM      7  N   UNL     1      -0.918  17.182  19.062  0.00  0.00    +0.000 NA
ATOM      8  C   UNL     1      -1.364  16.342  20.024  0.00  0.00    +0.000 A 
ATOM      9  C   UNL     1      -0.659  15.241  20.532  0.00  0.00    +0.000 A 
ATOM     10  N   UNL     1      -1.248  14.379  21.449  0.00  0.00    +0.000 N 
ATOM     11  C   UNL     1      -1.429  12.993  21.018  0.00  0.00    +0.000 C 
ATOM     12  C   UNL     1      -0.148  12.158  21.232  0.00  0.00    +0.000 C 
ATOM     13  C   UNL     1      -0.481  10.695  21.587  0.00  0.00    +0.000 C 
ATOM     14  N   UNL     1       0.919  12.535  20.237  0.00  0.00    +0.000 N 
ATOM     15  C   UNL     1       1.155  12.172  18.927  0.00  0.00    +0.000 C 
ATOM     16  O   UNL     1       2.046  12.662  18.233  0.00  0.00    +0.000 OA
ATOM     17  N   UNL     1       0.417  11.263  18.262  0.00  0.00    +0.000 N 
ATOM     18  H   UNL     1       0.772  11.101  17.325  0.00  0.00    +0.000 HD
ENDROOT
BRANCH  10  19
ATOM     19  C   UNL     1      -1.752  14.836  22.742  0.00  0.00    +0.000 C 
BRANCH  19  20
ATOM     20  C   UNL     1      -3.065  14.209  23.156  0.00  0.00    +0.000 A 
ATOM     21  C   UNL     1      -4.290  14.606  22.597  0.00  0.00    +0.000 A 
ATOM     22  C   UNL     1      -5.489  14.001  22.978  0.00  0.00    +0.000 A 
ATOM     23  C   UNL     1      -5.479  12.966  23.908  0.00  0.00    +0.000 A 
ATOM     24  C   UNL     1      -4.272  12.540  24.455  0.00  0.00    +0.000 A 
ATOM     25  C   UNL     1      -3.075  13.157  24.086  0.00  0.00    +0.000 A 
ENDBRANCH  19  20
ENDBRANCH  10  19
BRANCH  17  26
ATOM     26  C   UNL     1      -0.639  10.431  18.720  0.00  0.00    +0.000 C 
BRANCH  26  27
ATOM     27  C   UNL     1      -1.912  10.468  17.956  0.00  0.00    +0.000 A 
ATOM     28  C   UNL     1      -2.944  11.321  18.349  0.00  0.00    +0.000 A 
ATOM     29  C   UNL     1      -4.047  11.497  17.517  0.00  0.00    +0.000 A 
ATOM     30  C   UNL     1      -4.114  10.821  16.296  0.00  0.00    +0.000 A 
ATOM     31  C   UNL     1      -3.089   9.962  15.906  0.00  0.00    +0.000 A 
ATOM     32  C   UNL     1      -1.991   9.780  16.737  0.00  0.00    +0.000 A 
ENDBRANCH  26  27
ENDBRANCH  17  26
TORSDOF 4
ENDMDL
MODEL 3
REMARK VINA RESULT:      -6.8      3.441      7.421
REMARK  Name = 
REMARK  6 active torsions:
REMARK  status: ('A' for Active; 'I' for Inactive)
REMARK    1  A    between atoms: C_1  and  C_2
REMARK    2  A    between atoms: N_10  and  C_11
REMARK    3  A    between atoms: C_11  and  C_12
REMARK    4  A    between atoms: C_19  and  C_20
REMARK    5  A    between atoms: N_24  and  C_25
REMARK    6  A    between atoms: C_25  and  C_26
REMARK                            x       y       z     vdW  Elec       q    Type
REMARK                         _______ _______ _______ _____ _____    ______ ____
ROOT
ATOM      1  C   UNL     1      -6.551  14.403  19.275  0.00  0.00    +0.000 C 
ATOM      2  C   UNL     1      -5.691  14.201  20.534  0.00  0.00    +0.000 C 
ATOM      3  C   UNL     1      -6.253  13.340  21.666  0.00  0.00    +0.000 A 
ATOM      4  C   UNL     1      -7.229  12.363  21.446  0.00  0.00    +0.000 A 
ATOM      5  F   UNL     1      -7.702  12.096  20.223  0.00  0.00    +0.000 F 
ATOM      6  C   UNL     1      -7.746  11.651  22.518  0.00  0.00    +0.000 A 
ATOM      7  N   UNL     1      -7.377  11.842  23.801  0.00  0.00    +0.000 NA
ATOM      8  C   UNL     1      -6.417  12.776  24.002  0.00  0.00    +0.000 A 
ATOM      9  C   UNL     1      -5.807  13.541  22.998  0.00  0.00    +0.000 A 
ATOM     10  N   UNL     1      -4.758  14.403  23.298  0.00  0.00    +0.000 N 
ATOM     11  C   UNL     1      -3.469  14.102  22.678  0.00  0.00    +0.000 C 
ATOM     12  C   UNL     1      -3.377  14.676  21.247  0.00  0.00    +0.000 C 
ATOM     13  C   UNL     1      -1.939  15.113  20.905  0.00  0.00    +0.000 C 
ATOM     14  N   UNL     1      -4.243  13.895  20.291  0.00  0.00    +0.000 N 
ATOM     15  C   UNL     1      -4.056  12.714  19.603  0.00  0.00    +0.000 C 
ATOM     16  O   UNL     1      -4.929  12.175  18.922  0.00  0.00    +0.000 OA
ATOM     17  N   UNL     1      -2.906  12.013  19.625  0.00  0.00    +0.000 N 
ATOM     18  H   UNL     1      -2.949  11.198  19.022  0.00  0.00    +0.000 HD
ENDROOT
BRANCH  10  19
ATOM     19  C   UNL     1      -4.894  15.499  24.255  0.00  0.00    +0.000 C 
BRANCH  19  20
ATOM     20  C   UNL     1      -3.586  15.980  24.842  0.00  0.00    +0.000 A 
ATOM     21  C   UNL     1      -2.769  15.148  25.624  0.00  0.00    +0.000 A 
ATOM     22  C   UNL     1      -1.555  15.605  26.140  0.00  0.00    +0.000 A 
ATOM     23  C   UNL     1      -1.123  16.896  25.858  0.00  0.00    +0.000 A 
ATOM     24  C   UNL     1      -1.906  17.730  25.064  0.00  0.00    +0.000 A 
ATOM     25  C   UNL     1      -3.128  17.278  24.561  0.00  0.00    +0.000 A 
ENDBRANCH  19  20
ENDBRANCH  10  19
BRANCH  17  26
ATOM     26  C   UNL     1      -1.656  12.326  20.222  0.00  0.00    +0.000 C 
BRANCH  26  27
ATOM     27  C   UNL     1      -1.016  11.271  21.047  0.00  0.00    +0.000 A 
ATOM     28  C   UNL     1      -1.132  11.297  22.437  0.00  0.00    +0.000 A 
ATOM     29  C   UNL     1      -0.704  10.203  23.185  0.00  0.00    +0.000 A 
ATOM     30  C   UNL     1      -0.163   9.087  22.542  0.00  0.00    +0.000 A 
ATOM     31  C   UNL     1      -0.037   9.063  21.154  0.00  0.00    +0.000 A 
ATOM     32  C   UNL     1      -0.457  10.156  20.407  0.00  0.00    +0.000 A 
ENDBRANCH  26  27
ENDBRANCH  17  26
TORSDOF 4
ENDMDL
MODEL 4
REMARK VINA RESULT:      -6.7      0.966      1.127
REMARK  Name = 
REMARK  6 active torsions:
REMARK  status: ('A' for Active; 'I' for Inactive)
REMARK    1  A    between atoms: C_1  and  C_2
REMARK    2  A    between atoms: N_10  and  C_11
REMARK    3  A    between atoms: C_11  and  C_12
REMARK    4  A    between atoms: C_19  and  C_20
REMARK    5  A    between atoms: N_24  and  C_25
REMARK    6  A    between atoms: C_25  and  C_26
REMARK                            x       y       z     vdW  Elec       q    Type
REMARK                         _______ _______ _______ _____ _____    ______ ____
ROOT
ATOM      1  C   UNL     1      -1.141  11.924  22.633  0.00  0.00    +0.000 C 
ATOM      2  C   UNL     1      -0.531  12.169  21.242  0.00  0.00    +0.000 C 
ATOM      3  C   UNL     1      -1.426  11.993  20.016  0.00  0.00    +0.000 A 
ATOM      4  C   UNL     1      -2.818  12.108  20.086  0.00  0.00    +0.000 A 
ATOM      5  F   UNL     1      -3.448  12.418  21.225  0.00  0.00    +0.000 F 
ATOM      6  C   UNL     1      -3.586  11.881  18.953  0.00  0.00    +0.000 A 
ATOM      7  N   UNL     1      -3.080  11.535  17.753  0.00  0.00    +0.000 NA
ATOM      8  C   UNL     1      -1.730  11.445  17.690  0.00  0.00    +0.000 A 
ATOM      9  C   UNL     1      -0.851  11.672  18.759  0.00  0.00    +0.000 A 
ATOM     10  N   UNL     1       0.525  11.654  18.566  0.00  0.00    +0.000 N 
ATOM     11  C   UNL     1       1.236  12.906  18.819  0.00  0.00    +0.000 C 
ATOM     12  C   UNL     1       1.566  13.081  20.317  0.00  0.00    +0.000 C 
ATOM     13  C   UNL     1       2.900  13.828  20.517  0.00  0.00    +0.000 C 
ATOM     14  N   UNL     1       0.327  13.393  21.115  0.00  0.00    +0.000 N 
ATOM     15  C   UNL     1      -0.372  14.560  21.349  0.00  0.00    +0.000 C 
ATOM     16  O   UNL     1      -1.436  14.605  21.969  0.00  0.00    +0.000 OA
ATOM     17  N   UNL     1       0.023  15.767  20.903  0.00  0.00    +0.000 N 
ATOM     18  H   UNL     1      -0.598  16.507  21.214  0.00  0.00    +0.000 HD
ENDROOT
BRANCH  10  19
ATOM     19  C   UNL     1       1.228  10.483  18.045  0.00  0.00    +0.000 C 
BRANCH  19  20
ATOM     20  C   UNL     1       1.393   9.360  19.044  0.00  0.00    +0.000 A 
ATOM     21  C   UNL     1       0.798   9.399  20.315  0.00  0.00    +0.000 A 
ATOM     22  C   UNL     1       0.946   8.343  21.216  0.00  0.00    +0.000 A 
ATOM     23  C   UNL     1       1.671   7.214  20.849  0.00  0.00    +0.000 A 
ATOM     24  C   UNL     1       2.248   7.144  19.584  0.00  0.00    +0.000 A 
ATOM     25  C   UNL     1       2.114   8.207  18.689  0.00  0.00    +0.000 A 
ENDBRANCH  19  20
ENDBRANCH  10  19
BRANCH  17  26
ATOM     26  C   UNL     1       1.210  16.146  20.223  0.00  0.00    +0.000 C 
BRANCH  26  27
ATOM     27  C   UNL     1       1.056  16.765  18.882  0.00  0.00    +0.000 A 
ATOM     28  C   UNL     1      -0.144  17.379  18.524  0.00  0.00    +0.000 A 
ATOM     29  C   UNL     1      -0.213  18.128  17.352  0.00  0.00    +0.000 A 
ATOM     30  C   UNL     1       0.919  18.262  16.543  0.00  0.00    +0.000 A 
ATOM     31  C   UNL     1       2.116  17.642  16.894  0.00  0.00    +0.000 A 
ATOM     32  C   UNL     1       2.185  16.889  18.059  0.00  0.00    +0.000 A 
ENDBRANCH  26  27
ENDBRANCH  17  26
TORSDOF 4
ENDMDL
MODEL 5
REMARK VINA RESULT:      -6.7      2.721      5.351
REMARK  Name = 
REMARK  6 active torsions:
REMARK  status: ('A' for Active; 'I' for Inactive)
REMARK    1  A    between atoms: C_1  and  C_2
REMARK    2  A    between atoms: N_10  and  C_11
REMARK    3  A    between atoms: C_11  and  C_12
REMARK    4  A    between atoms: C_19  and  C_20
REMARK    5  A    between atoms: N_24  and  C_25
REMARK    6  A    between atoms: C_25  and  C_26
REMARK                            x       y       z     vdW  Elec       q    Type
REMARK                         _______ _______ _______ _____ _____    ______ ____
ROOT
ATOM      1  C   UNL     1      -0.964  10.478  18.149  0.00  0.00    +0.000 C 
ATOM      2  C   UNL     1      -0.860  11.554  19.243  0.00  0.00    +0.000 C 
ATOM      3  C   UNL     1      -0.745  11.099  20.699  0.00  0.00    +0.000 A 
ATOM      4  C   UNL     1      -0.250   9.840  21.050  0.00  0.00    +0.000 A 
ATOM      5  F   UNL     1       0.191   8.971  20.133  0.00  0.00    +0.000 F 
ATOM      6  C   UNL     1      -0.222   9.457  22.383  0.00  0.00    +0.000 A 
ATOM      7  N   UNL     1      -0.662  10.226  23.399  0.00  0.00    +0.000 NA
ATOM      8  C   UNL     1      -1.121  11.451  23.052  0.00  0.00    +0.000 A 
ATOM      9  C   UNL     1      -1.178  11.956  21.744  0.00  0.00    +0.000 A 
ATOM     10  N   UNL     1      -1.572  13.266  21.503  0.00  0.00    +0.000 N 
ATOM     11  C   UNL     1      -0.575  14.147  20.898  0.00  0.00    +0.000 C 
ATOM     12  C   UNL     1      -0.541  13.997  19.361  0.00  0.00    +0.000 C 
ATOM     13  C   UNL     1      -0.200  15.334  18.672  0.00  0.00    +0.000 C 
ATOM     14  N   UNL     1       0.081  12.686  18.955  0.00  0.00    +0.000 N 
ATOM     15  C   UNL     1       1.389  12.270  18.813  0.00  0.00    +0.000 C 
ATOM     16  O   UNL     1       1.711  11.110  18.552  0.00  0.00    +0.000 OA
ATOM     17  N   UNL     1       2.451  13.083  18.971  0.00  0.00    +0.000 N 
ATOM     18  H   UNL     1       3.325  12.603  18.783  0.00  0.00    +0.000 HD
ENDROOT
BRANCH  10  19
ATOM     19  C   UNL     1      -2.878  13.780  21.915  0.00  0.00    +0.000 C 
BRANCH  19  20
ATOM     20  C   UNL     1      -4.053  13.099  21.249  0.00  0.00    +0.000 A 
ATOM     21  C   UNL     1      -5.231  12.791  21.950  0.00  0.00    +0.000 A 
ATOM     22  C   UNL     1      -6.313  12.181  21.313  0.00  0.00    +0.000 A 
ATOM     23  C   UNL     1      -6.245  11.893  19.954  0.00  0.00    +0.000 A 
ATOM     24  C   UNL     1      -5.097  12.213  19.235  0.00  0.00    +0.000 A 
ATOM     25  C   UNL     1      -4.009  12.808  19.876  0.00  0.00    +0.000 A 
ENDBRANCH  19  20
ENDBRANCH  10  19
BRANCH  17  26
ATOM     26  C   UNL     1       2.504  14.483  19.201  0.00  0.00    +0.000 C 
BRANCH  26  27
ATOM     27  C   UNL     1       3.790  15.169  18.917  0.00  0.00    +0.000 A 
ATOM     28  C   UNL     1       4.141  16.323  19.616  0.00  0.00    +0.000 A 
ATOM     29  C   UNL     1       5.427  16.842  19.490  0.00  0.00    +0.000 A 
ATOM     30  C   UNL     1       6.358  16.203  18.666  0.00  0.00    +0.000 A 
ATOM     31  C   UNL     1       6.006  15.056  17.959  0.00  0.00    +0.000 A 
ATOM     32  C   UNL     1       4.722  14.541  18.079  0.00  0.00    +0.000 A 
ENDBRANCH  26  27
ENDBRANCH  17  26
TORSDOF 4
ENDMDL
MODEL 6
REMARK VINA RESULT:      -6.7      2.636      6.469
REMARK  Name = 
REMARK  6 active torsions:
REMARK  status: ('A' for Active; 'I' for Inactive)
REMARK    1  A    between atoms: C_1  and  C_2
REMARK    2  A    between atoms: N_10  and  C_11
REMARK    3  A    between atoms: C_11  and  C_12
REMARK    4  A    between atoms: C_19  and  C_20
REMARK    5  A    between atoms: N_24  and  C_25
REMARK    6  A    between atoms: C_25  and  C_26
REMARK                            x       y       z     vdW  Elec       q    Type
REMARK                         _______ _______ _______ _____ _____    ______ ____
ROOT
ATOM      1  C   UNL     1       2.506  14.803  20.584  0.00  0.00    +0.000 C 
ATOM      2  C   UNL     1       1.018  14.441  20.731  0.00  0.00    +0.000 C 
ATOM      3  C   UNL     1      -0.025  15.457  20.264  0.00  0.00    +0.000 A 
ATOM      4  C   UNL     1       0.261  16.431  19.302  0.00  0.00    +0.000 A 
ATOM      5  F   UNL     1       1.455  16.507  18.703  0.00  0.00    +0.000 F 
ATOM      6  C   UNL     1      -0.705  17.364  18.958  0.00  0.00    +0.000 A 
ATOM      7  N   UNL     1      -1.936  17.415  19.505  0.00  0.00    +0.000 NA
ATOM      8  C   UNL     1      -2.210  16.456  20.421  0.00  0.00    +0.000 A 
ATOM      9  C   UNL     1      -1.325  15.450  20.833  0.00  0.00    +0.000 A 
ATOM     10  N   UNL     1      -1.738  14.451  21.706  0.00  0.00    +0.000 N 
ATOM     11  C   UNL     1      -1.718  13.084  21.188  0.00  0.00    +0.000 C 
ATOM     12  C   UNL     1      -0.316  12.449  21.310  0.00  0.00    +0.000 C 
ATOM     13  C   UNL     1      -0.405  10.932  21.575  0.00  0.00    +0.000 C 
ATOM     14  N   UNL     1       0.642  13.050  20.314  0.00  0.00    +0.000 N 
ATOM     15  C   UNL     1       0.882  12.811  18.976  0.00  0.00    +0.000 C 
ATOM     16  O   UNL     1       1.660  13.477  18.293  0.00  0.00    +0.000 OA
ATOM     17  N   UNL     1       0.269  11.840  18.272  0.00  0.00    +0.000 N 
ATOM     18  H   UNL     1       0.610  11.795  17.317  0.00  0.00    +0.000 HD
ENDROOT
BRANCH  10  19
ATOM     19  C   UNL     1      -2.259  14.742  23.040  0.00  0.00    +0.000 C 
BRANCH  19  20
ATOM     20  C   UNL     1      -3.571  14.061  23.359  0.00  0.00    +0.000 A 
ATOM     21  C   UNL     1      -3.659  13.008  24.285  0.00  0.00    +0.000 A 
ATOM     22  C   UNL     1      -4.883  12.406  24.581  0.00  0.00    +0.000 A 
ATOM     23  C   UNL     1      -6.047  12.866  23.975  0.00  0.00    +0.000 A 
ATOM     24  C   UNL     1      -5.986  13.926  23.073  0.00  0.00    +0.000 A 
ATOM     25  C   UNL     1      -4.759  14.517  22.765  0.00  0.00    +0.000 A 
ENDBRANCH  19  20
ENDBRANCH  10  19
BRANCH  17  26
ATOM     26  C   UNL     1      -0.627  10.826  18.701  0.00  0.00    +0.000 C 
BRANCH  26  27
ATOM     27  C   UNL     1      -1.900  10.684  17.951  0.00  0.00    +0.000 A 
ATOM     28  C   UNL     1      -2.992  11.497  18.256  0.00  0.00    +0.000 A 
ATOM     29  C   UNL     1      -4.106  11.497  17.420  0.00  0.00    +0.000 A 
ATOM     30  C   UNL     1      -4.124  10.685  16.283  0.00  0.00    +0.000 A 
ATOM     31  C   UNL     1      -3.039   9.865  15.982  0.00  0.00    +0.000 A 
ATOM     32  C   UNL     1      -1.930   9.859  16.817  0.00  0.00    +0.000 A 
ENDBRANCH  26  27
ENDBRANCH  17  26
TORSDOF 4
ENDMDL
MODEL 7
REMARK VINA RESULT:      -6.7      2.708      6.525
REMARK  Name = 
REMARK  6 active torsions:
REMARK  status: ('A' for Active; 'I' for Inactive)
REMARK    1  A    between atoms: C_1  and  C_2
REMARK    2  A    between atoms: N_10  and  C_11
REMARK    3  A    between atoms: C_11  and  C_12
REMARK    4  A    between atoms: C_19  and  C_20
REMARK    5  A    between atoms: N_24  and  C_25
REMARK    6  A    between atoms: C_25  and  C_26
REMARK                            x       y       z     vdW  Elec       q    Type
REMARK                         _______ _______ _______ _____ _____    ______ ____
ROOT
ATOM      1  C   UNL     1       3.152  13.871  20.753  0.00  0.00    +0.000 C 
ATOM      2  C   UNL     1       1.614  13.859  20.715  0.00  0.00    +0.000 C 
ATOM      3  C   UNL     1       0.896  15.034  20.050  0.00  0.00    +0.000 A 
ATOM      4  C   UNL     1       1.512  15.832  19.080  0.00  0.00    +0.000 A 
ATOM      5  F   UNL     1       2.755  15.591  18.649  0.00  0.00    +0.000 F 
ATOM      6  C   UNL     1       0.833  16.920  18.552  0.00  0.00    +0.000 A 
ATOM      7  N   UNL     1      -0.410  17.288  18.921  0.00  0.00    +0.000 NA
ATOM      8  C   UNL     1      -1.005  16.497  19.845  0.00  0.00    +0.000 A 
ATOM      9  C   UNL     1      -0.430  15.362  20.434  0.00  0.00    +0.000 A 
ATOM     10  N   UNL     1      -1.163  14.559  21.298  0.00  0.00    +0.000 N 
ATOM     11  C   UNL     1      -1.395  13.181  20.870  0.00  0.00    +0.000 C 
ATOM     12  C   UNL     1      -0.200  12.267  21.221  0.00  0.00    +0.000 C 
ATOM     13  C   UNL     1      -0.665  10.836  21.560  0.00  0.00    +0.000 C 
ATOM     14  N   UNL     1       0.983  12.553  20.333  0.00  0.00    +0.000 N 
ATOM     15  C   UNL     1       1.322  12.150  19.057  0.00  0.00    +0.000 C 
ATOM     16  O   UNL     1       2.309  12.567  18.450  0.00  0.00    +0.000 OA
ATOM     17  N   UNL     1       0.593  11.279  18.334  0.00  0.00    +0.000 N 
ATOM     18  H   UNL     1       1.027  11.075  17.440  0.00  0.00    +0.000 HD
ENDROOT
BRANCH  10  19
ATOM     19  C   UNL     1      -1.761  15.074  22.529  0.00  0.00    +0.000 C 
BRANCH  19  20
ATOM     20  C   UNL     1      -2.996  14.328  22.982  0.00  0.00    +0.000 A 
ATOM     21  C   UNL     1      -2.940  13.315  23.953  0.00  0.00    +0.000 A 
ATOM     22  C   UNL     1      -4.095  12.651  24.373  0.00  0.00    +0.000 A 
ATOM     23  C   UNL     1      -5.331  13.009  23.846  0.00  0.00    +0.000 A 
ATOM     24  C   UNL     1      -5.412  14.028  22.901  0.00  0.00    +0.000 A 
ATOM     25  C   UNL     1      -4.255  14.680  22.469  0.00  0.00    +0.000 A 
ENDBRANCH  19  20
ENDBRANCH  10  19
BRANCH  17  26
ATOM     26  C   UNL     1      -0.557  10.528  18.695  0.00  0.00    +0.000 C 
BRANCH  26  27
ATOM     27  C   UNL     1      -1.760  10.677  17.838  0.00  0.00    +0.000 A 
ATOM     28  C   UNL     1      -1.918   9.885  16.701  0.00  0.00    +0.000 A 
ATOM     29  C   UNL     1      -3.133   9.887  16.022  0.00  0.00    +0.000 A 
ATOM     30  C   UNL     1      -4.187  10.682  16.482  0.00  0.00    +0.000 A 
ATOM     31  C   UNL     1      -4.029  11.482  17.611  0.00  0.00    +0.000 A 
ATOM     32  C   UNL     1      -2.815  11.485  18.287  0.00  0.00    +0.000 A 
ENDBRANCH  26  27
ENDBRANCH  17  26
TORSDOF 4
ENDMDL
MODEL 8
REMARK VINA RESULT:      -6.7      1.624      2.211
REMARK  Name = 
REMARK  6 active torsions:
REMARK  status: ('A' for Active; 'I' for Inactive)
REMARK    1  A    between atoms: C_1  and  C_2
REMARK    2  A    between atoms: N_10  and  C_11
REMARK    3  A    between atoms: C_11  and  C_12
REMARK    4  A    between atoms: C_19  and  C_20
REMARK    5  A    between atoms: N_24  and  C_25
REMARK    6  A    between atoms: C_25  and  C_26
REMARK                            x       y       z     vdW  Elec       q    Type
REMARK                         _______ _______ _______ _____ _____    ______ ____
ROOT
ATOM      1  C   UNL     1      -4.254  13.051  22.220  0.00  0.00    +0.000 C 
ATOM      2  C   UNL     1      -3.246  12.825  21.080  0.00  0.00    +0.000 C 
ATOM      3  C   UNL     1      -3.784  12.432  19.704  0.00  0.00    +0.000 A 
ATOM      4  C   UNL     1      -5.087  12.736  19.298  0.00  0.00    +0.000 A 
ATOM      5  F   UNL     1      -5.930  13.425  20.076  0.00  0.00    +0.000 F 
ATOM      6  C   UNL     1      -5.542  12.305  18.060  0.00  0.00    +0.000 A 
ATOM      7  N   UNL     1      -4.805  11.581  17.194  0.00  0.00    +0.000 NA
ATOM      8  C   UNL     1      -3.538  11.309  17.587  0.00  0.00    +0.000 A 
ATOM      9  C   UNL     1      -2.962  11.708  18.802  0.00  0.00    +0.000 A 
ATOM     10  N   UNL     1      -1.620  11.464  19.067  0.00  0.00    +0.000 N 
ATOM     11  C   UNL     1      -0.767  12.637  19.247  0.00  0.00    +0.000 C 
ATOM     12  C   UNL     1      -0.835  13.175  20.694  0.00  0.00    +0.000 C 
ATOM     13  C   UNL     1       0.515  13.774  21.137  0.00  0.00    +0.000 C 
ATOM     14  N   UNL     1      -2.156  13.848  20.962  0.00  0.00    +0.000 N 
ATOM     15  C   UNL     1      -2.639  15.113  20.694  0.00  0.00    +0.000 C 
ATOM     16  O   UNL     1      -3.800  15.461  20.915  0.00  0.00    +0.000 OA
ATOM     17  N   UNL     1      -1.898  16.091  20.139  0.00  0.00    +0.000 N 
ATOM     18  H   UNL     1      -2.416  16.960  20.062  0.00  0.00    +0.000 HD
ENDROOT
BRANCH  10  19
ATOM     19  C   UNL     1      -1.055  10.116  19.074  0.00  0.00    +0.000 C 
BRANCH  19  20
ATOM     20  C   UNL     1      -0.316   9.756  20.344  0.00  0.00    +0.000 A 
ATOM     21  C   UNL     1      -0.926   9.828  21.607  0.00  0.00    +0.000 A 
ATOM     22  C   UNL     1      -0.233   9.472  22.766  0.00  0.00    +0.000 A 
ATOM     23  C   UNL     1       1.076   9.010  22.677  0.00  0.00    +0.000 A 
ATOM     24  C   UNL     1       1.690   8.907  21.432  0.00  0.00    +0.000 A 
ATOM     25  C   UNL     1       1.003   9.279  20.276  0.00  0.00    +0.000 A 
ENDBRANCH  19  20
ENDBRANCH  10  19
BRANCH  17  26
ATOM     26  C   UNL     1      -0.517  16.115  19.808  0.00  0.00    +0.000 C 
BRANCH  26  27
ATOM     27  C   UNL     1      -0.086  17.085  18.769  0.00  0.00    +0.000 A 
ATOM     28  C   UNL     1       1.230  17.085  18.309  0.00  0.00    +0.000 A 
ATOM     29  C   UNL     1       1.573  17.854  17.200  0.00  0.00    +0.000 A 
ATOM     30  C   UNL     1       0.599  18.620  16.554  0.00  0.00    +0.000 A 
ATOM     31  C   UNL     1      -0.715  18.629  17.018  0.00  0.00    +0.000 A 
ATOM     32  C   UNL     1      -1.058  17.867  18.128  0.00  0.00    +0.000 A 
ENDBRANCH  26  27
ENDBRANCH  17  26
TORSDOF 4
ENDMDL
MODEL 9
REMARK VINA RESULT:      -6.7      2.699      5.414
REMARK  Name = 
REMARK  6 active torsions:
REMARK  status: ('A' for Active; 'I' for Inactive)
REMARK    1  A    between atoms: C_1  and  C_2
REMARK    2  A    between atoms: N_10  and  C_11
REMARK    3  A    between atoms: C_11  and  C_12
REMARK    4  A    between atoms: C_19  and  C_20
REMARK    5  A    between atoms: N_24  and  C_25
REMARK    6  A    between atoms: C_25  and  C_26
REMARK                            x       y       z     vdW  Elec       q    Type
REMARK                         _______ _______ _______ _____ _____    ______ ____
ROOT
ATOM      1  C   UNL     1      -0.926  10.386  18.153  0.00  0.00    +0.000 C 
ATOM      2  C   UNL     1      -0.841  11.479  19.232  0.00  0.00    +0.000 C 
ATOM      3  C   UNL     1      -0.721  11.047  20.694  0.00  0.00    +0.000 A 
ATOM      4  C   UNL     1      -0.206   9.801  21.064  0.00  0.00    +0.000 A 
ATOM      5  F   UNL     1       0.250   8.926  20.161  0.00  0.00    +0.000 F 
ATOM      6  C   UNL     1      -0.174   9.439  22.402  0.00  0.00    +0.000 A 
ATOM      7  N   UNL     1      -0.628  10.214  23.407  0.00  0.00    +0.000 NA
ATOM      8  C   UNL     1      -1.106  11.427  23.041  0.00  0.00    +0.000 A 
ATOM      9  C   UNL     1      -1.169  11.912  21.727  0.00  0.00    +0.000 A 
ATOM     10  N   UNL     1      -1.585  13.212  21.466  0.00  0.00    +0.000 N 
ATOM     11  C   UNL     1      -0.600  14.100  20.849  0.00  0.00    +0.000 C 
ATOM     12  C   UNL     1      -0.562  13.929  19.315  0.00  0.00    +0.000 C 
ATOM     13  C   UNL     1      -0.242  15.260  18.607  0.00  0.00    +0.000 C 
ATOM     14  N   UNL     1       0.082  12.622  18.929  0.00  0.00    +0.000 N 
ATOM     15  C   UNL     1       1.397  12.225  18.795  0.00  0.00    +0.000 C 
ATOM     16  O   UNL     1       1.738  11.067  18.551  0.00  0.00    +0.000 OA
ATOM     17  N   UNL     1       2.445  13.057  18.942  0.00  0.00    +0.000 N 
ATOM     18  H   UNL     1       3.327  12.589  18.762  0.00  0.00    +0.000 HD
ENDROOT
BRANCH  10  19
ATOM     19  C   UNL     1      -2.899  13.710  21.868  0.00  0.00    +0.000 C 
BRANCH  19  20
ATOM     20  C   UNL     1      -4.059  13.061  21.147  0.00  0.00    +0.000 A 
ATOM     21  C   UNL     1      -3.979  12.681  19.797  0.00  0.00    +0.000 A 
ATOM     22  C   UNL     1      -5.055  12.065  19.155  0.00  0.00    +0.000 A 
ATOM     23  C   UNL     1      -6.221  11.792  19.862  0.00  0.00    +0.000 A 
ATOM     24  C   UNL     1      -6.312  12.137  21.207  0.00  0.00    +0.000 A 
ATOM     25  C   UNL     1      -5.242  12.769  21.845  0.00  0.00    +0.000 A 
ENDBRANCH  19  20
ENDBRANCH  10  19
BRANCH  17  26
ATOM     26  C   UNL     1       2.475  14.461  19.152  0.00  0.00    +0.000 C 
BRANCH  26  27
ATOM     27  C   UNL     1       3.805  15.122  19.133  0.00  0.00    +0.000 A 
ATOM     28  C   UNL     1       4.811  14.653  18.289  0.00  0.00    +0.000 A 
ATOM     29  C   UNL     1       5.979  15.395  18.129  0.00  0.00    +0.000 A 
ATOM     30  C   UNL     1       6.135  16.604  18.813  0.00  0.00    +0.000 A 
ATOM     31  C   UNL     1       5.135  17.069  19.664  0.00  0.00    +0.000 A 
ATOM     32  C   UNL     1       3.972  16.327  19.829  0.00  0.00    +0.000 A 
ENDBRANCH  26  27
ENDBRANCH  17  26
TORSDOF 4
ENDMDL
