MODEL 1
REMARK VINA RESULT:      -8.2      0.000      0.000
REMARK  Name = 
REMARK  5 active torsions:
REMARK  status: ('A' for Active; 'I' for Inactive)
REMARK    1  A    between atoms: C_1  and  C_2
REMARK    2  A    between atoms: C_6  and  C_7
REMARK    3  A    between atoms: N_10  and  C_11
REMARK    4  A    between atoms: C_11  and  C_12
REMARK    5  A    between atoms: C_12  and  N_13
REMARK                            x       y       z     vdW  Elec       q    Type
REMARK                         _______ _______ _______ _____ _____    ______ ____
ROOT
ATOM      1  C   UNL     1       2.954   2.275  19.379  0.00  0.00    +0.000 C 
ATOM      2  C   UNL     1       1.655   2.639  18.659  0.00  0.00    +0.000 C 
ATOM      3  C   UNL     1       1.197   4.062  18.979  0.00  0.00    +0.000 C 
ATOM      4  N   UNL     1       0.994   4.246  20.426  0.00  0.00    +0.000 NA
ATOM      5  C   UNL     1       2.261   3.994  21.146  0.00  0.00    +0.000 C 
ATOM      6  C   UNL     1       2.842   2.605  20.869  0.00  0.00    +0.000 C 
ENDROOT
BRANCH   1  12
ATOM      7  C   UNL     1       7.301   5.273  14.199  0.00  0.00    +0.000 C 
ATOM      8  C   UNL     1       6.707   4.963  15.547  0.00  0.00    +0.000 A 
ATOM      9  C   UNL     1       5.863   3.844  15.675  0.00  0.00    +0.000 A 
ATOM     10  C   UNL     1       5.308   3.601  16.930  0.00  0.00    +0.000 A 
ATOM     11  N   UNL     1       4.430   2.650  17.383  0.00  0.00    +0.000 N 
ATOM     12  C   UNL     1       4.113   2.940  18.690  0.00  0.00    +0.000 A 
ATOM     13  N   UNL     1       4.850   3.938  19.133  0.00  0.00    +0.000 NA
ATOM     14  C   UNL     1       5.561   4.386  18.047  0.00  0.00    +0.000 A 
ATOM     15  C   UNL     1       6.416   5.489  17.927  0.00  0.00    +0.000 A 
ATOM     16  C   UNL     1       6.972   5.770  16.671  0.00  0.00    +0.000 A 
ATOM     17 CL   UNL     1       7.986   7.167  16.548  0.00  0.00    +0.000 Cl
ATOM     18  H   UNL     1       3.998   1.934  16.819  0.00  0.00    +0.000 HD
ENDBRANCH   1  12
BRANCH   4  19
ATOM     19  C   UNL     1       0.552   5.633  20.719  0.00  0.00    +0.000 C 
BRANCH  19  20
ATOM     20  C   UNL     1       1.687   6.657  20.927  0.00  0.00    +0.000 C 
BRANCH  20  21
ATOM     21  N   UNL     1       1.540   7.841  20.075  0.00  0.00    +0.000 N 
ATOM     22  C   UNL     1       2.221   7.848  18.857  0.00  0.00    +0.000 A 
ATOM     23  O   UNL     1       2.939   6.936  18.455  0.00  0.00    +0.000 OA
ATOM     24  C   UNL     1       2.040   9.038  17.988  0.00  0.00    +0.000 A 
ATOM     25  C   UNL     1       1.385  10.124  18.411  0.00  0.00    +0.000 A 
ATOM     26  C   UNL     1       0.837  10.164  19.758  0.00  0.00    +0.000 A 
ATOM     27  N   UNL     1       0.326  11.355  20.147  0.00  0.00    +0.000 NA
ATOM     28  C   UNL     1      -0.188  11.402  21.397  0.00  0.00    +0.000 A 
ATOM     29  C   UNL     1      -0.254  10.304  22.236  0.00  0.00    +0.000 A 
ATOM     30  F   UNL     1      -0.788  10.414  23.458  0.00  0.00    +0.000 F 
ATOM     31  C   UNL     1       0.263   9.088  21.809  0.00  0.00    +0.000 A 
ATOM     32  C   UNL     1       0.866   9.008  20.552  0.00  0.00    +0.000 A 
ENDBRANCH  20  21
ENDBRANCH  19  20
ENDBRANCH   4  19
TORSDOF 4
ENDMDL
MODEL 2
REMARK VINA RESULT:      -7.8      4.070      8.529
REMARK  Name = 
REMARK  5 active torsions:
REMARK  status: ('A' for Active; 'I' for Inactive)
REMARK    1  A    between atoms: C_1  and  C_2
REMARK    2  A    between atoms: C_6  and  C_7
REMARK    3  A    between atoms: N_10  and  C_11
REMARK    4  A    between atoms: C_11  and  C_12
REMARK    5  A    between atoms: C_12  and  N_13
REMARK                            x       y       z     vdW  Elec       q    Type
REMARK                         _______ _______ _______ _____ _____    ______ ____
ROOT
ATOM      1  C   UNL     1       1.113  10.061  19.525  0.00  0.00    +0.000 C 
ATOM      2  C   UNL     1       2.086   9.111  18.824  0.00  0.00    +0.000 C 
ATOM      3  C   UNL     1       1.770   7.644  19.114  0.00  0.00    +0.000 C 
ATOM      4  N   UNL     1       1.808   7.365  20.560  0.00  0.00    +0.000 NA
ATOM      5  C   UNL     1       0.807   8.201  21.258  0.00  0.00    +0.000 C 
ATOM      6  C   UNL     1       0.998   9.699  21.007  0.00  0.00    +0.000 C 
ENDROOT
BRANCH   1  12
ATOM      7  C   UNL     1      -5.443  12.157  16.816  0.00  0.00    +0.000 C 
ATOM      8  C   UNL     1      -4.137  11.422  16.960  0.00  0.00    +0.000 A 
ATOM      9  C   UNL     1      -3.438  11.515  18.179  0.00  0.00    +0.000 A 
ATOM     10  C   UNL     1      -2.219  10.846  18.270  0.00  0.00    +0.000 A 
ATOM     11  N   UNL     1      -1.283  10.765  19.269  0.00  0.00    +0.000 N 
ATOM     12  C   UNL     1      -0.199  10.066  18.791  0.00  0.00    +0.000 A 
ATOM     13  N   UNL     1      -0.455   9.578  17.594  0.00  0.00    +0.000 NA
ATOM     14  C   UNL     1      -1.681  10.086  17.240  0.00  0.00    +0.000 A 
ATOM     15  C   UNL     1      -2.383   9.976  16.034  0.00  0.00    +0.000 A 
ATOM     16  C   UNL     1      -3.603  10.657  15.905  0.00  0.00    +0.000 A 
ATOM     17 CL   UNL     1      -4.421  10.538  14.385  0.00  0.00    +0.000 Cl
ATOM     18  H   UNL     1      -1.330  11.240  20.157  0.00  0.00    +0.000 HD
ENDBRANCH   1  12
BRANCH   4  19
ATOM     19  C   UNL     1       1.496   5.937  20.824  0.00  0.00    +0.000 C 
BRANCH  19  20
ATOM     20  C   UNL     1       2.718   4.996  20.890  0.00  0.00    +0.000 C 
BRANCH  20  21
ATOM     21  N   UNL     1       2.821   4.125  19.716  0.00  0.00    +0.000 N 
ATOM     22  C   UNL     1       2.110   2.925  19.739  0.00  0.00    +0.000 A 
ATOM     23  O   UNL     1       1.412   2.547  20.676  0.00  0.00    +0.000 OA
ATOM     24  C   UNL     1       2.196   2.064  18.532  0.00  0.00    +0.000 A 
ATOM     25  C   UNL     1       3.037   2.341  17.531  0.00  0.00    +0.000 A 
ATOM     26  C   UNL     1       3.905   3.506  17.610  0.00  0.00    +0.000 A 
ATOM     27  N   UNL     1       4.825   3.619  16.624  0.00  0.00    +0.000 NA
ATOM     28  C   UNL     1       5.635   4.699  16.688  0.00  0.00    +0.000 A 
ATOM     29  C   UNL     1       5.525   5.679  17.659  0.00  0.00    +0.000 A 
ATOM     30  F   UNL     1       6.350   6.732  17.658  0.00  0.00    +0.000 F 
ATOM     31  C   UNL     1       4.564   5.548  18.652  0.00  0.00    +0.000 A 
ATOM     32  C   UNL     1       3.749   4.415  18.667  0.00  0.00    +0.000 A 
ENDBRANCH  20  21
ENDBRANCH  19  20
ENDBRANCH   4  19
TORSDOF 4
ENDMDL
MODEL 3
REMARK VINA RESULT:      -7.8      3.589      7.526
REMARK  Name = 
REMARK  5 active torsions:
REMARK  status: ('A' for Active; 'I' for Inactive)
REMARK    1  A    between atoms: C_1  and  C_2
REMARK    2  A    between atoms: C_6  and  C_7
REMARK    3  A    between atoms: N_10  and  C_11
REMARK    4  A    between atoms: C_11  and  C_12
REMARK    5  A    between atoms: C_12  and  N_13
REMARK                            x       y       z     vdW  Elec       q    Type
REMARK                         _______ _______ _______ _____ _____    ______ ____
ROOT
ATOM      1  C   UNL     1       1.327   4.177  20.755  0.00  0.00    +0.000 C 
ATOM      2  C   UNL     1       2.654   3.522  21.139  0.00  0.00    +0.000 C 
ATOM      3  C   UNL     1       3.618   3.433  19.957  0.00  0.00    +0.000 C 
ATOM      4  N   UNL     1       3.029   2.671  18.843  0.00  0.00    +0.000 NA
ATOM      5  C   UNL     1       1.789   3.335  18.382  0.00  0.00    +0.000 C 
ATOM      6  C   UNL     1       0.757   3.518  19.497  0.00  0.00    +0.000 C 
ENDROOT
BRANCH   1  12
ATOM      7  C   UNL     1       1.925  11.009  17.981  0.00  0.00    +0.000 C 
ATOM      8  C   UNL     1       1.690   9.892  18.962  0.00  0.00    +0.000 A 
ATOM      9  C   UNL     1       2.111   8.592  18.623  0.00  0.00    +0.000 A 
ATOM     10  C   UNL     1       1.853   7.576  19.542  0.00  0.00    +0.000 A 
ATOM     11  N   UNL     1       2.082   6.224  19.512  0.00  0.00    +0.000 N 
ATOM     12  C   UNL     1       1.518   5.664  20.634  0.00  0.00    +0.000 A 
ATOM     13  N   UNL     1       1.069   6.603  21.443  0.00  0.00    +0.000 NA
ATOM     14  C   UNL     1       1.229   7.786  20.764  0.00  0.00    +0.000 A 
ATOM     15  C   UNL     1       0.826   9.081  21.112  0.00  0.00    +0.000 A 
ATOM     16  C   UNL     1       1.053  10.120  20.198  0.00  0.00    +0.000 A 
ATOM     17 CL   UNL     1       0.500  11.699  20.639  0.00  0.00    +0.000 Cl
ATOM     18  H   UNL     1       2.486   5.714  18.741  0.00  0.00    +0.000 HD
ENDBRANCH   1  12
BRANCH   4  19
ATOM     19  C   UNL     1       3.977   2.597  17.702  0.00  0.00    +0.000 C 
BRANCH  19  20
ATOM     20  C   UNL     1       3.864   3.742  16.674  0.00  0.00    +0.000 C 
BRANCH  20  21
ATOM     21  N   UNL     1       5.097   4.526  16.568  0.00  0.00    +0.000 N 
ATOM     22  C   UNL     1       5.372   5.438  17.588  0.00  0.00    +0.000 A 
ATOM     23  O   UNL     1       4.649   5.633  18.562  0.00  0.00    +0.000 OA
ATOM     24  C   UNL     1       6.639   6.205  17.487  0.00  0.00    +0.000 A 
ATOM     25  C   UNL     1       7.409   6.147  16.396  0.00  0.00    +0.000 A 
ATOM     26  C   UNL     1       7.009   5.325  15.264  0.00  0.00    +0.000 A 
ATOM     27  N   UNL     1       7.771   5.448  14.152  0.00  0.00    +0.000 NA
ATOM     28  C   UNL     1       7.407   4.687  13.096  0.00  0.00    +0.000 A 
ATOM     29  C   UNL     1       6.359   3.786  13.130  0.00  0.00    +0.000 A 
ATOM     30  F   UNL     1       6.058   3.051  12.053  0.00  0.00    +0.000 F 
ATOM     31  C   UNL     1       5.600   3.666  14.287  0.00  0.00    +0.000 A 
ATOM     32  C   UNL     1       5.895   4.481  15.382  0.00  0.00    +0.000 A 
ENDBRANCH  20  21
ENDBRANCH  19  20
ENDBRANCH   4  19
TORSDOF 4
ENDMDL
MODEL 4
REMARK VINA RESULT:      -7.7      4.079      8.588
REMARK  Name = 
REMARK  5 active torsions:
REMARK  status: ('A' for Active; 'I' for Inactive)
REMARK    1  A    between atoms: C_1  and  C_2
REMARK    2  A    between atoms: C_6  and  C_7
REMARK    3  A    between atoms: N_10  and  C_11
REMARK    4  A    between atoms: C_11  and  C_12
REMARK    5  A    between atoms: C_12  and  N_13
REMARK                            x       y       z     vdW  Elec       q    Type
REMARK                         _______ _______ _______ _____ _____    ______ ____
ROOT
ATOM      1  C   UNL     1       1.084  10.143  19.748  0.00  0.00    +0.000 C 
ATOM      2  C   UNL     1       2.156   9.417  18.934  0.00  0.00    +0.000 C 
ATOM      3  C   UNL     1       1.989   7.899  18.984  0.00  0.00    +0.000 C 
ATOM      4  N   UNL     1       2.041   7.400  20.369  0.00  0.00    +0.000 NA
ATOM      5  C   UNL     1       0.953   8.013  21.163  0.00  0.00    +0.000 C 
ATOM      6  C   UNL     1       0.992   9.543  21.153  0.00  0.00    +0.000 C 
ENDROOT
BRANCH   1  12
ATOM      7  C   UNL     1      -5.429  12.175  16.891  0.00  0.00    +0.000 C 
ATOM      8  C   UNL     1      -4.124  11.447  17.069  0.00  0.00    +0.000 A 
ATOM      9  C   UNL     1      -3.448  11.560  18.299  0.00  0.00    +0.000 A 
ATOM     10  C   UNL     1      -2.228  10.897  18.422  0.00  0.00    +0.000 A 
ATOM     11  N   UNL     1      -1.309  10.834  19.439  0.00  0.00    +0.000 N 
ATOM     12  C   UNL     1      -0.215  10.132  18.991  0.00  0.00    +0.000 A 
ATOM     13  N   UNL     1      -0.448   9.626  17.797  0.00  0.00    +0.000 NA
ATOM     14  C   UNL     1      -1.668  10.125  17.413  0.00  0.00    +0.000 A 
ATOM     15  C   UNL     1      -2.348   9.994  16.196  0.00  0.00    +0.000 A 
ATOM     16  C   UNL     1      -3.567  10.668  16.035  0.00  0.00    +0.000 A 
ATOM     17 CL   UNL     1      -4.357  10.524  14.502  0.00  0.00    +0.000 Cl
ATOM     18  H   UNL     1      -1.375  11.321  20.319  0.00  0.00    +0.000 HD
ENDBRANCH   1  12
BRANCH   4  19
ATOM     19  C   UNL     1       1.875   5.925  20.399  0.00  0.00    +0.000 C 
BRANCH  19  20
ATOM     20  C   UNL     1       3.188   5.113  20.380  0.00  0.00    +0.000 C 
BRANCH  20  21
ATOM     21  N   UNL     1       3.538   4.643  19.037  0.00  0.00    +0.000 N 
ATOM     22  C   UNL     1       2.594   3.874  18.355  0.00  0.00    +0.000 A 
ATOM     23  O   UNL     1       1.495   3.559  18.806  0.00  0.00    +0.000 OA
ATOM     24  C   UNL     1       2.946   3.430  16.983  0.00  0.00    +0.000 A 
ATOM     25  C   UNL     1       4.169   3.617  16.477  0.00  0.00    +0.000 A 
ATOM     26  C   UNL     1       5.197   4.263  17.277  0.00  0.00    +0.000 A 
ATOM     27  N   UNL     1       6.439   4.273  16.739  0.00  0.00    +0.000 NA
ATOM     28  C   UNL     1       7.402   4.873  17.475  0.00  0.00    +0.000 A 
ATOM     29  C   UNL     1       7.158   5.497  18.685  0.00  0.00    +0.000 A 
ATOM     30  F   UNL     1       8.154   6.086  19.359  0.00  0.00    +0.000 F 
ATOM     31  C   UNL     1       5.873   5.487  19.211  0.00  0.00    +0.000 A 
ATOM     32  C   UNL     1       4.859   4.821  18.520  0.00  0.00    +0.000 A 
ENDBRANCH  20  21
ENDBRANCH  19  20
ENDBRANCH   4  19
TORSDOF 4
ENDMDL
MODEL 5
REMARK VINA RESULT:      -7.5      4.111      8.513
REMARK  Name = 
REMARK  5 active torsions:
REMARK  status: ('A' for Active; 'I' for Inactive)
REMARK    1  A    between atoms: C_1  and  C_2
REMARK    2  A    between atoms: C_6  and  C_7
REMARK    3  A    between atoms: N_10  and  C_11
REMARK    4  A    between atoms: C_11  and  C_12
REMARK    5  A    between atoms: C_12  and  N_13
REMARK                            x       y       z     vdW  Elec       q    Type
REMARK                         _______ _______ _______ _____ _____    ______ ____
ROOT
ATOM      1  C   UNL     1       0.762  10.780  20.671  0.00  0.00    +0.000 C 
ATOM      2  C   UNL     1       1.900  10.054  19.952  0.00  0.00    +0.000 C 
ATOM      3  C   UNL     1       1.567   8.589  19.675  0.00  0.00    +0.000 C 
ATOM      4  N   UNL     1       1.269   7.864  20.922  0.00  0.00    +0.000 NA
ATOM      5  C   UNL     1       0.107   8.484  21.596  0.00  0.00    +0.000 C 
ATOM      6  C   UNL     1       0.308   9.973  21.890  0.00  0.00    +0.000 C 
ENDROOT
BRANCH   1  12
ATOM      7  C   UNL     1      -3.994  10.266  15.029  0.00  0.00    +0.000 C 
ATOM      8  C   UNL     1      -3.396  10.680  16.347  0.00  0.00    +0.000 A 
ATOM      9  C   UNL     1      -2.032  10.420  16.584  0.00  0.00    +0.000 A 
ATOM     10  C   UNL     1      -1.517  10.791  17.825  0.00  0.00    +0.000 A 
ATOM     11  N   UNL     1      -0.275  10.647  18.389  0.00  0.00    +0.000 N 
ATOM     12  C   UNL     1      -0.339  11.082  19.692  0.00  0.00    +0.000 A 
ATOM     13  N   UNL     1      -1.513  11.624  19.941  0.00  0.00    +0.000 NA
ATOM     14  C   UNL     1      -2.267  11.414  18.813  0.00  0.00    +0.000 A 
ATOM     15  C   UNL     1      -3.618  11.692  18.572  0.00  0.00    +0.000 A 
ATOM     16  C   UNL     1      -4.170  11.310  17.341  0.00  0.00    +0.000 A 
ATOM     17 CL   UNL     1      -5.854  11.625  17.095  0.00  0.00    +0.000 Cl
ATOM     18  H   UNL     1       0.515  10.189  17.960  0.00  0.00    +0.000 HD
ENDBRANCH   1  12
BRANCH   4  19
ATOM     19  C   UNL     1       0.945   6.443  20.635  0.00  0.00    +0.000 C 
BRANCH  19  20
ATOM     20  C   UNL     1       2.115   5.451  20.811  0.00  0.00    +0.000 C 
BRANCH  20  21
ATOM     21  N   UNL     1       2.230   4.514  19.690  0.00  0.00    +0.000 N 
ATOM     22  C   UNL     1       1.590   3.280  19.813  0.00  0.00    +0.000 A 
ATOM     23  O   UNL     1       0.945   2.924  20.796  0.00  0.00    +0.000 OA
ATOM     24  C   UNL     1       1.687   2.350  18.660  0.00  0.00    +0.000 A 
ATOM     25  C   UNL     1       2.479   2.608  17.614  0.00  0.00    +0.000 A 
ATOM     26  C   UNL     1       3.281   3.822  17.590  0.00  0.00    +0.000 A 
ATOM     27  N   UNL     1       4.160   3.923  16.567  0.00  0.00    +0.000 NA
ATOM     28  C   UNL     1       4.909   5.048  16.535  0.00  0.00    +0.000 A 
ATOM     29  C   UNL     1       4.774   6.080  17.446  0.00  0.00    +0.000 A 
ATOM     30  F   UNL     1       5.537   7.175  17.351  0.00  0.00    +0.000 F 
ATOM     31  C   UNL     1       3.854   5.960  18.480  0.00  0.00    +0.000 A 
ATOM     32  C   UNL     1       3.106   4.787  18.594  0.00  0.00    +0.000 A 
ENDBRANCH  20  21
ENDBRANCH  19  20
ENDBRANCH   4  19
TORSDOF 4
ENDMDL
MODEL 6
REMARK VINA RESULT:      -7.5      4.135      8.991
REMARK  Name = 
REMARK  5 active torsions:
REMARK  status: ('A' for Active; 'I' for Inactive)
REMARK    1  A    between atoms: C_1  and  C_2
REMARK    2  A    between atoms: C_6  and  C_7
REMARK    3  A    between atoms: N_10  and  C_11
REMARK    4  A    between atoms: C_11  and  C_12
REMARK    5  A    between atoms: C_12  and  N_13
REMARK                            x       y       z     vdW  Elec       q    Type
REMARK                         _______ _______ _______ _____ _____    ______ ____
ROOT
ATOM      1  C   UNL     1      -0.531  12.655  21.838  0.00  0.00    +0.000 C 
ATOM      2  C   UNL     1       0.871  12.482  21.251  0.00  0.00    +0.000 C 
ATOM      3  C   UNL     1       1.162  11.031  20.870  0.00  0.00    +0.000 C 
ATOM      4  N   UNL     1       1.033  10.137  22.032  0.00  0.00    +0.000 NA
ATOM      5  C   UNL     1      -0.344  10.208  22.568  0.00  0.00    +0.000 C 
ATOM      6  C   UNL     1      -0.768  11.629  22.949  0.00  0.00    +0.000 C 
ENDROOT
BRANCH   1  12
ATOM      7  C   UNL     1      -4.199  10.728  15.711  0.00  0.00    +0.000 C 
ATOM      8  C   UNL     1      -3.918  11.298  17.075  0.00  0.00    +0.000 A 
ATOM      9  C   UNL     1      -2.578  11.472  17.473  0.00  0.00    +0.000 A 
ATOM     10  C   UNL     1      -2.352  11.977  18.753  0.00  0.00    +0.000 A 
ATOM     11  N   UNL     1      -1.201  12.222  19.458  0.00  0.00    +0.000 N 
ATOM     12  C   UNL     1      -1.548  12.607  20.732  0.00  0.00    +0.000 A 
ATOM     13  N   UNL     1      -2.853  12.756  20.830  0.00  0.00    +0.000 NA
ATOM     14  C   UNL     1      -3.368  12.329  19.630  0.00  0.00    +0.000 A 
ATOM     15  C   UNL     1      -4.701  12.175  19.230  0.00  0.00    +0.000 A 
ATOM     16  C   UNL     1      -4.959  11.650  17.956  0.00  0.00    +0.000 A 
ATOM     17 CL   UNL     1      -6.617  11.428  17.512  0.00  0.00    +0.000 Cl
ATOM     18  H   UNL     1      -0.264  12.035  19.136  0.00  0.00    +0.000 HD
ENDBRANCH   1  12
BRANCH   4  19
ATOM     19  C   UNL     1       1.317   8.732  21.644  0.00  0.00    +0.000 C 
BRANCH  19  20
ATOM     20  C   UNL     1       0.850   8.331  20.229  0.00  0.00    +0.000 C 
BRANCH  20  21
ATOM     21  N   UNL     1       1.911   7.687  19.449  0.00  0.00    +0.000 N 
ATOM     22  C   UNL     1       2.393   8.367  18.329  0.00  0.00    +0.000 A 
ATOM     23  O   UNL     1       1.983   9.462  17.950  0.00  0.00    +0.000 OA
ATOM     24  C   UNL     1       3.488   7.721  17.564  0.00  0.00    +0.000 A 
ATOM     25  C   UNL     1       3.892   6.475  17.833  0.00  0.00    +0.000 A 
ATOM     26  C   UNL     1       3.249   5.714  18.893  0.00  0.00    +0.000 A 
ATOM     27  N   UNL     1       3.621   4.417  18.991  0.00  0.00    +0.000 NA
ATOM     28  C   UNL     1       3.030   3.701  19.974  0.00  0.00    +0.000 A 
ATOM     29  C   UNL     1       2.135   4.243  20.879  0.00  0.00    +0.000 A 
ATOM     30  F   UNL     1       1.595   3.483  21.839  0.00  0.00    +0.000 F 
ATOM     31  C   UNL     1       1.779   5.581  20.767  0.00  0.00    +0.000 A 
ATOM     32  C   UNL     1       2.311   6.343  19.725  0.00  0.00    +0.000 A 
ENDBRANCH  20  21
ENDBRANCH  19  20
ENDBRANCH   4  19
TORSDOF 4
ENDMDL
MODEL 7
REMARK VINA RESULT:      -7.4      3.597      8.267
REMARK  Name = 
REMARK  5 active torsions:
REMARK  status: ('A' for Active; 'I' for Inactive)
REMARK    1  A    between atoms: C_1  and  C_2
REMARK    2  A    between atoms: C_6  and  C_7
REMARK    3  A    between atoms: N_10  and  C_11
REMARK    4  A    between atoms: C_11  and  C_12
REMARK    5  A    between atoms: C_12  and  N_13
REMARK                            x       y       z     vdW  Elec       q    Type
REMARK                         _______ _______ _______ _____ _____    ______ ____
ROOT
ATOM      1  C   UNL     1      -0.151  11.446  19.621  0.00  0.00    +0.000 C 
ATOM      2  C   UNL     1      -0.068  10.674  20.939  0.00  0.00    +0.000 C 
ATOM      3  C   UNL     1       1.093   9.681  20.953  0.00  0.00    +0.000 C 
ATOM      4  N   UNL     1       0.979   8.709  19.852  0.00  0.00    +0.000 NA
ATOM      5  C   UNL     1       0.992   9.419  18.554  0.00  0.00    +0.000 C 
ATOM      6  C   UNL     1      -0.108  10.477  18.438  0.00  0.00    +0.000 C 
ENDROOT
BRANCH   1  12
ATOM      7  C   UNL     1       5.746  15.563  21.351  0.00  0.00    +0.000 C 
ATOM      8  C   UNL     1       4.659  14.913  20.537  0.00  0.00    +0.000 A 
ATOM      9  C   UNL     1       3.573  14.320  21.208  0.00  0.00    +0.000 A 
ATOM     10  C   UNL     1       2.598  13.702  20.426  0.00  0.00    +0.000 A 
ATOM     11  N   UNL     1       1.460  13.007  20.748  0.00  0.00    +0.000 N 
ATOM     12  C   UNL     1       0.920  12.501  19.589  0.00  0.00    +0.000 A 
ATOM     13  N   UNL     1       1.572  12.956  18.538  0.00  0.00    +0.000 NA
ATOM     14  C   UNL     1       2.637  13.663  19.039  0.00  0.00    +0.000 A 
ATOM     15  C   UNL     1       3.706  14.270  18.368  0.00  0.00    +0.000 A 
ATOM     16  C   UNL     1       4.713  14.880  19.129  0.00  0.00    +0.000 A 
ATOM     17 CL   UNL     1       6.044  15.577  18.271  0.00  0.00    +0.000 Cl
ATOM     18  H   UNL     1       1.144  12.800  21.683  0.00  0.00    +0.000 HD
ENDBRANCH   1  12
BRANCH   4  19
ATOM     19  C   UNL     1       2.115   7.753  19.879  0.00  0.00    +0.000 C 
BRANCH  19  20
ATOM     20  C   UNL     1       2.138   6.723  18.730  0.00  0.00    +0.000 C 
BRANCH  20  21
ATOM     21  N   UNL     1       3.386   5.955  18.689  0.00  0.00    +0.000 N 
ATOM     22  C   UNL     1       4.364   6.360  17.780  0.00  0.00    +0.000 A 
ATOM     23  O   UNL     1       4.247   7.309  17.008  0.00  0.00    +0.000 OA
ATOM     24  C   UNL     1       5.636   5.595  17.768  0.00  0.00    +0.000 A 
ATOM     25  C   UNL     1       5.786   4.473  18.479  0.00  0.00    +0.000 A 
ATOM     26  C   UNL     1       4.685   3.967  19.284  0.00  0.00    +0.000 A 
ATOM     27  N   UNL     1       4.879   2.752  19.846  0.00  0.00    +0.000 NA
ATOM     28  C   UNL     1       3.862   2.274  20.597  0.00  0.00    +0.000 A 
ATOM     29  C   UNL     1       2.699   2.981  20.843  0.00  0.00    +0.000 A 
ATOM     30  F   UNL     1       1.734   2.457  21.608  0.00  0.00    +0.000 F 
ATOM     31  C   UNL     1       2.528   4.233  20.268  0.00  0.00    +0.000 A 
ATOM     32  C   UNL     1       3.522   4.739  19.428  0.00  0.00    +0.000 A 
ENDBRANCH  20  21
ENDBRANCH  19  20
ENDBRANCH   4  19
TORSDOF 4
ENDMDL
MODEL 8
REMARK VINA RESULT:      -7.4      3.782      6.936
REMARK  Name = 
REMARK  5 active torsions:
REMARK  status: ('A' for Active; 'I' for Inactive)
REMARK    1  A    between atoms: C_1  and  C_2
REMARK    2  A    between atoms: C_6  and  C_7
REMARK    3  A    between atoms: N_10  and  C_11
REMARK    4  A    between atoms: C_11  and  C_12
REMARK    5  A    between atoms: C_12  and  N_13
REMARK                            x       y       z     vdW  Elec       q    Type
REMARK                         _______ _______ _______ _____ _____    ______ ____
ROOT
ATOM      1  C   UNL     1       1.359   9.793  17.759  0.00  0.00    +0.000 C 
ATOM      2  C   UNL     1       2.028  11.074  18.261  0.00  0.00    +0.000 C 
ATOM      3  C   UNL     1       1.546  11.467  19.657  0.00  0.00    +0.000 C 
ATOM      4  N   UNL     1       0.087  11.664  19.684  0.00  0.00    +0.000 NA
ATOM      5  C   UNL     1      -0.595  10.410  19.294  0.00  0.00    +0.000 C 
ATOM      6  C   UNL     1      -0.160   9.892  17.921  0.00  0.00    +0.000 C 
ENDROOT
BRANCH   1  12
ATOM      7  C   UNL     1       2.212   3.567  21.660  0.00  0.00    +0.000 C 
ATOM      8  C   UNL     1       2.484   4.671  20.673  0.00  0.00    +0.000 A 
ATOM      9  C   UNL     1       1.733   5.859  20.763  0.00  0.00    +0.000 A 
ATOM     10  C   UNL     1       1.990   6.850  19.817  0.00  0.00    +0.000 A 
ATOM     11  N   UNL     1       1.426   8.080  19.592  0.00  0.00    +0.000 N 
ATOM     12  C   UNL     1       1.973   8.604  18.445  0.00  0.00    +0.000 A 
ATOM     13  N   UNL     1       2.953   7.840  18.009  0.00  0.00    +0.000 NA
ATOM     14  C   UNL     1       2.948   6.731  18.820  0.00  0.00    +0.000 A 
ATOM     15  C   UNL     1       3.709   5.558  18.740  0.00  0.00    +0.000 A 
ATOM     16  C   UNL     1       3.458   4.534  19.665  0.00  0.00    +0.000 A 
ATOM     17 CL   UNL     1       4.382   3.080  19.508  0.00  0.00    +0.000 Cl
ATOM     18  H   UNL     1       0.656   8.476  20.111  0.00  0.00    +0.000 HD
ENDBRANCH   1  12
BRANCH   4  19
ATOM     19  C   UNL     1      -0.363  12.044  21.047  0.00  0.00    +0.000 C 
BRANCH  19  20
ATOM     20  C   UNL     1      -1.041  13.426  21.157  0.00  0.00    +0.000 C 
BRANCH  20  21
ATOM     21  N   UNL     1      -2.232  13.402  22.011  0.00  0.00    +0.000 N 
ATOM     22  C   UNL     1      -2.047  13.600  23.381  0.00  0.00    +0.000 A 
ATOM     23  O   UNL     1      -0.958  13.784  23.917  0.00  0.00    +0.000 OA
ATOM     24  C   UNL     1      -3.263  13.604  24.233  0.00  0.00    +0.000 A 
ATOM     25  C   UNL     1      -4.463  13.278  23.746  0.00  0.00    +0.000 A 
ATOM     26  C   UNL     1      -4.603  12.897  22.348  0.00  0.00    +0.000 A 
ATOM     27  N   UNL     1      -5.824  12.440  21.985  0.00  0.00    +0.000 NA
ATOM     28  C   UNL     1      -5.964  12.086  20.688  0.00  0.00    +0.000 A 
ATOM     29  C   UNL     1      -4.958  12.219  19.748  0.00  0.00    +0.000 A 
ATOM     30  F   UNL     1      -5.165  11.862  18.475  0.00  0.00    +0.000 F 
ATOM     31  C   UNL     1      -3.718  12.704  20.141  0.00  0.00    +0.000 A 
ATOM     32  C   UNL     1      -3.504  13.019  21.485  0.00  0.00    +0.000 A 
ENDBRANCH  20  21
ENDBRANCH  19  20
ENDBRANCH   4  19
TORSDOF 4
ENDMDL
MODEL 9
REMARK VINA RESULT:      -7.4      4.027      8.508
REMARK  Name = 
REMARK  5 active torsions:
REMARK  status: ('A' for Active; 'I' for Inactive)
REMARK    1  A    between atoms: C_1  and  C_2
REMARK    2  A    between atoms: C_6  and  C_7
REMARK    3  A    between atoms: N_10  and  C_11
REMARK    4  A    between atoms: C_11  and  C_12
REMARK    5  A    between atoms: C_12  and  N_13
REMARK                            x       y       z     vdW  Elec       q    Type
REMARK                         _______ _______ _______ _____ _____    ______ ____
ROOT
ATOM      1  C   UNL     1       0.296  11.606  19.951  0.00  0.00    +0.000 C 
ATOM      2  C   UNL     1       0.106  10.715  21.180  0.00  0.00    +0.000 C 
ATOM      3  C   UNL     1       1.122   9.575  21.229  0.00  0.00    +0.000 C 
ATOM      4  N   UNL     1       1.037   8.731  20.025  0.00  0.00    +0.000 NA
ATOM      5  C   UNL     1       1.313   9.545  18.821  0.00  0.00    +0.000 C 
ATOM      6  C   UNL     1       0.378  10.750  18.685  0.00  0.00    +0.000 C 
ENDROOT
BRANCH   1  12
ATOM      7  C   UNL     1       5.430  16.847  19.005  0.00  0.00    +0.000 C 
ATOM      8  C   UNL     1       4.526  15.853  19.684  0.00  0.00    +0.000 A 
ATOM      9  C   UNL     1       3.872  14.885  18.898  0.00  0.00    +0.000 A 
ATOM     10  C   UNL     1       3.019  13.998  19.554  0.00  0.00    +0.000 A 
ATOM     11  N   UNL     1       2.212  12.987  19.100  0.00  0.00    +0.000 N 
ATOM     12  C   UNL     1       1.485  12.503  20.161  0.00  0.00    +0.000 A 
ATOM     13  N   UNL     1       1.889  13.054  21.288  0.00  0.00    +0.000 NA
ATOM     14  C   UNL     1       2.806  14.011  20.926  0.00  0.00    +0.000 A 
ATOM     15  C   UNL     1       3.470  14.960  21.712  0.00  0.00    +0.000 A 
ATOM     16  C   UNL     1       4.317  15.880  21.077  0.00  0.00    +0.000 A 
ATOM     17 CL   UNL     1       5.085  17.069  22.072  0.00  0.00    +0.000 Cl
ATOM     18  H   UNL     1       2.085  12.727  18.133  0.00  0.00    +0.000 HD
ENDBRANCH   1  12
BRANCH   4  19
ATOM     19  C   UNL     1       2.032   7.630  20.088  0.00  0.00    +0.000 C 
BRANCH  19  20
ATOM     20  C   UNL     1       2.084   6.715  18.846  0.00  0.00    +0.000 C 
BRANCH  20  21
ATOM     21  N   UNL     1       3.329   5.946  18.766  0.00  0.00    +0.000 N 
ATOM     22  C   UNL     1       4.282   6.357  17.832  0.00  0.00    +0.000 A 
ATOM     23  O   UNL     1       4.143   7.311  17.069  0.00  0.00    +0.000 OA
ATOM     24  C   UNL     1       5.552   5.591  17.779  0.00  0.00    +0.000 A 
ATOM     25  C   UNL     1       5.722   4.465  18.478  0.00  0.00    +0.000 A 
ATOM     26  C   UNL     1       4.644   3.954  19.311  0.00  0.00    +0.000 A 
ATOM     27  N   UNL     1       4.853   2.735  19.859  0.00  0.00    +0.000 NA
ATOM     28  C   UNL     1       3.857   2.253  20.636  0.00  0.00    +0.000 A 
ATOM     29  C   UNL     1       2.702   2.959  20.919  0.00  0.00    +0.000 A 
ATOM     30  F   UNL     1       1.758   2.430  21.708  0.00  0.00    +0.000 F 
ATOM     31  C   UNL     1       2.515   4.215  20.357  0.00  0.00    +0.000 A 
ATOM     32  C   UNL     1       3.486   4.726  19.493  0.00  0.00    +0.000 A 
ENDBRANCH  20  21
ENDBRANCH  19  20
ENDBRANCH   4  19
TORSDOF 4
ENDMDL
