MODEL 1
REMARK VINA RESULT:      -9.0      0.000      0.000
REMARK  Name = 
REMARK  11 active torsions:
REMARK  status: ('A' for Active; 'I' for Inactive)
REMARK    1  A    between atoms: C_1  and  C_2
REMARK    2  A    between atoms: C_2  and  C_3
REMARK    3  A    between atoms: C_3  and  C_4
REMARK    4  A    between atoms: C_6  and  C_7
REMARK    5  A    between atoms: C_7  and  O_8
REMARK    6  A    between atoms: O_8  and  C_9
REMARK    7  A    between atoms: C_12  and  O_13
REMARK    8  A    between atoms: C_16  and  C_17
REMARK    9  A    between atoms: C_17  and  C_18
REMARK   10  A    between atoms: C_21  and  C_22
REMARK   11  A    between atoms: C_27  and  C_28
REMARK                            x       y       z     vdW  Elec       q    Type
REMARK                         _______ _______ _______ _____ _____    ______ ____
ROOT
ATOM      1  C   UNL     1       2.972   5.725  19.967  0.00  0.00    +0.000 C 
ENDROOT
BRANCH   1  10
ATOM      2  C   UNL     1       3.220   4.546  17.679  0.00  0.00    +0.000 A 
ATOM      3  N   UNL     1       3.943   4.083  16.580  0.00  0.00    +0.000 NA
ATOM      4  C   UNL     1       5.239   4.171  16.597  0.00  0.00    +0.000 A 
ATOM      5  N   UNL     1       5.879   4.790  17.651  0.00  0.00    +0.000 N 
ATOM      6  N   UNL     1       7.213   4.982  17.755  0.00  0.00    +0.000 NA
ATOM      7  C   UNL     1       7.265   5.586  18.935  0.00  0.00    +0.000 A 
ATOM      8  N   UNL     1       6.091   5.804  19.574  0.00  0.00    +0.000 NA
ATOM      9  C   UNL     1       5.205   5.323  18.722  0.00  0.00    +0.000 A 
ATOM     10  C   UNL     1       3.763   5.214  18.754  0.00  0.00    +0.000 A 
BRANCH   7  11
ATOM     11  O   UNL     1       8.486   5.902  19.347  0.00  0.00    +0.000 OA
ATOM     12  H   UNL     1       8.905   5.051  19.556  0.00  0.00    +0.000 HD
ENDBRANCH   7  11
BRANCH   2  13
ATOM     13  C   UNL     1       1.761   4.123  17.534  0.00  0.00    +0.000 C 
BRANCH  13  15
ATOM     14  C   UNL     1       0.764   2.871  19.521  0.00  0.00    +0.000 C 
ATOM     15  C   UNL     1       1.540   2.761  18.219  0.00  0.00    +0.000 C 
ENDBRANCH  13  15
ENDBRANCH   2  13
BRANCH   4  16
ATOM     16  C   UNL     1       6.122   3.580  15.532  0.00  0.00    +0.000 C 
BRANCH  16  17
ATOM     17  O   UNL     1       6.019   4.399  14.366  0.00  0.00    +0.000 OA
ATOM     18  C   UNL     1       6.196   3.649  13.172  0.00  0.00    +0.000 C 
ENDBRANCH  16  17
ENDBRANCH   4  16
ENDBRANCH   1  10
BRANCH   1  19
ATOM     19  C   UNL     1       2.349   7.102  19.783  0.00  0.00    +0.000 A 
ATOM     20  C   UNL     1       1.619   7.714  20.806  0.00  0.00    +0.000 A 
ATOM     21  C   UNL     1       0.863   8.872  20.553  0.00  0.00    +0.000 A 
ATOM     22  C   UNL     1       0.751   9.413  19.260  0.00  0.00    +0.000 A 
ATOM     23  C   UNL     1       1.636   8.900  18.296  0.00  0.00    +0.000 A 
ATOM     24  C   UNL     1       2.430   7.773  18.557  0.00  0.00    +0.000 A 
BRANCH  22  25
ATOM     25  C   UNL     1      -0.315  10.397  18.891  0.00  0.00    +0.000 A 
ATOM     26  C   UNL     1      -1.551   9.935  18.378  0.00  0.00    +0.000 A 
ATOM     27  C   UNL     1      -2.608  10.804  18.070  0.00  0.00    +0.000 A 
ATOM     28  C   UNL     1      -2.456  12.173  18.233  0.00  0.00    +0.000 A 
ATOM     29  C   UNL     1      -1.257  12.667  18.729  0.00  0.00    +0.000 A 
ATOM     30  C   UNL     1      -0.197  11.803  19.090  0.00  0.00    +0.000 A 
BRANCH  30  31
ATOM     31  C   UNL     1       0.944  12.453  19.728  0.00  0.00    +0.000 A 
ATOM     32  N   UNL     1       1.073  12.527  21.100  0.00  0.00    +0.000 NA
ATOM     33  N   UNL     1       2.240  13.106  21.346  0.00  0.00    +0.000 NA
ATOM     34  N   UNL     1       2.756  13.342  20.135  0.00  0.00    +0.000 N 
ATOM     35  N   UNL     1       2.025  12.934  19.092  0.00  0.00    +0.000 NA
ATOM     36  H   UNL     1       3.655  13.800  20.018  0.00  0.00    +0.000 HD
ENDBRANCH  30  31
ENDBRANCH  22  25
ENDBRANCH   1  19
TORSDOF 9
ENDMDL
MODEL 2
REMARK VINA RESULT:      -8.6      1.075      1.089
REMARK  Name = 
REMARK  11 active torsions:
REMARK  status: ('A' for Active; 'I' for Inactive)
REMARK    1  A    between atoms: C_1  and  C_2
REMARK    2  A    between atoms: C_2  and  C_3
REMARK    3  A    between atoms: C_3  and  C_4
REMARK    4  A    between atoms: C_6  and  C_7
REMARK    5  A    between atoms: C_7  and  O_8
REMARK    6  A    between atoms: O_8  and  C_9
REMARK    7  A    between atoms: C_12  and  O_13
REMARK    8  A    between atoms: C_16  and  C_17
REMARK    9  A    between atoms: C_17  and  C_18
REMARK   10  A    between atoms: C_21  and  C_22
REMARK   11  A    between atoms: C_27  and  C_28
REMARK                            x       y       z     vdW  Elec       q    Type
REMARK                         _______ _______ _______ _____ _____    ______ ____
ROOT
ATOM      1  C   UNL     1       3.493   5.758  19.343  0.00  0.00    +0.000 C 
ENDROOT
BRANCH   1  10
ATOM      2  C   UNL     1       3.850   4.162  17.340  0.00  0.00    +0.000 A 
ATOM      3  N   UNL     1       4.496   3.730  16.182  0.00  0.00    +0.000 NA
ATOM      4  C   UNL     1       5.580   4.337  15.803  0.00  0.00    +0.000 A 
ATOM      5  N   UNL     1       6.034   5.443  16.490  0.00  0.00    +0.000 N 
ATOM      6  N   UNL     1       7.118   6.181  16.162  0.00  0.00    +0.000 NA
ATOM      7  C   UNL     1       7.091   7.074  17.143  0.00  0.00    +0.000 A 
ATOM      8  N   UNL     1       6.087   6.976  18.046  0.00  0.00    +0.000 NA
ATOM      9  C   UNL     1       5.392   5.948  17.595  0.00  0.00    +0.000 A 
ATOM     10  C   UNL     1       4.201   5.278  18.066  0.00  0.00    +0.000 A 
BRANCH   7  11
ATOM     11  O   UNL     1       8.075   7.964  17.115  0.00  0.00    +0.000 OA
ATOM     12  H   UNL     1       8.120   8.255  16.190  0.00  0.00    +0.000 HD
ENDBRANCH   7  11
BRANCH   2  13
ATOM     13  C   UNL     1       2.758   3.161  17.709  0.00  0.00    +0.000 C 
BRANCH  13  15
ATOM     14  C   UNL     1       0.762   3.419  19.276  0.00  0.00    +0.000 C 
ATOM     15  C   UNL     1       1.444   3.908  18.009  0.00  0.00    +0.000 C 
ENDBRANCH  13  15
ENDBRANCH   2  13
BRANCH   4  16
ATOM     16  C   UNL     1       6.430   3.868  14.653  0.00  0.00    +0.000 C 
BRANCH  16  17
ATOM     17  O   UNL     1       5.707   4.099  13.443  0.00  0.00    +0.000 OA
ATOM     18  C   UNL     1       6.230   3.344  12.359  0.00  0.00    +0.000 C 
ENDBRANCH  16  17
ENDBRANCH   4  16
ENDBRANCH   1  10
BRANCH   1  19
ATOM     19  C   UNL     1       2.772   7.091  19.204  0.00  0.00    +0.000 A 
ATOM     20  C   UNL     1       2.019   7.625  20.254  0.00  0.00    +0.000 A 
ATOM     21  C   UNL     1       1.179   8.733  20.043  0.00  0.00    +0.000 A 
ATOM     22  C   UNL     1       1.005   9.294  18.766  0.00  0.00    +0.000 A 
ATOM     23  C   UNL     1       1.906   8.870  17.774  0.00  0.00    +0.000 A 
ATOM     24  C   UNL     1       2.782   7.795  17.994  0.00  0.00    +0.000 A 
BRANCH  22  25
ATOM     25  C   UNL     1      -0.135  10.209  18.439  0.00  0.00    +0.000 A 
ATOM     26  C   UNL     1      -1.294   9.692  17.811  0.00  0.00    +0.000 A 
ATOM     27  C   UNL     1      -2.416  10.487  17.535  0.00  0.00    +0.000 A 
ATOM     28  C   UNL     1      -2.408  11.838  17.846  0.00  0.00    +0.000 A 
ATOM     29  C   UNL     1      -1.288  12.385  18.459  0.00  0.00    +0.000 A 
ATOM     30  C   UNL     1      -0.167  11.590  18.789  0.00  0.00    +0.000 A 
BRANCH  30  31
ATOM     31  C   UNL     1       0.873  12.271  19.555  0.00  0.00    +0.000 A 
ATOM     32  N   UNL     1       0.907  12.240  20.934  0.00  0.00    +0.000 NA
ATOM     33  N   UNL     1       2.003  12.885  21.306  0.00  0.00    +0.000 NA
ATOM     34  N   UNL     1       2.575  13.261  20.157  0.00  0.00    +0.000 N 
ATOM     35  N   UNL     1       1.950  12.886  19.037  0.00  0.00    +0.000 NA
ATOM     36  H   UNL     1       3.438  13.795  20.141  0.00  0.00    +0.000 HD
ENDBRANCH  30  31
ENDBRANCH  22  25
ENDBRANCH   1  19
TORSDOF 9
ENDMDL
MODEL 3
REMARK VINA RESULT:      -8.6      3.160      8.813
REMARK  Name = 
REMARK  11 active torsions:
REMARK  status: ('A' for Active; 'I' for Inactive)
REMARK    1  A    between atoms: C_1  and  C_2
REMARK    2  A    between atoms: C_2  and  C_3
REMARK    3  A    between atoms: C_3  and  C_4
REMARK    4  A    between atoms: C_6  and  C_7
REMARK    5  A    between atoms: C_7  and  O_8
REMARK    6  A    between atoms: O_8  and  C_9
REMARK    7  A    between atoms: C_12  and  O_13
REMARK    8  A    between atoms: C_16  and  C_17
REMARK    9  A    between atoms: C_17  and  C_18
REMARK   10  A    between atoms: C_21  and  C_22
REMARK   11  A    between atoms: C_27  and  C_28
REMARK                            x       y       z     vdW  Elec       q    Type
REMARK                         _______ _______ _______ _____ _____    ______ ____
ROOT
ATOM      1  C   UNL     1       0.379  10.649  18.799  0.00  0.00    +0.000 C 
ENDROOT
BRANCH   1  10
ATOM      2  C   UNL     1       0.317  12.134  20.915  0.00  0.00    +0.000 A 
ATOM      3  N   UNL     1       0.763  13.176  21.728  0.00  0.00    +0.000 NA
ATOM      4  C   UNL     1       1.685  13.973  21.279  0.00  0.00    +0.000 A 
ATOM      5  N   UNL     1       2.271  13.737  20.053  0.00  0.00    +0.000 N 
ATOM      6  N   UNL     1       3.269  14.468  19.506  0.00  0.00    +0.000 NA
ATOM      7  C   UNL     1       3.419  13.824  18.356  0.00  0.00    +0.000 A 
ATOM      8  N   UNL     1       2.621  12.753  18.134  0.00  0.00    +0.000 NA
ATOM      9  C   UNL     1       1.914  12.683  19.247  0.00  0.00    +0.000 A 
ATOM     10  C   UNL     1       0.867  11.794  19.699  0.00  0.00    +0.000 A 
BRANCH   7  11
ATOM     11  O   UNL     1       4.347  14.326  17.552  0.00  0.00    +0.000 OA
ATOM     12  H   UNL     1       3.856  14.662  16.785  0.00  0.00    +0.000 HD
ENDBRANCH   7  11
BRANCH   2  13
ATOM     13  C   UNL     1      -0.915  11.495  21.549  0.00  0.00    +0.000 C 
BRANCH  13  15
ATOM     14  C   UNL     1      -0.510   9.271  22.732  0.00  0.00    +0.000 C 
ATOM     15  C   UNL     1      -0.520  10.785  22.859  0.00  0.00    +0.000 C 
ENDBRANCH  13  15
ENDBRANCH   2  13
BRANCH   4  16
ATOM     16  C   UNL     1       2.140  15.206  22.012  0.00  0.00    +0.000 C 
BRANCH  16  17
ATOM     17  O   UNL     1       3.296  14.866  22.779  0.00  0.00    +0.000 OA
ATOM     18  C   UNL     1       4.076  16.009  23.100  0.00  0.00    +0.000 C 
ENDBRANCH  16  17
ENDBRANCH   4  16
ENDBRANCH   1  10
BRANCH   1  19
ATOM     19  C   UNL     1       1.328   9.461  18.716  0.00  0.00    +0.000 A 
ATOM     20  C   UNL     1       2.023   9.165  17.539  0.00  0.00    +0.000 A 
ATOM     21  C   UNL     1       2.714   7.948  17.402  0.00  0.00    +0.000 A 
ATOM     22  C   UNL     1       2.673   6.959  18.401  0.00  0.00    +0.000 A 
ATOM     23  C   UNL     1       2.136   7.352  19.639  0.00  0.00    +0.000 A 
ATOM     24  C   UNL     1       1.486   8.585  19.796  0.00  0.00    +0.000 A 
BRANCH  22  25
ATOM     25  C   UNL     1       3.074   5.540  18.142  0.00  0.00    +0.000 A 
ATOM     26  C   UNL     1       2.092   4.520  18.143  0.00  0.00    +0.000 A 
ATOM     27  C   UNL     1       2.397   3.184  17.850  0.00  0.00    +0.000 A 
ATOM     28  C   UNL     1       3.704   2.810  17.577  0.00  0.00    +0.000 A 
ATOM     29  C   UNL     1       4.698   3.779  17.570  0.00  0.00    +0.000 A 
ATOM     30  C   UNL     1       4.402   5.140  17.816  0.00  0.00    +0.000 A 
BRANCH  30  31
ATOM     31  C   UNL     1       5.521   6.061  17.636  0.00  0.00    +0.000 A 
ATOM     32  N   UNL     1       6.551   6.152  18.549  0.00  0.00    +0.000 NA
ATOM     33  N   UNL     1       7.427   7.015  18.056  0.00  0.00    +0.000 NA
ATOM     34  N   UNL     1       6.901   7.392  16.886  0.00  0.00    +0.000 N 
ATOM     35  N   UNL     1       5.743   6.816  16.547  0.00  0.00    +0.000 NA
ATOM     36  H   UNL     1       7.361   8.071  16.288  0.00  0.00    +0.000 HD
ENDBRANCH  30  31
ENDBRANCH  22  25
ENDBRANCH   1  19
TORSDOF 9
ENDMDL
MODEL 4
REMARK VINA RESULT:      -8.5      3.453      9.138
REMARK  Name = 
REMARK  11 active torsions:
REMARK  status: ('A' for Active; 'I' for Inactive)
REMARK    1  A    between atoms: C_1  and  C_2
REMARK    2  A    between atoms: C_2  and  C_3
REMARK    3  A    between atoms: C_3  and  C_4
REMARK    4  A    between atoms: C_6  and  C_7
REMARK    5  A    between atoms: C_7  and  O_8
REMARK    6  A    between atoms: O_8  and  C_9
REMARK    7  A    between atoms: C_12  and  O_13
REMARK    8  A    between atoms: C_16  and  C_17
REMARK    9  A    between atoms: C_17  and  C_18
REMARK   10  A    between atoms: C_21  and  C_22
REMARK   11  A    between atoms: C_27  and  C_28
REMARK                            x       y       z     vdW  Elec       q    Type
REMARK                         _______ _______ _______ _____ _____    ______ ____
ROOT
ATOM      1  C   UNL     1       1.445  10.242  17.902  0.00  0.00    +0.000 C 
ENDROOT
BRANCH   1  10
ATOM      2  C   UNL     1      -1.056  10.667  18.405  0.00  0.00    +0.000 A 
ATOM      3  N   UNL     1      -2.112  11.265  19.093  0.00  0.00    +0.000 NA
ATOM      4  C   UNL     1      -1.850  12.195  19.961  0.00  0.00    +0.000 A 
ATOM      5  N   UNL     1      -0.543  12.523  20.255  0.00  0.00    +0.000 N 
ATOM      6  N   UNL     1      -0.150  13.438  21.170  0.00  0.00    +0.000 NA
ATOM      7  C   UNL     1       1.166  13.357  21.023  0.00  0.00    +0.000 A 
ATOM      8  N   UNL     1       1.636  12.471  20.114  0.00  0.00    +0.000 NA
ATOM      9  C   UNL     1       0.531  11.914  19.654  0.00  0.00    +0.000 A 
ATOM     10  C   UNL     1       0.278  10.897  18.658  0.00  0.00    +0.000 A 
BRANCH   7  11
ATOM     11  O   UNL     1       1.866  14.175  21.799  0.00  0.00    +0.000 OA
ATOM     12  H   UNL     1       1.876  13.744  22.668  0.00  0.00    +0.000 HD
ENDBRANCH   7  11
BRANCH   2  13
ATOM     13  C   UNL     1      -1.617   9.793  17.287  0.00  0.00    +0.000 C 
BRANCH  13  15
ATOM     14  C   UNL     1      -3.053  10.875  15.478  0.00  0.00    +0.000 C 
ATOM     15  C   UNL     1      -3.016  10.296  16.882  0.00  0.00    +0.000 C 
ENDBRANCH  13  15
ENDBRANCH   2  13
BRANCH   4  16
ATOM     16  C   UNL     1      -2.915  13.000  20.656  0.00  0.00    +0.000 C 
BRANCH  16  17
ATOM     17  O   UNL     1      -3.251  12.333  21.874  0.00  0.00    +0.000 OA
ATOM     18  C   UNL     1      -4.233  13.044  22.616  0.00  0.00    +0.000 C 
ENDBRANCH  16  17
ENDBRANCH   4  16
ENDBRANCH   1  10
BRANCH   1  19
ATOM     19  C   UNL     1       1.953   8.947  18.521  0.00  0.00    +0.000 A 
ATOM     20  C   UNL     1       2.630   7.992  17.757  0.00  0.00    +0.000 A 
ATOM     21  C   UNL     1       2.891   6.712  18.278  0.00  0.00    +0.000 A 
ATOM     22  C   UNL     1       2.423   6.321  19.545  0.00  0.00    +0.000 A 
ATOM     23  C   UNL     1       1.919   7.347  20.363  0.00  0.00    +0.000 A 
ATOM     24  C   UNL     1       1.699   8.640  19.863  0.00  0.00    +0.000 A 
BRANCH  22  25
ATOM     25  C   UNL     1       2.358   4.886  19.969  0.00  0.00    +0.000 A 
ATOM     26  C   UNL     1       1.169   4.376  20.543  0.00  0.00    +0.000 A 
ATOM     27  C   UNL     1       1.029   3.028  20.906  0.00  0.00    +0.000 A 
ATOM     28  C   UNL     1       2.086   2.147  20.738  0.00  0.00    +0.000 A 
ATOM     29  C   UNL     1       3.272   2.609  20.182  0.00  0.00    +0.000 A 
ATOM     30  C   UNL     1       3.416   3.953  19.767  0.00  0.00    +0.000 A 
BRANCH  30  31
ATOM     31  C   UNL     1       4.664   4.258  19.072  0.00  0.00    +0.000 A 
ATOM     32  N   UNL     1       5.720   4.883  19.702  0.00  0.00    +0.000 NA
ATOM     33  N   UNL     1       6.711   4.943  18.824  0.00  0.00    +0.000 NA
ATOM     34  N   UNL     1       6.220   4.354  17.728  0.00  0.00    +0.000 N 
ATOM     35  N   UNL     1       4.975   3.877  17.822  0.00  0.00    +0.000 NA
ATOM     36  H   UNL     1       6.768   4.270  16.877  0.00  0.00    +0.000 HD
ENDBRANCH  30  31
ENDBRANCH  22  25
ENDBRANCH   1  19
TORSDOF 9
ENDMDL
MODEL 5
REMARK VINA RESULT:      -8.4      2.280      2.925
REMARK  Name = 
REMARK  11 active torsions:
REMARK  status: ('A' for Active; 'I' for Inactive)
REMARK    1  A    between atoms: C_1  and  C_2
REMARK    2  A    between atoms: C_2  and  C_3
REMARK    3  A    between atoms: C_3  and  C_4
REMARK    4  A    between atoms: C_6  and  C_7
REMARK    5  A    between atoms: C_7  and  O_8
REMARK    6  A    between atoms: O_8  and  C_9
REMARK    7  A    between atoms: C_12  and  O_13
REMARK    8  A    between atoms: C_16  and  C_17
REMARK    9  A    between atoms: C_17  and  C_18
REMARK   10  A    between atoms: C_21  and  C_22
REMARK   11  A    between atoms: C_27  and  C_28
REMARK                            x       y       z     vdW  Elec       q    Type
REMARK                         _______ _______ _______ _____ _____    ______ ____
ROOT
ATOM      1  C   UNL     1       3.424   5.874  19.422  0.00  0.00    +0.000 C 
ENDROOT
BRANCH   1  10
ATOM      2  C   UNL     1       3.803   4.221  17.470  0.00  0.00    +0.000 A 
ATOM      3  N   UNL     1       4.451   3.764  16.322  0.00  0.00    +0.000 NA
ATOM      4  C   UNL     1       5.520   4.381  15.917  0.00  0.00    +0.000 A 
ATOM      5  N   UNL     1       5.954   5.519  16.564  0.00  0.00    +0.000 N 
ATOM      6  N   UNL     1       7.020   6.268  16.205  0.00  0.00    +0.000 NA
ATOM      7  C   UNL     1       6.980   7.192  17.156  0.00  0.00    +0.000 A 
ATOM      8  N   UNL     1       5.984   7.102  18.069  0.00  0.00    +0.000 NA
ATOM      9  C   UNL     1       5.308   6.046  17.656  0.00  0.00    +0.000 A 
ATOM     10  C   UNL     1       4.134   5.367  18.157  0.00  0.00    +0.000 A 
BRANCH   7  11
ATOM     11  O   UNL     1       7.944   8.101  17.093  0.00  0.00    +0.000 OA
ATOM     12  H   UNL     1       7.487   8.954  17.166  0.00  0.00    +0.000 HD
ENDBRANCH   7  11
BRANCH   2  13
ATOM     13  C   UNL     1       2.735   3.210  17.878  0.00  0.00    +0.000 C 
BRANCH  13  15
ATOM     14  C   UNL     1       0.681   3.512  19.360  0.00  0.00    +0.000 C 
ATOM     15  C   UNL     1       1.386   3.926  18.080  0.00  0.00    +0.000 C 
ENDBRANCH  13  15
ENDBRANCH   2  13
BRANCH   4  16
ATOM     16  C   UNL     1       6.373   3.893  14.777  0.00  0.00    +0.000 C 
BRANCH  16  17
ATOM     17  O   UNL     1       5.635   4.062  13.566  0.00  0.00    +0.000 OA
ATOM     18  C   UNL     1       6.251   3.398  12.471  0.00  0.00    +0.000 C 
ENDBRANCH  16  17
ENDBRANCH   4  16
ENDBRANCH   1  10
BRANCH   1  19
ATOM     19  C   UNL     1       2.507   7.068  19.198  0.00  0.00    +0.000 A 
ATOM     20  C   UNL     1       2.408   7.686  17.947  0.00  0.00    +0.000 A 
ATOM     21  C   UNL     1       1.741   8.915  17.806  0.00  0.00    +0.000 A 
ATOM     22  C   UNL     1       1.216   9.602  18.916  0.00  0.00    +0.000 A 
ATOM     23  C   UNL     1       1.158   8.880  20.120  0.00  0.00    +0.000 A 
ATOM     24  C   UNL     1       1.781   7.630  20.255  0.00  0.00    +0.000 A 
BRANCH  22  25
ATOM     25  C   UNL     1       0.840  11.050  18.858  0.00  0.00    +0.000 A 
ATOM     26  C   UNL     1       1.806  12.040  19.160  0.00  0.00    +0.000 A 
ATOM     27  C   UNL     1       1.529  13.412  19.067  0.00  0.00    +0.000 A 
ATOM     28  C   UNL     1       0.265  13.846  18.700  0.00  0.00    +0.000 A 
ATOM     29  C   UNL     1      -0.713  12.906  18.400  0.00  0.00    +0.000 A 
ATOM     30  C   UNL     1      -0.439  11.519  18.442  0.00  0.00    +0.000 A 
BRANCH  30  31
ATOM     31  C   UNL     1      -1.519  10.659  17.965  0.00  0.00    +0.000 A 
ATOM     32  N   UNL     1      -2.752  10.619  18.582  0.00  0.00    +0.000 NA
ATOM     33  N   UNL     1      -3.514   9.805  17.866  0.00  0.00    +0.000 NA
ATOM     34  N   UNL     1      -2.725   9.407  16.863  0.00  0.00    +0.000 N 
ATOM     35  N   UNL     1      -1.491   9.922  16.842  0.00  0.00    +0.000 NA
ATOM     36  H   UNL     1      -3.050   8.755  16.155  0.00  0.00    +0.000 HD
ENDBRANCH  30  31
ENDBRANCH  22  25
ENDBRANCH   1  19
TORSDOF 9
ENDMDL
MODEL 6
REMARK VINA RESULT:      -8.4      3.298      8.974
REMARK  Name = 
REMARK  11 active torsions:
REMARK  status: ('A' for Active; 'I' for Inactive)
REMARK    1  A    between atoms: C_1  and  C_2
REMARK    2  A    between atoms: C_2  and  C_3
REMARK    3  A    between atoms: C_3  and  C_4
REMARK    4  A    between atoms: C_6  and  C_7
REMARK    5  A    between atoms: C_7  and  O_8
REMARK    6  A    between atoms: O_8  and  C_9
REMARK    7  A    between atoms: C_12  and  O_13
REMARK    8  A    between atoms: C_16  and  C_17
REMARK    9  A    between atoms: C_17  and  C_18
REMARK   10  A    between atoms: C_21  and  C_22
REMARK   11  A    between atoms: C_27  and  C_28
REMARK                            x       y       z     vdW  Elec       q    Type
REMARK                         _______ _______ _______ _____ _____    ______ ____
ROOT
ATOM      1  C   UNL     1       0.755  10.332  18.485  0.00  0.00    +0.000 C 
ENDROOT
BRANCH   1  10
ATOM      2  C   UNL     1       0.412  11.742  20.626  0.00  0.00    +0.000 A 
ATOM      3  N   UNL     1       0.692  12.805  21.485  0.00  0.00    +0.000 NA
ATOM      4  C   UNL     1       1.542  13.712  21.106  0.00  0.00    +0.000 A 
ATOM      5  N   UNL     1       2.215  13.577  19.910  0.00  0.00    +0.000 N 
ATOM      6  N   UNL     1       3.152  14.429  19.436  0.00  0.00    +0.000 NA
ATOM      7  C   UNL     1       3.435  13.838  18.283  0.00  0.00    +0.000 A 
ATOM      8  N   UNL     1       2.776  12.691  17.994  0.00  0.00    +0.000 NA
ATOM      9  C   UNL     1       2.024  12.512  19.063  0.00  0.00    +0.000 A 
ATOM     10  C   UNL     1       1.061  11.500  19.436  0.00  0.00    +0.000 A 
BRANCH   7  11
ATOM     11  O   UNL     1       4.342  14.463  17.543  0.00  0.00    +0.000 OA
ATOM     12  H   UNL     1       4.800  13.756  17.062  0.00  0.00    +0.000 HD
ENDBRANCH   7  11
BRANCH   2  13
ATOM     13  C   UNL     1      -0.772  10.952  21.176  0.00  0.00    +0.000 C 
BRANCH  13  15
ATOM     14  C   UNL     1      -0.075   9.497  23.152  0.00  0.00    +0.000 C 
ATOM     15  C   UNL     1      -0.653  10.830  22.707  0.00  0.00    +0.000 C 
ENDBRANCH  13  15
ENDBRANCH   2  13
BRANCH   4  16
ATOM     16  C   UNL     1       1.814  14.967  21.890  0.00  0.00    +0.000 C 
BRANCH  16  17
ATOM     17  O   UNL     1       0.667  15.813  21.786  0.00  0.00    +0.000 OA
ATOM     18  C   UNL     1       0.173  16.198  23.062  0.00  0.00    +0.000 C 
ENDBRANCH  16  17
ENDBRANCH   4  16
ENDBRANCH   1  10
BRANCH   1  19
ATOM     19  C   UNL     1       1.574   9.075  18.743  0.00  0.00    +0.000 A 
ATOM     20  C   UNL     1       2.308   8.462  17.723  0.00  0.00    +0.000 A 
ATOM     21  C   UNL     1       2.872   7.188  17.912  0.00  0.00    +0.000 A 
ATOM     22  C   UNL     1       2.659   6.454  19.093  0.00  0.00    +0.000 A 
ATOM     23  C   UNL     1       2.087   7.160  20.165  0.00  0.00    +0.000 A 
ATOM     24  C   UNL     1       1.565   8.451  19.997  0.00  0.00    +0.000 A 
BRANCH  22  25
ATOM     25  C   UNL     1       2.921   4.983  19.182  0.00  0.00    +0.000 A 
ATOM     26  C   UNL     1       1.839   4.084  19.338  0.00  0.00    +0.000 A 
ATOM     27  C   UNL     1       2.016   2.693  19.369  0.00  0.00    +0.000 A 
ATOM     28  C   UNL     1       3.288   2.150  19.277  0.00  0.00    +0.000 A 
ATOM     29  C   UNL     1       4.377   2.997  19.126  0.00  0.00    +0.000 A 
ATOM     30  C   UNL     1       4.214   4.400  19.046  0.00  0.00    +0.000 A 
BRANCH  30  31
ATOM     31  C   UNL     1       5.430   5.150  18.746  0.00  0.00    +0.000 A 
ATOM     32  N   UNL     1       6.430   5.330  19.680  0.00  0.00    +0.000 NA
ATOM     33  N   UNL     1       7.411   5.982  19.072  0.00  0.00    +0.000 NA
ATOM     34  N   UNL     1       6.972   6.154  17.821  0.00  0.00    +0.000 N 
ATOM     35  N   UNL     1       5.772   5.635  17.541  0.00  0.00    +0.000 NA
ATOM     36  H   UNL     1       7.523   6.645  17.125  0.00  0.00    +0.000 HD
ENDBRANCH  30  31
ENDBRANCH  22  25
ENDBRANCH   1  19
TORSDOF 9
ENDMDL
MODEL 7
REMARK VINA RESULT:      -8.3      1.983      2.723
REMARK  Name = 
REMARK  11 active torsions:
REMARK  status: ('A' for Active; 'I' for Inactive)
REMARK    1  A    between atoms: C_1  and  C_2
REMARK    2  A    between atoms: C_2  and  C_3
REMARK    3  A    between atoms: C_3  and  C_4
REMARK    4  A    between atoms: C_6  and  C_7
REMARK    5  A    between atoms: C_7  and  O_8
REMARK    6  A    between atoms: O_8  and  C_9
REMARK    7  A    between atoms: C_12  and  O_13
REMARK    8  A    between atoms: C_16  and  C_17
REMARK    9  A    between atoms: C_17  and  C_18
REMARK   10  A    between atoms: C_21  and  C_22
REMARK   11  A    between atoms: C_27  and  C_28
REMARK                            x       y       z     vdW  Elec       q    Type
REMARK                         _______ _______ _______ _____ _____    ______ ____
ROOT
ATOM      1  C   UNL     1       2.915   5.981  19.950  0.00  0.00    +0.000 C 
ENDROOT
BRANCH   1  10
ATOM      2  C   UNL     1       3.094   4.719  17.700  0.00  0.00    +0.000 A 
ATOM      3  N   UNL     1       3.787   4.185  16.614  0.00  0.00    +0.000 NA
ATOM      4  C   UNL     1       5.086   4.208  16.626  0.00  0.00    +0.000 A 
ATOM      5  N   UNL     1       5.761   4.828  17.657  0.00  0.00    +0.000 N 
ATOM      6  N   UNL     1       7.104   4.954  17.752  0.00  0.00    +0.000 NA
ATOM      7  C   UNL     1       7.192   5.593  18.911  0.00  0.00    +0.000 A 
ATOM      8  N   UNL     1       6.033   5.890  19.546  0.00  0.00    +0.000 NA
ATOM      9  C   UNL     1       5.120   5.428  18.713  0.00  0.00    +0.000 A 
ATOM     10  C   UNL     1       3.675   5.393  18.751  0.00  0.00    +0.000 A 
BRANCH   7  11
ATOM     11  O   UNL     1       8.429   5.859  19.310  0.00  0.00    +0.000 OA
ATOM     12  H   UNL     1       8.466   5.546  20.228  0.00  0.00    +0.000 HD
ENDBRANCH   7  11
BRANCH   2  13
ATOM     13  C   UNL     1       1.614   4.366  17.572  0.00  0.00    +0.000 C 
BRANCH  13  15
ATOM     14  C   UNL     1       1.943   2.065  18.624  0.00  0.00    +0.000 C 
ATOM     15  C   UNL     1       1.209   3.394  18.697  0.00  0.00    +0.000 C 
ENDBRANCH  13  15
ENDBRANCH   2  13
BRANCH   4  16
ATOM     16  C   UNL     1       5.934   3.540  15.577  0.00  0.00    +0.000 C 
BRANCH  16  17
ATOM     17  O   UNL     1       5.621   4.128  14.313  0.00  0.00    +0.000 OA
ATOM     18  C   UNL     1       6.476   3.655  13.281  0.00  0.00    +0.000 C 
ENDBRANCH  16  17
ENDBRANCH   4  16
ENDBRANCH   1  10
BRANCH   1  19
ATOM     19  C   UNL     1       2.114   7.237  19.637  0.00  0.00    +0.000 A 
ATOM     20  C   UNL     1       2.157   7.832  18.373  0.00  0.00    +0.000 A 
ATOM     21  C   UNL     1       1.601   9.106  18.161  0.00  0.00    +0.000 A 
ATOM     22  C   UNL     1       1.051   9.856  19.215  0.00  0.00    +0.000 A 
ATOM     23  C   UNL     1       0.846   9.168  20.424  0.00  0.00    +0.000 A 
ATOM     24  C   UNL     1       1.358   7.878  20.627  0.00  0.00    +0.000 A 
BRANCH  22  25
ATOM     25  C   UNL     1       0.795  11.328  19.105  0.00  0.00    +0.000 A 
ATOM     26  C   UNL     1       1.836  12.245  19.383  0.00  0.00    +0.000 A 
ATOM     27  C   UNL     1       1.674  13.631  19.241  0.00  0.00    +0.000 A 
ATOM     28  C   UNL     1       0.451  14.153  18.847  0.00  0.00    +0.000 A 
ATOM     29  C   UNL     1      -0.598  13.287  18.569  0.00  0.00    +0.000 A 
ATOM     30  C   UNL     1      -0.439  11.885  18.661  0.00  0.00    +0.000 A 
BRANCH  30  31
ATOM     31  C   UNL     1      -1.582  11.099  18.203  0.00  0.00    +0.000 A 
ATOM     32  N   UNL     1      -2.870  11.367  18.619  0.00  0.00    +0.000 NA
ATOM     33  N   UNL     1      -3.666  10.530  17.968  0.00  0.00    +0.000 NA
ATOM     34  N   UNL     1      -2.839   9.816  17.197  0.00  0.00    +0.000 N 
ATOM     35  N   UNL     1      -1.543  10.138  17.265  0.00  0.00    +0.000 NA
ATOM     36  H   UNL     1      -3.180   9.077  16.591  0.00  0.00    +0.000 HD
ENDBRANCH  30  31
ENDBRANCH  22  25
ENDBRANCH   1  19
TORSDOF 9
ENDMDL
MODEL 8
REMARK VINA RESULT:      -8.3      1.299      1.583
REMARK  Name = 
REMARK  11 active torsions:
REMARK  status: ('A' for Active; 'I' for Inactive)
REMARK    1  A    between atoms: C_1  and  C_2
REMARK    2  A    between atoms: C_2  and  C_3
REMARK    3  A    between atoms: C_3  and  C_4
REMARK    4  A    between atoms: C_6  and  C_7
REMARK    5  A    between atoms: C_7  and  O_8
REMARK    6  A    between atoms: O_8  and  C_9
REMARK    7  A    between atoms: C_12  and  O_13
REMARK    8  A    between atoms: C_16  and  C_17
REMARK    9  A    between atoms: C_17  and  C_18
REMARK   10  A    between atoms: C_21  and  C_22
REMARK   11  A    between atoms: C_27  and  C_28
REMARK                            x       y       z     vdW  Elec       q    Type
REMARK                         _______ _______ _______ _____ _____    ______ ____
ROOT
ATOM      1  C   UNL     1       3.248   6.188  19.558  0.00  0.00    +0.000 C 
ENDROOT
BRANCH   1  10
ATOM      2  C   UNL     1       3.442   4.431  17.670  0.00  0.00    +0.000 A 
ATOM      3  N   UNL     1       4.030   3.869  16.537  0.00  0.00    +0.000 NA
ATOM      4  C   UNL     1       5.150   4.362  16.100  0.00  0.00    +0.000 A 
ATOM      5  N   UNL     1       5.699   5.476  16.699  0.00  0.00    +0.000 N 
ATOM      6  N   UNL     1       6.830   6.102  16.303  0.00  0.00    +0.000 NA
ATOM      7  C   UNL     1       6.892   7.062  17.217  0.00  0.00    +0.000 A 
ATOM      8  N   UNL     1       5.901   7.105  18.139  0.00  0.00    +0.000 NA
ATOM      9  C   UNL     1       5.121   6.106  17.774  0.00  0.00    +0.000 A 
ATOM     10  C   UNL     1       3.891   5.565  18.309  0.00  0.00    +0.000 A 
BRANCH   7  11
ATOM     11  O   UNL     1       7.939   7.868  17.111  0.00  0.00    +0.000 OA
ATOM     12  H   UNL     1       8.495   7.656  17.878  0.00  0.00    +0.000 HD
ENDBRANCH   7  11
BRANCH   2  13
ATOM     13  C   UNL     1       2.285   3.547  18.125  0.00  0.00    +0.000 C 
BRANCH  13  15
ATOM     14  C   UNL     1       1.949   2.692  20.505  0.00  0.00    +0.000 C 
ATOM     15  C   UNL     1       2.765   2.583  19.228  0.00  0.00    +0.000 C 
ENDBRANCH  13  15
ENDBRANCH   2  13
BRANCH   4  16
ATOM     16  C   UNL     1       5.938   3.749  14.974  0.00  0.00    +0.000 C 
BRANCH  16  17
ATOM     17  O   UNL     1       5.321   4.127  13.742  0.00  0.00    +0.000 OA
ATOM     18  C   UNL     1       5.965   3.535  12.622  0.00  0.00    +0.000 C 
ENDBRANCH  16  17
ENDBRANCH   4  16
ENDBRANCH   1  10
BRANCH   1  19
ATOM     19  C   UNL     1       2.416   7.433  19.287  0.00  0.00    +0.000 A 
ATOM     20  C   UNL     1       1.664   8.041  20.297  0.00  0.00    +0.000 A 
ATOM     21  C   UNL     1       0.729   9.044  19.990  0.00  0.00    +0.000 A 
ATOM     22  C   UNL     1       0.461   9.422  18.662  0.00  0.00    +0.000 A 
ATOM     23  C   UNL     1       1.354   8.941  17.689  0.00  0.00    +0.000 A 
ATOM     24  C   UNL     1       2.322   7.974  17.999  0.00  0.00    +0.000 A 
BRANCH  22  25
ATOM     25  C   UNL     1      -0.761  10.198  18.279  0.00  0.00    +0.000 A 
ATOM     26  C   UNL     1      -1.524   9.800  17.155  0.00  0.00    +0.000 A 
ATOM     27  C   UNL     1      -2.708  10.451  16.782  0.00  0.00    +0.000 A 
ATOM     28  C   UNL     1      -3.159  11.547  17.503  0.00  0.00    +0.000 A 
ATOM     29  C   UNL     1      -2.437  11.972  18.610  0.00  0.00    +0.000 A 
ATOM     30  C   UNL     1      -1.266  11.299  19.029  0.00  0.00    +0.000 A 
BRANCH  30  31
ATOM     31  C   UNL     1      -0.696  11.771  20.288  0.00  0.00    +0.000 A 
ATOM     32  N   UNL     1       0.434  12.563  20.330  0.00  0.00    +0.000 NA
ATOM     33  N   UNL     1       0.639  12.872  21.603  0.00  0.00    +0.000 NA
ATOM     34  N   UNL     1      -0.361  12.272  22.256  0.00  0.00    +0.000 N 
ATOM     35  N   UNL     1      -1.242  11.605  21.504  0.00  0.00    +0.000 NA
ATOM     36  H   UNL     1      -0.448  12.328  23.267  0.00  0.00    +0.000 HD
ENDBRANCH  30  31
ENDBRANCH  22  25
ENDBRANCH   1  19
TORSDOF 9
ENDMDL
MODEL 9
REMARK VINA RESULT:      -8.2      3.108      4.656
REMARK  Name = 
REMARK  11 active torsions:
REMARK  status: ('A' for Active; 'I' for Inactive)
REMARK    1  A    between atoms: C_1  and  C_2
REMARK    2  A    between atoms: C_2  and  C_3
REMARK    3  A    between atoms: C_3  and  C_4
REMARK    4  A    between atoms: C_6  and  C_7
REMARK    5  A    between atoms: C_7  and  O_8
REMARK    6  A    between atoms: O_8  and  C_9
REMARK    7  A    between atoms: C_12  and  O_13
REMARK    8  A    between atoms: C_16  and  C_17
REMARK    9  A    between atoms: C_17  and  C_18
REMARK   10  A    between atoms: C_21  and  C_22
REMARK   11  A    between atoms: C_27  and  C_28
REMARK                            x       y       z     vdW  Elec       q    Type
REMARK                         _______ _______ _______ _____ _____    ______ ____
ROOT
ATOM      1  C   UNL     1       2.931   6.686  17.538  0.00  0.00    +0.000 C 
ENDROOT
BRANCH   1  10
ATOM      2  C   UNL     1       4.744   5.191  18.617  0.00  0.00    +0.000 A 
ATOM      3  N   UNL     1       5.204   4.032  19.242  0.00  0.00    +0.000 NA
ATOM      4  C   UNL     1       4.393   3.026  19.374  0.00  0.00    +0.000 A 
ATOM      5  N   UNL     1       3.076   3.137  18.977  0.00  0.00    +0.000 N 
ATOM      6  N   UNL     1       2.133   2.177  19.108  0.00  0.00    +0.000 NA
ATOM      7  C   UNL     1       1.097   2.800  18.563  0.00  0.00    +0.000 A 
ATOM      8  N   UNL     1       1.296   4.062  18.115  0.00  0.00    +0.000 NA
ATOM      9  C   UNL     1       2.560   4.282  18.421  0.00  0.00    +0.000 A 
ATOM     10  C   UNL     1       3.442   5.412  18.228  0.00  0.00    +0.000 A 
BRANCH   7  11
ATOM     11  O   UNL     1      -0.023   2.089  18.521  0.00  0.00    +0.000 OA
ATOM     12  H   UNL     1      -0.718   2.704  18.807  0.00  0.00    +0.000 HD
ENDBRANCH   7  11
BRANCH   2  13
ATOM     13  C   UNL     1       5.923   6.127  18.366  0.00  0.00    +0.000 C 
BRANCH  13  15
ATOM     14  C   UNL     1       6.972   5.062  16.298  0.00  0.00    +0.000 C 
ATOM     15  C   UNL     1       7.109   5.330  17.788  0.00  0.00    +0.000 C 
ENDBRANCH  13  15
ENDBRANCH   2  13
BRANCH   4  16
ATOM     16  C   UNL     1       4.821   1.684  19.905  0.00  0.00    +0.000 C 
BRANCH  16  17
ATOM     17  O   UNL     1       5.077   1.822  21.303  0.00  0.00    +0.000 OA
ATOM     18  C   UNL     1       5.765   0.695  21.831  0.00  0.00    +0.000 C 
ENDBRANCH  16  17
ENDBRANCH   4  16
ENDBRANCH   1  10
BRANCH   1  19
ATOM     19  C   UNL     1       2.399   7.750  18.488  0.00  0.00    +0.000 A 
ATOM     20  C   UNL     1       2.113   7.456  19.824  0.00  0.00    +0.000 A 
ATOM     21  C   UNL     1       1.415   8.375  20.627  0.00  0.00    +0.000 A 
ATOM     22  C   UNL     1       0.916   9.582  20.104  0.00  0.00    +0.000 A 
ATOM     23  C   UNL     1       1.376   9.940  18.825  0.00  0.00    +0.000 A 
ATOM     24  C   UNL     1       2.114   9.045  18.036  0.00  0.00    +0.000 A 
BRANCH  22  25
ATOM     25  C   UNL     1      -0.127  10.392  20.810  0.00  0.00    +0.000 A 
ATOM     26  C   UNL     1      -0.004  10.639  22.199  0.00  0.00    +0.000 A 
ATOM     27  C   UNL     1      -0.916  11.439  22.903  0.00  0.00    +0.000 A 
ATOM     28  C   UNL     1      -2.005  11.995  22.249  0.00  0.00    +0.000 A 
ATOM     29  C   UNL     1      -2.164  11.773  20.888  0.00  0.00    +0.000 A 
ATOM     30  C   UNL     1      -1.229  11.009  20.152  0.00  0.00    +0.000 A 
BRANCH  30  31
ATOM     31  C   UNL     1      -1.450  10.980  18.709  0.00  0.00    +0.000 A 
ATOM     32  N   UNL     1      -1.875   9.843  18.054  0.00  0.00    +0.000 NA
ATOM     33  N   UNL     1      -2.046  10.172  16.782  0.00  0.00    +0.000 NA
ATOM     34  N   UNL     1      -1.731  11.471  16.729  0.00  0.00    +0.000 N 
ATOM     35  N   UNL     1      -1.388  12.042  17.888  0.00  0.00    +0.000 NA
ATOM     36  H   UNL     1      -1.758  11.991  15.858  0.00  0.00    +0.000 HD
ENDBRANCH  30  31
ENDBRANCH  22  25
ENDBRANCH   1  19
TORSDOF 9
ENDMDL
