MODEL 1
REMARK VINA RESULT:      -6.3      0.000      0.000
REMARK  Name = 
REMARK  12 active torsions:
REMARK  status: ('A' for Active; 'I' for Inactive)
REMARK    1  A    between atoms: C_1  and  C_2
REMARK    2  A    between atoms: C_2  and  C_3
REMARK    3  A    between atoms: C_3  and  C_4
REMARK    4  A    between atoms: C_4  and  C_5
REMARK    5  A    between atoms: C_5  and  C_6
REMARK    6  A    between atoms: C_6  and  C_7
REMARK    7  A    between atoms: C_7  and  C_8
REMARK    8  A    between atoms: C_8  and  C_9
REMARK    9  A    between atoms: C_9  and  C_10
REMARK   10  A    between atoms: C_10  and  N_11
REMARK   11  A    between atoms: C_13  and  C_14
REMARK   12  A    between atoms: N_15  and  C_17
REMARK                            x       y       z     vdW  Elec       q    Type
REMARK                         _______ _______ _______ _____ _____    ______ ____
ROOT
ATOM      1  N   UNL     1       6.039   5.891  17.489  0.00  0.00    +0.000 N 
ATOM      2  C   UNL     1       6.571   6.679  18.451  0.00  0.00    +0.000 A 
ATOM      3  C   UNL     1       7.607   7.323  17.826  0.00  0.00    +0.000 A 
ATOM      4  N   UNL     1       7.668   6.908  16.518  0.00  0.00    +0.000 NA
ATOM      5  N   UNL     1       6.691   6.022  16.323  0.00  0.00    +0.000 NA
ENDROOT
BRANCH   3   6
ATOM      6  C   UNL     1       8.493   8.282  18.406  0.00  0.00    +0.000 C 
ATOM      7  N   UNL     1       8.465   9.594  18.202  0.00  0.00    +0.000 N 
ATOM      8  O   UNL     1       7.598  10.152  17.463  0.00  0.00    +0.000 OA
BRANCH   7   9
ATOM      9  C   UNL     1       9.443  10.411  18.895  0.00  0.00    +0.000 A 
ATOM     10  C   UNL     1       9.280  10.681  20.252  0.00  0.00    +0.000 A 
ATOM     11  C   UNL     1      10.126  11.576  20.884  0.00  0.00    +0.000 A 
ATOM     12  C   UNL     1      11.193  12.135  20.176  0.00  0.00    +0.000 A 
ATOM     13  C   UNL     1      11.389  11.824  18.830  0.00  0.00    +0.000 A 
ATOM     14  C   UNL     1      10.513  10.961  18.172  0.00  0.00    +0.000 A 
ENDBRANCH   7   9
ENDBRANCH   3   6
BRANCH   1  15
ATOM     15  C   UNL     1       4.866   5.069  17.639  0.00  0.00    +0.000 C 
BRANCH  15  16
ATOM     16  C   UNL     1       3.604   5.878  17.390  0.00  0.00    +0.000 C 
BRANCH  16  17
ATOM     17  C   UNL     1       2.486   5.425  18.315  0.00  0.00    +0.000 C 
BRANCH  17  18
ATOM     18  C   UNL     1       2.709   5.979  19.714  0.00  0.00    +0.000 C 
BRANCH  18  19
ATOM     19  C   UNL     1       1.796   5.282  20.709  0.00  0.00    +0.000 C 
BRANCH  19  20
ATOM     20  C   UNL     1       1.023   4.168  20.021  0.00  0.00    +0.000 C 
BRANCH  20  21
ATOM     21  C   UNL     1       1.518   2.811  20.497  0.00  0.00    +0.000 C 
BRANCH  21  22
ATOM     22  C   UNL     1       1.757   1.891  19.309  0.00  0.00    +0.000 C 
BRANCH  22  24
ATOM     23  C   UNL     1       4.118   2.287  20.026  0.00  0.00    +0.000 C 
ATOM     24  C   UNL     1       3.209   1.964  18.856  0.00  0.00    +0.000 C 
ENDBRANCH  22  24
ENDBRANCH  21  22
ENDBRANCH  20  21
ENDBRANCH  19  20
ENDBRANCH  18  19
ENDBRANCH  17  18
ENDBRANCH  16  17
ENDBRANCH  15  16
ENDBRANCH   1  15
TORSDOF 11
ENDMDL
MODEL 2
REMARK VINA RESULT:      -6.1      1.352      2.050
REMARK  Name = 
REMARK  12 active torsions:
REMARK  status: ('A' for Active; 'I' for Inactive)
REMARK    1  A    between atoms: C_1  and  C_2
REMARK    2  A    between atoms: C_2  and  C_3
REMARK    3  A    between atoms: C_3  and  C_4
REMARK    4  A    between atoms: C_4  and  C_5
REMARK    5  A    between atoms: C_5  and  C_6
REMARK    6  A    between atoms: C_6  and  C_7
REMARK    7  A    between atoms: C_7  and  C_8
REMARK    8  A    between atoms: C_8  and  C_9
REMARK    9  A    between atoms: C_9  and  C_10
REMARK   10  A    between atoms: C_10  and  N_11
REMARK   11  A    between atoms: C_13  and  C_14
REMARK   12  A    between atoms: N_15  and  C_17
REMARK                            x       y       z     vdW  Elec       q    Type
REMARK                         _______ _______ _______ _____ _____    ______ ____
ROOT
ATOM      1  N   UNL     1       7.377   6.269  17.916  0.00  0.00    +0.000 N 
ATOM      2  C   UNL     1       8.186   6.939  18.768  0.00  0.00    +0.000 A 
ATOM      3  C   UNL     1       8.229   8.213  18.264  0.00  0.00    +0.000 A 
ATOM      4  N   UNL     1       7.451   8.274  17.133  0.00  0.00    +0.000 NA
ATOM      5  N   UNL     1       6.930   7.064  16.930  0.00  0.00    +0.000 NA
ENDROOT
BRANCH   3   6
ATOM      6  C   UNL     1       8.946   9.324  18.805  0.00  0.00    +0.000 C 
ATOM      7  N   UNL     1       8.875  10.581  18.381  0.00  0.00    +0.000 N 
ATOM      8  O   UNL     1       8.114  10.939  17.432  0.00  0.00    +0.000 OA
BRANCH   7   9
ATOM      9  C   UNL     1       9.673  11.577  19.071  0.00  0.00    +0.000 A 
ATOM     10  C   UNL     1       9.081  12.768  19.486  0.00  0.00    +0.000 A 
ATOM     11  C   UNL     1       9.865  13.781  20.012  0.00  0.00    +0.000 A 
ATOM     12  C   UNL     1      11.232  13.566  20.204  0.00  0.00    +0.000 A 
ATOM     13  C   UNL     1      11.816  12.354  19.838  0.00  0.00    +0.000 A 
ATOM     14  C   UNL     1      11.044  11.346  19.262  0.00  0.00    +0.000 A 
ENDBRANCH   7   9
ENDBRANCH   3   6
BRANCH   1  15
ATOM     15  C   UNL     1       6.958   4.900  18.067  0.00  0.00    +0.000 C 
BRANCH  15  16
ATOM     16  C   UNL     1       5.615   4.821  18.773  0.00  0.00    +0.000 C 
BRANCH  16  17
ATOM     17  C   UNL     1       4.815   3.631  18.269  0.00  0.00    +0.000 C 
BRANCH  17  18
ATOM     18  C   UNL     1       3.826   4.078  17.204  0.00  0.00    +0.000 C 
BRANCH  18  19
ATOM     19  C   UNL     1       2.726   4.923  17.826  0.00  0.00    +0.000 C 
BRANCH  19  20
ATOM     20  C   UNL     1       1.400   4.182  17.770  0.00  0.00    +0.000 C 
BRANCH  20  21
ATOM     21  C   UNL     1       1.120   3.500  19.100  0.00  0.00    +0.000 C 
BRANCH  21  22
ATOM     22  C   UNL     1       1.534   4.402  20.253  0.00  0.00    +0.000 C 
BRANCH  22  24
ATOM     23  C   UNL     1       2.922   2.548  21.192  0.00  0.00    +0.000 C 
ATOM     24  C   UNL     1       1.850   3.577  21.494  0.00  0.00    +0.000 C 
ENDBRANCH  22  24
ENDBRANCH  21  22
ENDBRANCH  20  21
ENDBRANCH  19  20
ENDBRANCH  18  19
ENDBRANCH  17  18
ENDBRANCH  16  17
ENDBRANCH  15  16
ENDBRANCH   1  15
TORSDOF 11
ENDMDL
MODEL 3
REMARK VINA RESULT:      -6.1      1.317      2.389
REMARK  Name = 
REMARK  12 active torsions:
REMARK  status: ('A' for Active; 'I' for Inactive)
REMARK    1  A    between atoms: C_1  and  C_2
REMARK    2  A    between atoms: C_2  and  C_3
REMARK    3  A    between atoms: C_3  and  C_4
REMARK    4  A    between atoms: C_4  and  C_5
REMARK    5  A    between atoms: C_5  and  C_6
REMARK    6  A    between atoms: C_6  and  C_7
REMARK    7  A    between atoms: C_7  and  C_8
REMARK    8  A    between atoms: C_8  and  C_9
REMARK    9  A    between atoms: C_9  and  C_10
REMARK   10  A    between atoms: C_10  and  N_11
REMARK   11  A    between atoms: C_13  and  C_14
REMARK   12  A    between atoms: N_15  and  C_17
REMARK                            x       y       z     vdW  Elec       q    Type
REMARK                         _______ _______ _______ _____ _____    ______ ____
ROOT
ATOM      1  N   UNL     1       7.266   6.302  17.902  0.00  0.00    +0.000 N 
ATOM      2  C   UNL     1       8.078   6.990  18.736  0.00  0.00    +0.000 A 
ATOM      3  C   UNL     1       8.195   8.225  18.152  0.00  0.00    +0.000 A 
ATOM      4  N   UNL     1       7.456   8.244  16.994  0.00  0.00    +0.000 NA
ATOM      5  N   UNL     1       6.886   7.048  16.852  0.00  0.00    +0.000 NA
ENDROOT
BRANCH   3   6
ATOM      6  C   UNL     1       8.945   9.337  18.644  0.00  0.00    +0.000 C 
ATOM      7  N   UNL     1       8.791  10.605  18.280  0.00  0.00    +0.000 N 
ATOM      8  O   UNL     1       7.910  10.974  17.446  0.00  0.00    +0.000 OA
BRANCH   7   9
ATOM      9  C   UNL     1       9.642  11.600  18.905  0.00  0.00    +0.000 A 
ATOM     10  C   UNL     1      10.964  11.283  19.211  0.00  0.00    +0.000 A 
ATOM     11  C   UNL     1      11.736  12.174  19.938  0.00  0.00    +0.000 A 
ATOM     12  C   UNL     1      11.211  13.421  20.281  0.00  0.00    +0.000 A 
ATOM     13  C   UNL     1       9.904  13.761  19.928  0.00  0.00    +0.000 A 
ATOM     14  C   UNL     1       9.102  12.852  19.239  0.00  0.00    +0.000 A 
ENDBRANCH   7   9
ENDBRANCH   3   6
BRANCH   1  15
ATOM     15  C   UNL     1       6.780   4.965  18.127  0.00  0.00    +0.000 C 
BRANCH  15  16
ATOM     16  C   UNL     1       5.539   4.982  19.004  0.00  0.00    +0.000 C 
BRANCH  16  17
ATOM     17  C   UNL     1       4.936   3.591  19.106  0.00  0.00    +0.000 C 
BRANCH  17  18
ATOM     18  C   UNL     1       3.945   3.366  17.975  0.00  0.00    +0.000 C 
BRANCH  18  19
ATOM     19  C   UNL     1       3.255   2.022  18.138  0.00  0.00    +0.000 C 
BRANCH  19  20
ATOM     20  C   UNL     1       1.753   2.216  18.270  0.00  0.00    +0.000 C 
BRANCH  20  21
ATOM     21  C   UNL     1       1.436   3.662  18.615  0.00  0.00    +0.000 C 
BRANCH  21  22
ATOM     22  C   UNL     1       0.908   3.762  20.038  0.00  0.00    +0.000 C 
BRANCH  22  24
ATOM     23  C   UNL     1       1.932   5.989  20.525  0.00  0.00    +0.000 C 
ATOM     24  C   UNL     1       1.885   4.526  20.922  0.00  0.00    +0.000 C 
ENDBRANCH  22  24
ENDBRANCH  21  22
ENDBRANCH  20  21
ENDBRANCH  19  20
ENDBRANCH  18  19
ENDBRANCH  17  18
ENDBRANCH  16  17
ENDBRANCH  15  16
ENDBRANCH   1  15
TORSDOF 11
ENDMDL
MODEL 4
REMARK VINA RESULT:      -6.1      1.207      1.848
REMARK  Name = 
REMARK  12 active torsions:
REMARK  status: ('A' for Active; 'I' for Inactive)
REMARK    1  A    between atoms: C_1  and  C_2
REMARK    2  A    between atoms: C_2  and  C_3
REMARK    3  A    between atoms: C_3  and  C_4
REMARK    4  A    between atoms: C_4  and  C_5
REMARK    5  A    between atoms: C_5  and  C_6
REMARK    6  A    between atoms: C_6  and  C_7
REMARK    7  A    between atoms: C_7  and  C_8
REMARK    8  A    between atoms: C_8  and  C_9
REMARK    9  A    between atoms: C_9  and  C_10
REMARK   10  A    between atoms: C_10  and  N_11
REMARK   11  A    between atoms: C_13  and  C_14
REMARK   12  A    between atoms: N_15  and  C_17
REMARK                            x       y       z     vdW  Elec       q    Type
REMARK                         _______ _______ _______ _____ _____    ______ ____
ROOT
ATOM      1  N   UNL     1       6.397   6.461  17.317  0.00  0.00    +0.000 N 
ATOM      2  C   UNL     1       6.980   7.681  17.301  0.00  0.00    +0.000 A 
ATOM      3  C   UNL     1       7.940   7.610  18.277  0.00  0.00    +0.000 A 
ATOM      4  N   UNL     1       7.908   6.361  18.847  0.00  0.00    +0.000 NA
ATOM      5  N   UNL     1       6.948   5.660  18.243  0.00  0.00    +0.000 NA
ENDROOT
BRANCH   3   6
ATOM      6  C   UNL     1       8.850   8.644  18.659  0.00  0.00    +0.000 C 
ATOM      7  N   UNL     1       8.735   9.934  18.363  0.00  0.00    +0.000 N 
ATOM      8  O   UNL     1       7.753  10.400  17.709  0.00  0.00    +0.000 OA
BRANCH   7   9
ATOM      9  C   UNL     1       9.758  10.838  18.855  0.00  0.00    +0.000 A 
ATOM     10  C   UNL     1       9.845  11.105  20.220  0.00  0.00    +0.000 A 
ATOM     11  C   UNL     1      10.720  12.075  20.678  0.00  0.00    +0.000 A 
ATOM     12  C   UNL     1      11.573  12.716  19.777  0.00  0.00    +0.000 A 
ATOM     13  C   UNL     1      11.524  12.411  18.416  0.00  0.00    +0.000 A 
ATOM     14  C   UNL     1      10.611  11.471  17.938  0.00  0.00    +0.000 A 
ENDBRANCH   7   9
ENDBRANCH   3   6
BRANCH   1  15
ATOM     15  C   UNL     1       5.372   6.015  16.410  0.00  0.00    +0.000 C 
BRANCH  15  16
ATOM     16  C   UNL     1       5.428   4.508  16.229  0.00  0.00    +0.000 C 
BRANCH  16  17
ATOM     17  C   UNL     1       4.231   3.844  16.891  0.00  0.00    +0.000 C 
BRANCH  17  18
ATOM     18  C   UNL     1       3.348   4.894  17.546  0.00  0.00    +0.000 C 
BRANCH  18  19
ATOM     19  C   UNL     1       1.918   4.390  17.650  0.00  0.00    +0.000 C 
BRANCH  19  20
ATOM     20  C   UNL     1       1.899   2.870  17.700  0.00  0.00    +0.000 C 
BRANCH  20  21
ATOM     21  C   UNL     1       0.968   2.389  18.801  0.00  0.00    +0.000 C 
BRANCH  21  22
ATOM     22  C   UNL     1       1.721   2.283  20.119  0.00  0.00    +0.000 C 
BRANCH  22  24
ATOM     23  C   UNL     1       2.326   4.394  21.311  0.00  0.00    +0.000 C 
ATOM     24  C   UNL     1       1.247   3.350  21.097  0.00  0.00    +0.000 C 
ENDBRANCH  22  24
ENDBRANCH  21  22
ENDBRANCH  20  21
ENDBRANCH  19  20
ENDBRANCH  18  19
ENDBRANCH  17  18
ENDBRANCH  16  17
ENDBRANCH  15  16
ENDBRANCH   1  15
TORSDOF 11
ENDMDL
MODEL 5
REMARK VINA RESULT:      -6.0      0.873      2.200
REMARK  Name = 
REMARK  12 active torsions:
REMARK  status: ('A' for Active; 'I' for Inactive)
REMARK    1  A    between atoms: C_1  and  C_2
REMARK    2  A    between atoms: C_2  and  C_3
REMARK    3  A    between atoms: C_3  and  C_4
REMARK    4  A    between atoms: C_4  and  C_5
REMARK    5  A    between atoms: C_5  and  C_6
REMARK    6  A    between atoms: C_6  and  C_7
REMARK    7  A    between atoms: C_7  and  C_8
REMARK    8  A    between atoms: C_8  and  C_9
REMARK    9  A    between atoms: C_9  and  C_10
REMARK   10  A    between atoms: C_10  and  N_11
REMARK   11  A    between atoms: C_13  and  C_14
REMARK   12  A    between atoms: N_15  and  C_17
REMARK                            x       y       z     vdW  Elec       q    Type
REMARK                         _______ _______ _______ _____ _____    ______ ____
ROOT
ATOM      1  N   UNL     1       6.427   5.798  17.817  0.00  0.00    +0.000 N 
ATOM      2  C   UNL     1       7.045   6.554  18.753  0.00  0.00    +0.000 A 
ATOM      3  C   UNL     1       7.820   7.423  18.029  0.00  0.00    +0.000 A 
ATOM      4  N   UNL     1       7.648   7.167  16.690  0.00  0.00    +0.000 NA
ATOM      5  N   UNL     1       6.783   6.160  16.574  0.00  0.00    +0.000 NA
ENDROOT
BRANCH   3   6
ATOM      6  C   UNL     1       8.672   8.446  18.548  0.00  0.00    +0.000 C 
ATOM      7  N   UNL     1       8.554   9.750  18.320  0.00  0.00    +0.000 N 
ATOM      8  O   UNL     1       7.621  10.238  17.614  0.00  0.00    +0.000 OA
BRANCH   7   9
ATOM      9  C   UNL     1       9.512  10.639  18.950  0.00  0.00    +0.000 A 
ATOM     10  C   UNL     1      10.618  11.084  18.230  0.00  0.00    +0.000 A 
ATOM     11  C   UNL     1      11.609  11.812  18.867  0.00  0.00    +0.000 A 
ATOM     12  C   UNL     1      11.449  12.169  20.207  0.00  0.00    +0.000 A 
ATOM     13  C   UNL     1      10.316  11.769  20.916  0.00  0.00    +0.000 A 
ATOM     14  C   UNL     1       9.335  10.994  20.297  0.00  0.00    +0.000 A 
ENDBRANCH   7   9
ENDBRANCH   3   6
BRANCH   1  15
ATOM     15  C   UNL     1       5.441   4.784  18.084  0.00  0.00    +0.000 C 
BRANCH  15  16
ATOM     16  C   UNL     1       5.357   3.796  16.933  0.00  0.00    +0.000 C 
BRANCH  16  17
ATOM     17  C   UNL     1       3.945   3.743  16.373  0.00  0.00    +0.000 C 
BRANCH  17  18
ATOM     18  C   UNL     1       2.938   3.616  17.505  0.00  0.00    +0.000 C 
BRANCH  18  19
ATOM     19  C   UNL     1       2.469   2.176  17.634  0.00  0.00    +0.000 C 
BRANCH  19  20
ATOM     20  C   UNL     1       2.221   1.833  19.094  0.00  0.00    +0.000 C 
BRANCH  20  21
ATOM     21  C   UNL     1       3.080   2.708  19.994  0.00  0.00    +0.000 C 
BRANCH  21  22
ATOM     22  C   UNL     1       2.270   3.190  21.189  0.00  0.00    +0.000 C 
BRANCH  22  24
ATOM     23  C   UNL     1       1.961   5.569  20.492  0.00  0.00    +0.000 C 
ATOM     24  C   UNL     1       1.264   4.251  20.764  0.00  0.00    +0.000 C 
ENDBRANCH  22  24
ENDBRANCH  21  22
ENDBRANCH  20  21
ENDBRANCH  19  20
ENDBRANCH  18  19
ENDBRANCH  17  18
ENDBRANCH  16  17
ENDBRANCH  15  16
ENDBRANCH   1  15
TORSDOF 11
ENDMDL
MODEL 6
REMARK VINA RESULT:      -5.9      1.232      2.245
REMARK  Name = 
REMARK  12 active torsions:
REMARK  status: ('A' for Active; 'I' for Inactive)
REMARK    1  A    between atoms: C_1  and  C_2
REMARK    2  A    between atoms: C_2  and  C_3
REMARK    3  A    between atoms: C_3  and  C_4
REMARK    4  A    between atoms: C_4  and  C_5
REMARK    5  A    between atoms: C_5  and  C_6
REMARK    6  A    between atoms: C_6  and  C_7
REMARK    7  A    between atoms: C_7  and  C_8
REMARK    8  A    between atoms: C_8  and  C_9
REMARK    9  A    between atoms: C_9  and  C_10
REMARK   10  A    between atoms: C_10  and  N_11
REMARK   11  A    between atoms: C_13  and  C_14
REMARK   12  A    between atoms: N_15  and  C_17
REMARK                            x       y       z     vdW  Elec       q    Type
REMARK                         _______ _______ _______ _____ _____    ______ ____
ROOT
ATOM      1  N   UNL     1       7.381   5.960  17.825  0.00  0.00    +0.000 N 
ATOM      2  C   UNL     1       8.024   6.703  18.755  0.00  0.00    +0.000 A 
ATOM      3  C   UNL     1       8.180   7.928  18.159  0.00  0.00    +0.000 A 
ATOM      4  N   UNL     1       7.633   7.888  16.900  0.00  0.00    +0.000 NA
ATOM      5  N   UNL     1       7.141   6.664  16.706  0.00  0.00    +0.000 NA
ENDROOT
BRANCH   3   6
ATOM      6  C   UNL     1       8.798   9.084  18.729  0.00  0.00    +0.000 C 
ATOM      7  N   UNL     1       8.664  10.333  18.299  0.00  0.00    +0.000 N 
ATOM      8  O   UNL     1       7.924  10.641  17.316  0.00  0.00    +0.000 OA
BRANCH   7   9
ATOM      9  C   UNL     1       9.362  11.380  19.021  0.00  0.00    +0.000 A 
ATOM     10  C   UNL     1       9.464  12.653  18.465  0.00  0.00    +0.000 A 
ATOM     11  C   UNL     1      10.252  13.613  19.078  0.00  0.00    +0.000 A 
ATOM     12  C   UNL     1      10.867  13.324  20.298  0.00  0.00    +0.000 A 
ATOM     13  C   UNL     1      10.722  12.066  20.883  0.00  0.00    +0.000 A 
ATOM     14  C   UNL     1       9.971  11.077  20.249  0.00  0.00    +0.000 A 
ENDBRANCH   7   9
ENDBRANCH   3   6
BRANCH   1  15
ATOM     15  C   UNL     1       6.921   4.609  18.011  0.00  0.00    +0.000 C 
BRANCH  15  16
ATOM     16  C   UNL     1       5.637   4.364  17.235  0.00  0.00    +0.000 C 
BRANCH  16  17
ATOM     17  C   UNL     1       4.450   4.273  18.180  0.00  0.00    +0.000 C 
BRANCH  17  18
ATOM     18  C   UNL     1       4.459   2.937  18.905  0.00  0.00    +0.000 C 
BRANCH  18  19
ATOM     19  C   UNL     1       3.408   2.010  18.317  0.00  0.00    +0.000 C 
BRANCH  19  20
ATOM     20  C   UNL     1       2.272   2.820  17.715  0.00  0.00    +0.000 C 
BRANCH  20  21
ATOM     21  C   UNL     1       1.052   2.772  18.621  0.00  0.00    +0.000 C 
BRANCH  21  22
ATOM     22  C   UNL     1       1.423   2.187  19.976  0.00  0.00    +0.000 C 
BRANCH  22  24
ATOM     23  C   UNL     1       1.218   4.616  20.525  0.00  0.00    +0.000 C 
ATOM     24  C   UNL     1       1.193   3.206  21.083  0.00  0.00    +0.000 C 
ENDBRANCH  22  24
ENDBRANCH  21  22
ENDBRANCH  20  21
ENDBRANCH  19  20
ENDBRANCH  18  19
ENDBRANCH  17  18
ENDBRANCH  16  17
ENDBRANCH  15  16
ENDBRANCH   1  15
TORSDOF 11
ENDMDL
MODEL 7
REMARK VINA RESULT:      -5.9      5.293      7.974
REMARK  Name = 
REMARK  12 active torsions:
REMARK  status: ('A' for Active; 'I' for Inactive)
REMARK    1  A    between atoms: C_1  and  C_2
REMARK    2  A    between atoms: C_2  and  C_3
REMARK    3  A    between atoms: C_3  and  C_4
REMARK    4  A    between atoms: C_4  and  C_5
REMARK    5  A    between atoms: C_5  and  C_6
REMARK    6  A    between atoms: C_6  and  C_7
REMARK    7  A    between atoms: C_7  and  C_8
REMARK    8  A    between atoms: C_8  and  C_9
REMARK    9  A    between atoms: C_9  and  C_10
REMARK   10  A    between atoms: C_10  and  N_11
REMARK   11  A    between atoms: C_13  and  C_14
REMARK   12  A    between atoms: N_15  and  C_17
REMARK                            x       y       z     vdW  Elec       q    Type
REMARK                         _______ _______ _______ _____ _____    ______ ____
ROOT
ATOM      1  N   UNL     1       4.130   5.591  17.013  0.00  0.00    +0.000 N 
ATOM      2  C   UNL     1       3.114   5.869  17.861  0.00  0.00    +0.000 A 
ATOM      3  C   UNL     1       3.160   7.231  18.010  0.00  0.00    +0.000 A 
ATOM      4  N   UNL     1       4.192   7.730  17.254  0.00  0.00    +0.000 NA
ATOM      5  N   UNL     1       4.784   6.704  16.641  0.00  0.00    +0.000 NA
ENDROOT
BRANCH   3   6
ATOM      6  C   UNL     1       2.286   8.035  18.805  0.00  0.00    +0.000 C 
ATOM      7  N   UNL     1       1.833   7.732  20.017  0.00  0.00    +0.000 N 
ATOM      8  O   UNL     1       2.164   6.669  20.624  0.00  0.00    +0.000 OA
BRANCH   7   9
ATOM      9  C   UNL     1       0.962   8.687  20.675  0.00  0.00    +0.000 A 
ATOM     10  C   UNL     1       0.740   9.934  20.095  0.00  0.00    +0.000 A 
ATOM     11  C   UNL     1       0.030  10.900  20.787  0.00  0.00    +0.000 A 
ATOM     12  C   UNL     1      -0.534  10.587  22.025  0.00  0.00    +0.000 A 
ATOM     13  C   UNL     1      -0.359   9.321  22.584  0.00  0.00    +0.000 A 
ATOM     14  C   UNL     1       0.396   8.356  21.917  0.00  0.00    +0.000 A 
ENDBRANCH   7   9
ENDBRANCH   3   6
BRANCH   1  15
ATOM     15  C   UNL     1       4.443   4.289  16.485  0.00  0.00    +0.000 C 
BRANCH  15  16
ATOM     16  C   UNL     1       5.929   3.999  16.609  0.00  0.00    +0.000 C 
BRANCH  16  17
ATOM     17  C   UNL     1       6.605   4.075  15.250  0.00  0.00    +0.000 C 
BRANCH  17  18
ATOM     18  C   UNL     1       5.566   3.983  14.144  0.00  0.00    +0.000 C 
BRANCH  18  19
ATOM     19  C   UNL     1       6.239   3.714  12.808  0.00  0.00    +0.000 C 
BRANCH  19  20
ATOM     20  C   UNL     1       5.299   2.949  11.891  0.00  0.00    +0.000 C 
BRANCH  20  21
ATOM     21  C   UNL     1       4.090   3.803  11.543  0.00  0.00    +0.000 C 
BRANCH  21  22
ATOM     22  C   UNL     1       3.286   3.150  10.429  0.00  0.00    +0.000 C 
BRANCH  22  24
ATOM     23  C   UNL     1       2.115   4.934   9.129  0.00  0.00    +0.000 C 
ATOM     24  C   UNL     1       3.315   4.009   9.171  0.00  0.00    +0.000 C 
ENDBRANCH  22  24
ENDBRANCH  21  22
ENDBRANCH  20  21
ENDBRANCH  19  20
ENDBRANCH  18  19
ENDBRANCH  17  18
ENDBRANCH  16  17
ENDBRANCH  15  16
ENDBRANCH   1  15
TORSDOF 11
ENDMDL
MODEL 8
REMARK VINA RESULT:      -5.9      1.594      2.137
REMARK  Name = 
REMARK  12 active torsions:
REMARK  status: ('A' for Active; 'I' for Inactive)
REMARK    1  A    between atoms: C_1  and  C_2
REMARK    2  A    between atoms: C_2  and  C_3
REMARK    3  A    between atoms: C_3  and  C_4
REMARK    4  A    between atoms: C_4  and  C_5
REMARK    5  A    between atoms: C_5  and  C_6
REMARK    6  A    between atoms: C_6  and  C_7
REMARK    7  A    between atoms: C_7  and  C_8
REMARK    8  A    between atoms: C_8  and  C_9
REMARK    9  A    between atoms: C_9  and  C_10
REMARK   10  A    between atoms: C_10  and  N_11
REMARK   11  A    between atoms: C_13  and  C_14
REMARK   12  A    between atoms: N_15  and  C_17
REMARK                            x       y       z     vdW  Elec       q    Type
REMARK                         _______ _______ _______ _____ _____    ______ ____
ROOT
ATOM      1  N   UNL     1       6.679   6.375  17.735  0.00  0.00    +0.000 N 
ATOM      2  C   UNL     1       6.798   7.606  17.189  0.00  0.00    +0.000 A 
ATOM      3  C   UNL     1       7.869   8.163  17.839  0.00  0.00    +0.000 A 
ATOM      4  N   UNL     1       8.361   7.258  18.748  0.00  0.00    +0.000 NA
ATOM      5  N   UNL     1       7.615   6.155  18.673  0.00  0.00    +0.000 NA
ENDROOT
BRANCH   3   6
ATOM      6  C   UNL     1       8.419   9.464  17.624  0.00  0.00    +0.000 C 
ATOM      7  N   UNL     1       9.009  10.223  18.541  0.00  0.00    +0.000 N 
ATOM      8  O   UNL     1       9.174   9.843  19.739  0.00  0.00    +0.000 OA
BRANCH   7   9
ATOM      9  C   UNL     1       9.520  11.516  18.126  0.00  0.00    +0.000 A 
ATOM     10  C   UNL     1      10.822  11.621  17.642  0.00  0.00    +0.000 A 
ATOM     11  C   UNL     1      11.363  12.869  17.383  0.00  0.00    +0.000 A 
ATOM     12  C   UNL     1      10.568  14.008  17.525  0.00  0.00    +0.000 A 
ATOM     13  C   UNL     1       9.247  13.900  17.959  0.00  0.00    +0.000 A 
ATOM     14  C   UNL     1       8.708  12.652  18.269  0.00  0.00    +0.000 A 
ENDBRANCH   7   9
ENDBRANCH   3   6
BRANCH   1  15
ATOM     15  C   UNL     1       5.735   5.368  17.323  0.00  0.00    +0.000 C 
BRANCH  15  16
ATOM     16  C   UNL     1       4.324   5.931  17.296  0.00  0.00    +0.000 C 
BRANCH  16  17
ATOM     17  C   UNL     1       3.597   5.617  18.594  0.00  0.00    +0.000 C 
BRANCH  17  18
ATOM     18  C   UNL     1       2.096   5.586  18.358  0.00  0.00    +0.000 C 
BRANCH  18  19
ATOM     19  C   UNL     1       1.688   4.264  17.728  0.00  0.00    +0.000 C 
BRANCH  19  20
ATOM     20  C   UNL     1       1.065   3.354  18.775  0.00  0.00    +0.000 C 
BRANCH  20  21
ATOM     21  C   UNL     1       0.941   4.084  20.102  0.00  0.00    +0.000 C 
BRANCH  21  22
ATOM     22  C   UNL     1       1.783   3.395  21.165  0.00  0.00    +0.000 C 
BRANCH  22  24
ATOM     23  C   UNL     1       4.042   2.470  20.628  0.00  0.00    +0.000 C 
ATOM     24  C   UNL     1       2.547   2.221  20.567  0.00  0.00    +0.000 C 
ENDBRANCH  22  24
ENDBRANCH  21  22
ENDBRANCH  20  21
ENDBRANCH  19  20
ENDBRANCH  18  19
ENDBRANCH  17  18
ENDBRANCH  16  17
ENDBRANCH  15  16
ENDBRANCH   1  15
TORSDOF 11
ENDMDL
MODEL 9
REMARK VINA RESULT:      -5.9      2.252      9.824
REMARK  Name = 
REMARK  12 active torsions:
REMARK  status: ('A' for Active; 'I' for Inactive)
REMARK    1  A    between atoms: C_1  and  C_2
REMARK    2  A    between atoms: C_2  and  C_3
REMARK    3  A    between atoms: C_3  and  C_4
REMARK    4  A    between atoms: C_4  and  C_5
REMARK    5  A    between atoms: C_5  and  C_6
REMARK    6  A    between atoms: C_6  and  C_7
REMARK    7  A    between atoms: C_7  and  C_8
REMARK    8  A    between atoms: C_8  and  C_9
REMARK    9  A    between atoms: C_9  and  C_10
REMARK   10  A    between atoms: C_10  and  N_11
REMARK   11  A    between atoms: C_13  and  C_14
REMARK   12  A    between atoms: N_15  and  C_17
REMARK                            x       y       z     vdW  Elec       q    Type
REMARK                         _______ _______ _______ _____ _____    ______ ____
ROOT
ATOM      1  N   UNL     1       7.461   7.031  18.155  0.00  0.00    +0.000 N 
ATOM      2  C   UNL     1       6.144   6.729  18.102  0.00  0.00    +0.000 A 
ATOM      3  C   UNL     1       6.007   5.662  18.951  0.00  0.00    +0.000 A 
ATOM      4  N   UNL     1       7.234   5.355  19.487  0.00  0.00    +0.000 NA
ATOM      5  N   UNL     1       8.125   6.210  18.986  0.00  0.00    +0.000 NA
ENDROOT
BRANCH   3   6
ATOM      6  C   UNL     1       4.798   4.964  19.260  0.00  0.00    +0.000 C 
ATOM      7  N   UNL     1       3.966   4.417  18.381  0.00  0.00    +0.000 N 
ATOM      8  O   UNL     1       4.182   4.437  17.131  0.00  0.00    +0.000 OA
BRANCH   7   9
ATOM      9  C   UNL     1       2.791   3.735  18.890  0.00  0.00    +0.000 A 
ATOM     10  C   UNL     1       2.169   2.759  18.116  0.00  0.00    +0.000 A 
ATOM     11  C   UNL     1       0.968   2.210  18.531  0.00  0.00    +0.000 A 
ATOM     12  C   UNL     1       0.434   2.575  19.769  0.00  0.00    +0.000 A 
ATOM     13  C   UNL     1       1.084   3.514  20.571  0.00  0.00    +0.000 A 
ATOM     14  C   UNL     1       2.269   4.109  20.139  0.00  0.00    +0.000 A 
ENDBRANCH   7   9
ENDBRANCH   3   6
BRANCH   1  15
ATOM     15  C   UNL     1       8.090   8.141  17.487  0.00  0.00    +0.000 C 
BRANCH  15  16
ATOM     16  C   UNL     1       8.635   9.140  18.494  0.00  0.00    +0.000 C 
BRANCH  16  17
ATOM     17  C   UNL     1       8.722  10.527  17.879  0.00  0.00    +0.000 C 
BRANCH  17  18
ATOM     18  C   UNL     1       9.973  11.238  18.369  0.00  0.00    +0.000 C 
BRANCH  18  19
ATOM     19  C   UNL     1      10.096  11.110  19.878  0.00  0.00    +0.000 C 
BRANCH  19  20
ATOM     20  C   UNL     1      11.114  12.107  20.409  0.00  0.00    +0.000 C 
BRANCH  20  21
ATOM     21  C   UNL     1      10.414  13.364  20.900  0.00  0.00    +0.000 C 
BRANCH  21  22
ATOM     22  C   UNL     1      10.663  14.516  19.937  0.00  0.00    +0.000 C 
BRANCH  22  24
ATOM     23  C   UNL     1       8.170  14.356  19.880  0.00  0.00    +0.000 C 
ATOM     24  C   UNL     1       9.366  15.256  19.637  0.00  0.00    +0.000 C 
ENDBRANCH  22  24
ENDBRANCH  21  22
ENDBRANCH  20  21
ENDBRANCH  19  20
ENDBRANCH  18  19
ENDBRANCH  17  18
ENDBRANCH  16  17
ENDBRANCH  15  16
ENDBRANCH   1  15
TORSDOF 11
ENDMDL
