MODEL 1
REMARK VINA RESULT:      -7.9      0.000      0.000
REMARK  Name = 
REMARK  9 active torsions:
REMARK  status: ('A' for Active; 'I' for Inactive)
REMARK    1  A    between atoms: C_2  and  C_3
REMARK    2  A    between atoms: C_3  and  N_4
REMARK    3  A    between atoms: C_8  and  C_9
REMARK    4  A    between atoms: N_19  and  C_20
REMARK    5  A    between atoms: C_20  and  C_21
REMARK    6  A    between atoms: C_24  and  O_25
REMARK    7  A    between atoms: O_25  and  C_26
REMARK    8  A    between atoms: C_28  and  O_29
REMARK    9  A    between atoms: O_29  and  C_30
REMARK                            x       y       z     vdW  Elec       q    Type
REMARK                         _______ _______ _______ _____ _____    ______ ____
ROOT
ATOM      1  N   UNL     1       1.059   3.814  18.748  0.00  0.00    +0.000 NA
ATOM      2  C   UNL     1       1.955   4.749  18.044  0.00  0.00    +0.000 C 
ATOM      3  C   UNL     1       2.931   5.544  18.956  0.00  0.00    +0.000 C 
ATOM      4  C   UNL     1       3.888   4.569  19.665  0.00  0.00    +0.000 C 
ATOM      5  C   UNL     1       5.057   4.131  19.152  0.00  0.00    +0.000 C 
ATOM      6  C   UNL     1       3.460   4.098  21.041  0.00  0.00    +0.000 C 
ATOM      7  C   UNL     1       2.051   3.496  21.112  0.00  0.00    +0.000 C 
ATOM      8  C   UNL     1       0.983   4.146  20.200  0.00  0.00    +0.000 C 
ATOM      9  C   UNL     1       0.981   5.699  20.393  0.00  0.00    +0.000 C 
ATOM     10  N   UNL     1       2.251   6.376  19.987  0.00  0.00    +0.000 NA
ENDROOT
BRANCH   5  11
ATOM     11  C   UNL     1       5.589   4.479  17.835  0.00  0.00    +0.000 A 
ATOM     12  C   UNL     1       6.559   5.479  17.704  0.00  0.00    +0.000 A 
ATOM     13  C   UNL     1       7.057   5.813  16.446  0.00  0.00    +0.000 A 
ATOM     14  C   UNL     1       6.599   5.142  15.312  0.00  0.00    +0.000 A 
ATOM     15  C   UNL     1       5.640   4.138  15.436  0.00  0.00    +0.000 A 
ATOM     16  C   UNL     1       5.140   3.806  16.696  0.00  0.00    +0.000 A 
ENDBRANCH   5  11
BRANCH   1  17
ATOM     17  C   UNL     1       1.340   2.403  18.466  0.00  0.00    +0.000 C 
BRANCH  17  19
ATOM     18  C   UNL     1       3.549   1.291  18.013  0.00  0.00    +0.000 C 
ATOM     19  C   UNL     1       2.612   2.191  17.685  0.00  0.00    +0.000 C 
ENDBRANCH  17  19
ENDBRANCH   1  17
BRANCH  10  20
ATOM     20  C   UNL     1       1.946   7.771  19.595  0.00  0.00    +0.000 C 
BRANCH  20  21
ATOM     21  C   UNL     1       1.152   8.684  20.518  0.00  0.00    +0.000 A 
ATOM     22  C   UNL     1       1.139   8.503  21.912  0.00  0.00    +0.000 A 
ATOM     23  C   UNL     1       0.533   9.424  22.776  0.00  0.00    +0.000 A 
ATOM     24  C   UNL     1      -0.134  10.533  22.273  0.00  0.00    +0.000 A 
ATOM     25  C   UNL     1      -0.238  10.671  20.893  0.00  0.00    +0.000 A 
ATOM     26  C   UNL     1       0.387   9.762  20.018  0.00  0.00    +0.000 A 
BRANCH  24  27
ATOM     27  O   UNL     1      -0.661  11.378  23.210  0.00  0.00    +0.000 OA
ATOM     28  C   UNL     1      -1.890  12.012  22.873  0.00  0.00    +0.000 C 
ENDBRANCH  24  27
BRANCH  26  29
ATOM     29  O   UNL     1       0.015   9.969  18.714  0.00  0.00    +0.000 OA
ATOM     30  C   UNL     1      -1.332  10.314  18.443  0.00  0.00    +0.000 C 
ENDBRANCH  26  29
ENDBRANCH  20  21
ENDBRANCH  10  20
TORSDOF 7
ENDMDL
MODEL 2
REMARK VINA RESULT:      -6.9      4.647      7.871
REMARK  Name = 
REMARK  9 active torsions:
REMARK  status: ('A' for Active; 'I' for Inactive)
REMARK    1  A    between atoms: C_2  and  C_3
REMARK    2  A    between atoms: C_3  and  N_4
REMARK    3  A    between atoms: C_8  and  C_9
REMARK    4  A    between atoms: N_19  and  C_20
REMARK    5  A    between atoms: C_20  and  C_21
REMARK    6  A    between atoms: C_24  and  O_25
REMARK    7  A    between atoms: O_25  and  C_26
REMARK    8  A    between atoms: C_28  and  O_29
REMARK    9  A    between atoms: O_29  and  C_30
REMARK                            x       y       z     vdW  Elec       q    Type
REMARK                         _______ _______ _______ _____ _____    ______ ____
ROOT
ATOM      1  N   UNL     1      -1.072  12.735  19.254  0.00  0.00    +0.000 NA
ATOM      2  C   UNL     1       0.250  12.118  19.046  0.00  0.00    +0.000 C 
ATOM      3  C   UNL     1       1.030  11.769  20.344  0.00  0.00    +0.000 C 
ATOM      4  C   UNL     1       0.247  10.716  21.151  0.00  0.00    +0.000 C 
ATOM      5  C   UNL     1       0.354   9.382  20.978  0.00  0.00    +0.000 C 
ATOM      6  C   UNL     1      -0.690  11.253  22.214  0.00  0.00    +0.000 C 
ATOM      7  C   UNL     1      -1.697  12.301  21.723  0.00  0.00    +0.000 C 
ATOM      8  C   UNL     1      -1.190  13.280  20.637  0.00  0.00    +0.000 C 
ATOM      9  C   UNL     1       0.170  13.917  21.078  0.00  0.00    +0.000 C 
ATOM     10  N   UNL     1       1.294  12.942  21.224  0.00  0.00    +0.000 NA
ENDROOT
BRANCH   5  11
ATOM     11  C   UNL     1       1.196   8.719  19.982  0.00  0.00    +0.000 A 
ATOM     12  C   UNL     1       1.325   9.254  18.696  0.00  0.00    +0.000 A 
ATOM     13  C   UNL     1       2.122   8.614  17.748  0.00  0.00    +0.000 A 
ATOM     14  C   UNL     1       2.804   7.444  18.081  0.00  0.00    +0.000 A 
ATOM     15  C   UNL     1       2.686   6.912  19.365  0.00  0.00    +0.000 A 
ATOM     16  C   UNL     1       1.886   7.551  20.313  0.00  0.00    +0.000 A 
ENDBRANCH   5  11
BRANCH   1  17
ATOM     17  C   UNL     1      -2.191  11.881  18.845  0.00  0.00    +0.000 C 
BRANCH  17  19
ATOM     18  C   UNL     1      -2.623   9.818  17.474  0.00  0.00    +0.000 C 
ATOM     19  C   UNL     1      -1.786  10.768  17.913  0.00  0.00    +0.000 C 
ENDBRANCH  17  19
ENDBRANCH   1  17
BRANCH  10  20
ATOM     20  C   UNL     1       2.574  13.648  20.995  0.00  0.00    +0.000 C 
BRANCH  20  21
ATOM     21  C   UNL     1       2.677  14.761  19.963  0.00  0.00    +0.000 A 
ATOM     22  C   UNL     1       3.011  14.502  18.621  0.00  0.00    +0.000 A 
ATOM     23  C   UNL     1       2.963  15.500  17.638  0.00  0.00    +0.000 A 
ATOM     24  C   UNL     1       2.637  16.808  17.972  0.00  0.00    +0.000 A 
ATOM     25  C   UNL     1       2.422  17.112  19.311  0.00  0.00    +0.000 A 
ATOM     26  C   UNL     1       2.445  16.112  20.302  0.00  0.00    +0.000 A 
BRANCH  24  27
ATOM     27  O   UNL     1       2.594  17.688  16.927  0.00  0.00    +0.000 OA
ATOM     28  C   UNL     1       1.327  18.271  16.641  0.00  0.00    +0.000 C 
ENDBRANCH  24  27
BRANCH  26  29
ATOM     29  O   UNL     1       2.389  16.643  21.566  0.00  0.00    +0.000 OA
ATOM     30  C   UNL     1       3.552  17.258  22.092  0.00  0.00    +0.000 C 
ENDBRANCH  26  29
ENDBRANCH  20  21
ENDBRANCH  10  20
TORSDOF 7
ENDMDL
MODEL 3
REMARK VINA RESULT:      -6.8      3.903     10.208
REMARK  Name = 
REMARK  9 active torsions:
REMARK  status: ('A' for Active; 'I' for Inactive)
REMARK    1  A    between atoms: C_2  and  C_3
REMARK    2  A    between atoms: C_3  and  N_4
REMARK    3  A    between atoms: C_8  and  C_9
REMARK    4  A    between atoms: N_19  and  C_20
REMARK    5  A    between atoms: C_20  and  C_21
REMARK    6  A    between atoms: C_24  and  O_25
REMARK    7  A    between atoms: O_25  and  C_26
REMARK    8  A    between atoms: C_28  and  O_29
REMARK    9  A    between atoms: O_29  and  C_30
REMARK                            x       y       z     vdW  Elec       q    Type
REMARK                         _______ _______ _______ _____ _____    ______ ____
ROOT
ATOM      1  N   UNL     1       0.661  15.293  18.505  0.00  0.00    +0.000 NA
ATOM      2  C   UNL     1      -0.342  14.318  18.970  0.00  0.00    +0.000 C 
ATOM      3  C   UNL     1       0.214  13.164  19.851  0.00  0.00    +0.000 C 
ATOM      4  C   UNL     1       0.805  13.743  21.150  0.00  0.00    +0.000 C 
ATOM      5  C   UNL     1       0.099  13.981  22.275  0.00  0.00    +0.000 C 
ATOM      6  C   UNL     1       2.291  14.044  21.130  0.00  0.00    +0.000 C 
ATOM      7  C   UNL     1       2.757  14.935  19.972  0.00  0.00    +0.000 C 
ATOM      8  C   UNL     1       2.037  14.730  18.618  0.00  0.00    +0.000 C 
ATOM      9  C   UNL     1       2.026  13.212  18.237  0.00  0.00    +0.000 C 
ATOM     10  N   UNL     1       1.258  12.341  19.180  0.00  0.00    +0.000 NA
ENDROOT
BRANCH   5  11
ATOM     11  C   UNL     1      -1.338  13.763  22.438  0.00  0.00    +0.000 A 
ATOM     12  C   UNL     1      -1.822  12.527  22.878  0.00  0.00    +0.000 A 
ATOM     13  C   UNL     1      -3.192  12.321  23.023  0.00  0.00    +0.000 A 
ATOM     14  C   UNL     1      -4.088  13.352  22.742  0.00  0.00    +0.000 A 
ATOM     15  C   UNL     1      -3.612  14.590  22.312  0.00  0.00    +0.000 A 
ATOM     16  C   UNL     1      -2.240  14.795  22.163  0.00  0.00    +0.000 A 
ENDBRANCH   5  11
BRANCH   1  17
ATOM     17  C   UNL     1       0.504  16.626  19.094  0.00  0.00    +0.000 C 
BRANCH  17  19
ATOM     18  C   UNL     1      -1.671  17.620  19.873  0.00  0.00    +0.000 C 
ATOM     19  C   UNL     1      -0.866  17.218  18.879  0.00  0.00    +0.000 C 
ENDBRANCH  17  19
ENDBRANCH   1  17
BRANCH  10  20
ATOM     20  C   UNL     1       0.772  11.152  18.445  0.00  0.00    +0.000 C 
BRANCH  20  21
ATOM     21  C   UNL     1       1.213   9.752  18.848  0.00  0.00    +0.000 A 
ATOM     22  C   UNL     1       1.863   8.890  17.947  0.00  0.00    +0.000 A 
ATOM     23  C   UNL     1       2.401   7.661  18.351  0.00  0.00    +0.000 A 
ATOM     24  C   UNL     1       2.258   7.222  19.661  0.00  0.00    +0.000 A 
ATOM     25  C   UNL     1       1.515   8.002  20.540  0.00  0.00    +0.000 A 
ATOM     26  C   UNL     1       0.991   9.249  20.148  0.00  0.00    +0.000 A 
BRANCH  24  27
ATOM     27  O   UNL     1       2.848   6.023  19.947  0.00  0.00    +0.000 OA
ATOM     28  C   UNL     1       2.064   5.089  20.681  0.00  0.00    +0.000 C 
ENDBRANCH  24  27
BRANCH  26  29
ATOM     29  O   UNL     1       0.147   9.769  21.097  0.00  0.00    +0.000 OA
ATOM     30  C   UNL     1      -0.228   8.950  22.190  0.00  0.00    +0.000 C 
ENDBRANCH  26  29
ENDBRANCH  20  21
ENDBRANCH  10  20
TORSDOF 7
ENDMDL
MODEL 4
REMARK VINA RESULT:      -6.8      3.793     10.415
REMARK  Name = 
REMARK  9 active torsions:
REMARK  status: ('A' for Active; 'I' for Inactive)
REMARK    1  A    between atoms: C_2  and  C_3
REMARK    2  A    between atoms: C_3  and  N_4
REMARK    3  A    between atoms: C_8  and  C_9
REMARK    4  A    between atoms: N_19  and  C_20
REMARK    5  A    between atoms: C_20  and  C_21
REMARK    6  A    between atoms: C_24  and  O_25
REMARK    7  A    between atoms: O_25  and  C_26
REMARK    8  A    between atoms: C_28  and  O_29
REMARK    9  A    between atoms: O_29  and  C_30
REMARK                            x       y       z     vdW  Elec       q    Type
REMARK                         _______ _______ _______ _____ _____    ______ ____
ROOT
ATOM      1  N   UNL     1      -0.060  15.362  18.832  0.00  0.00    +0.000 NA
ATOM      2  C   UNL     1      -0.964  14.351  19.409  0.00  0.00    +0.000 C 
ATOM      3  C   UNL     1      -0.267  13.228  20.226  0.00  0.00    +0.000 C 
ATOM      4  C   UNL     1       0.441  13.840  21.449  0.00  0.00    +0.000 C 
ATOM      5  C   UNL     1      -0.144  14.059  22.645  0.00  0.00    +0.000 C 
ATOM      6  C   UNL     1       1.902  14.199  21.262  0.00  0.00    +0.000 C 
ATOM      7  C   UNL     1       2.200  15.099  20.056  0.00  0.00    +0.000 C 
ATOM      8  C   UNL     1       1.343  14.855  18.792  0.00  0.00    +0.000 C 
ATOM      9  C   UNL     1       1.351  13.335  18.420  0.00  0.00    +0.000 C 
ATOM     10  N   UNL     1       0.728  12.442  19.445  0.00  0.00    +0.000 NA
ENDROOT
BRANCH   5  11
ATOM     11  C   UNL     1      -1.544  13.785  22.968  0.00  0.00    +0.000 A 
ATOM     12  C   UNL     1      -2.473  14.829  23.032  0.00  0.00    +0.000 A 
ATOM     13  C   UNL     1      -3.804  14.565  23.348  0.00  0.00    +0.000 A 
ATOM     14  C   UNL     1      -4.219  13.255  23.591  0.00  0.00    +0.000 A 
ATOM     15  C   UNL     1      -3.300  12.209  23.519  0.00  0.00    +0.000 A 
ATOM     16  C   UNL     1      -1.967  12.475  23.205  0.00  0.00    +0.000 A 
ENDBRANCH   5  11
BRANCH   1  17
ATOM     17  C   UNL     1      -0.203  16.692  19.430  0.00  0.00    +0.000 C 
BRANCH  17  19
ATOM     18  C   UNL     1      -1.707  17.804  21.111  0.00  0.00    +0.000 C 
ATOM     19  C   UNL     1      -1.510  16.883  20.158  0.00  0.00    +0.000 C 
ENDBRANCH  17  19
ENDBRANCH   1  17
BRANCH  10  20
ATOM     20  C   UNL     1       0.212  11.228  18.774  0.00  0.00    +0.000 C 
BRANCH  20  21
ATOM     21  C   UNL     1       0.859   9.871  19.008  0.00  0.00    +0.000 A 
ATOM     22  C   UNL     1       1.564   9.199  17.995  0.00  0.00    +0.000 A 
ATOM     23  C   UNL     1       2.285   8.023  18.245  0.00  0.00    +0.000 A 
ATOM     24  C   UNL     1       2.278   7.444  19.507  0.00  0.00    +0.000 A 
ATOM     25  C   UNL     1       1.491   8.025  20.495  0.00  0.00    +0.000 A 
ATOM     26  C   UNL     1       0.782   9.218  20.259  0.00  0.00    +0.000 A 
BRANCH  24  27
ATOM     27  O   UNL     1       3.040   6.317  19.641  0.00  0.00    +0.000 OA
ATOM     28  C   UNL     1       2.711   5.224  18.790  0.00  0.00    +0.000 C 
ENDBRANCH  24  27
BRANCH  26  29
ATOM     29  O   UNL     1      -0.067   9.522  21.292  0.00  0.00    +0.000 OA
ATOM     30  C   UNL     1       0.456   9.554  22.609  0.00  0.00    +0.000 C 
ENDBRANCH  26  29
ENDBRANCH  20  21
ENDBRANCH  10  20
TORSDOF 7
ENDMDL
MODEL 5
REMARK VINA RESULT:      -6.7      6.300      9.924
REMARK  Name = 
REMARK  9 active torsions:
REMARK  status: ('A' for Active; 'I' for Inactive)
REMARK    1  A    between atoms: C_2  and  C_3
REMARK    2  A    between atoms: C_3  and  N_4
REMARK    3  A    between atoms: C_8  and  C_9
REMARK    4  A    between atoms: N_19  and  C_20
REMARK    5  A    between atoms: C_20  and  C_21
REMARK    6  A    between atoms: C_24  and  O_25
REMARK    7  A    between atoms: O_25  and  C_26
REMARK    8  A    between atoms: C_28  and  O_29
REMARK    9  A    between atoms: O_29  and  C_30
REMARK                            x       y       z     vdW  Elec       q    Type
REMARK                         _______ _______ _______ _____ _____    ______ ____
ROOT
ATOM      1  N   UNL     1       0.703  12.490  18.602  0.00  0.00    +0.000 NA
ATOM      2  C   UNL     1      -0.753  12.713  18.553  0.00  0.00    +0.000 C 
ATOM      3  C   UNL     1      -1.606  11.702  19.368  0.00  0.00    +0.000 C 
ATOM      4  C   UNL     1      -1.259  11.819  20.864  0.00  0.00    +0.000 C 
ATOM      5  C   UNL     1      -1.842  12.682  21.722  0.00  0.00    +0.000 C 
ATOM      6  C   UNL     1      -0.190  10.873  21.375  0.00  0.00    +0.000 C 
ATOM      7  C   UNL     1       1.128  10.898  20.591  0.00  0.00    +0.000 C 
ATOM      8  C   UNL     1       1.010  11.105  19.062  0.00  0.00    +0.000 C 
ATOM      9  C   UNL     1      -0.026  10.099  18.459  0.00  0.00    +0.000 C 
ATOM     10  N   UNL     1      -1.427  10.284  18.948  0.00  0.00    +0.000 NA
ENDROOT
BRANCH   5  11
ATOM     11  C   UNL     1      -2.867  13.665  21.372  0.00  0.00    +0.000 A 
ATOM     12  C   UNL     1      -2.541  15.022  21.268  0.00  0.00    +0.000 A 
ATOM     13  C   UNL     1      -3.522  15.956  20.943  0.00  0.00    +0.000 A 
ATOM     14  C   UNL     1      -4.833  15.540  20.708  0.00  0.00    +0.000 A 
ATOM     15  C   UNL     1      -5.162  14.188  20.801  0.00  0.00    +0.000 A 
ATOM     16  C   UNL     1      -4.180  13.254  21.129  0.00  0.00    +0.000 A 
ENDBRANCH   5  11
BRANCH   1  17
ATOM     17  C   UNL     1       1.436  13.540  19.315  0.00  0.00    +0.000 C 
BRANCH  17  19
ATOM     18  C   UNL     1       1.022  15.859  20.195  0.00  0.00    +0.000 C 
ATOM     19  C   UNL     1       0.700  14.854  19.369  0.00  0.00    +0.000 C 
ENDBRANCH  17  19
ENDBRANCH   1  17
BRANCH  10  20
ATOM     20  C   UNL     1      -2.364   9.792  17.914  0.00  0.00    +0.000 C 
BRANCH  20  21
ATOM     21  C   UNL     1      -3.684  10.503  17.655  0.00  0.00    +0.000 A 
ATOM     22  C   UNL     1      -4.758  10.429  18.559  0.00  0.00    +0.000 A 
ATOM     23  C   UNL     1      -5.919  11.197  18.399  0.00  0.00    +0.000 A 
ATOM     24  C   UNL     1      -6.072  12.026  17.295  0.00  0.00    +0.000 A 
ATOM     25  C   UNL     1      -5.076  12.025  16.326  0.00  0.00    +0.000 A 
ATOM     26  C   UNL     1      -3.897  11.273  16.490  0.00  0.00    +0.000 A 
BRANCH  24  27
ATOM     27  O   UNL     1      -7.232  12.750  17.260  0.00  0.00    +0.000 OA
ATOM     28  C   UNL     1      -7.130  14.087  16.782  0.00  0.00    +0.000 C 
ENDBRANCH  24  27
BRANCH  26  29
ATOM     29  O   UNL     1      -3.132  11.267  15.351  0.00  0.00    +0.000 OA
ATOM     30  C   UNL     1      -3.275  10.186  14.447  0.00  0.00    +0.000 C 
ENDBRANCH  26  29
ENDBRANCH  20  21
ENDBRANCH  10  20
TORSDOF 7
ENDMDL
MODEL 6
REMARK VINA RESULT:      -6.6      4.007     10.442
REMARK  Name = 
REMARK  9 active torsions:
REMARK  status: ('A' for Active; 'I' for Inactive)
REMARK    1  A    between atoms: C_2  and  C_3
REMARK    2  A    between atoms: C_3  and  N_4
REMARK    3  A    between atoms: C_8  and  C_9
REMARK    4  A    between atoms: N_19  and  C_20
REMARK    5  A    between atoms: C_20  and  C_21
REMARK    6  A    between atoms: C_24  and  O_25
REMARK    7  A    between atoms: O_25  and  C_26
REMARK    8  A    between atoms: C_28  and  O_29
REMARK    9  A    between atoms: O_29  and  C_30
REMARK                            x       y       z     vdW  Elec       q    Type
REMARK                         _______ _______ _______ _____ _____    ______ ____
ROOT
ATOM      1  N   UNL     1       0.263  15.065  18.624  0.00  0.00    +0.000 NA
ATOM      2  C   UNL     1      -0.772  14.183  19.194  0.00  0.00    +0.000 C 
ATOM      3  C   UNL     1      -0.249  13.088  20.165  0.00  0.00    +0.000 C 
ATOM      4  C   UNL     1       0.399  13.751  21.394  0.00  0.00    +0.000 C 
ATOM      5  C   UNL     1      -0.269  14.122  22.507  0.00  0.00    +0.000 C 
ATOM      6  C   UNL     1       1.896  13.978  21.318  0.00  0.00    +0.000 C 
ATOM      7  C   UNL     1       2.375  14.740  20.076  0.00  0.00    +0.000 C 
ATOM      8  C   UNL     1       1.614  14.449  18.760  0.00  0.00    +0.000 C 
ATOM      9  C   UNL     1       1.526  12.905  18.518  0.00  0.00    +0.000 C 
ATOM     10  N   UNL     1       0.741  12.160  19.550  0.00  0.00    +0.000 NA
ENDROOT
BRANCH   5  11
ATOM     11  C   UNL     1      -1.710  13.987  22.716  0.00  0.00    +0.000 A 
ATOM     12  C   UNL     1      -2.249  12.786  23.190  0.00  0.00    +0.000 A 
ATOM     13  C   UNL     1      -3.623  12.660  23.379  0.00  0.00    +0.000 A 
ATOM     14  C   UNL     1      -4.468  13.736  23.110  0.00  0.00    +0.000 A 
ATOM     15  C   UNL     1      -3.937  14.939  22.647  0.00  0.00    +0.000 A 
ATOM     16  C   UNL     1      -2.561  15.064  22.454  0.00  0.00    +0.000 A 
ENDBRANCH   5  11
BRANCH   1  17
ATOM     17  C   UNL     1       0.181  16.450  19.094  0.00  0.00    +0.000 C 
BRANCH  17  19
ATOM     18  C   UNL     1      -0.031  18.421  17.547  0.00  0.00    +0.000 C 
ATOM     19  C   UNL     1       0.711  17.452  18.100  0.00  0.00    +0.000 C 
ENDBRANCH  17  19
ENDBRANCH   1  17
BRANCH  10  20
ATOM     20  C   UNL     1       0.184  10.934  18.935  0.00  0.00    +0.000 C 
BRANCH  20  21
ATOM     21  C   UNL     1       0.962   9.627  18.958  0.00  0.00    +0.000 A 
ATOM     22  C   UNL     1       1.637   9.142  17.824  0.00  0.00    +0.000 A 
ATOM     23  C   UNL     1       2.474   8.020  17.879  0.00  0.00    +0.000 A 
ATOM     24  C   UNL     1       2.620   7.304  19.060  0.00  0.00    +0.000 A 
ATOM     25  C   UNL     1       1.869   7.692  20.164  0.00  0.00    +0.000 A 
ATOM     26  C   UNL     1       1.044   8.832  20.124  0.00  0.00    +0.000 A 
BRANCH  24  27
ATOM     27  O   UNL     1       3.483   6.246  19.003  0.00  0.00    +0.000 OA
ATOM     28  C   UNL     1       3.408   5.427  17.841  0.00  0.00    +0.000 C 
ENDBRANCH  24  27
BRANCH  26  29
ATOM     29  O   UNL     1       0.260   8.936  21.244  0.00  0.00    +0.000 OA
ATOM     30  C   UNL     1       0.812   9.538  22.402  0.00  0.00    +0.000 C 
ENDBRANCH  26  29
ENDBRANCH  20  21
ENDBRANCH  10  20
TORSDOF 7
ENDMDL
MODEL 7
REMARK VINA RESULT:      -6.5      5.294     10.755
REMARK  Name = 
REMARK  9 active torsions:
REMARK  status: ('A' for Active; 'I' for Inactive)
REMARK    1  A    between atoms: C_2  and  C_3
REMARK    2  A    between atoms: C_3  and  N_4
REMARK    3  A    between atoms: C_8  and  C_9
REMARK    4  A    between atoms: N_19  and  C_20
REMARK    5  A    between atoms: C_20  and  C_21
REMARK    6  A    between atoms: C_24  and  O_25
REMARK    7  A    between atoms: O_25  and  C_26
REMARK    8  A    between atoms: C_28  and  O_29
REMARK    9  A    between atoms: O_29  and  C_30
REMARK                            x       y       z     vdW  Elec       q    Type
REMARK                         _______ _______ _______ _____ _____    ______ ____
ROOT
ATOM      1  N   UNL     1      -4.848  15.765  21.656  0.00  0.00    +0.000 NA
ATOM      2  C   UNL     1      -3.969  14.836  20.923  0.00  0.00    +0.000 C 
ATOM      3  C   UNL     1      -3.885  13.400  21.511  0.00  0.00    +0.000 C 
ATOM      4  C   UNL     1      -5.271  12.733  21.450  0.00  0.00    +0.000 C 
ATOM      5  C   UNL     1      -5.745  12.045  20.390  0.00  0.00    +0.000 C 
ATOM      6  C   UNL     1      -6.132  12.869  22.690  0.00  0.00    +0.000 C 
ATOM      7  C   UNL     1      -6.332  14.306  23.187  0.00  0.00    +0.000 C 
ATOM      8  C   UNL     1      -5.123  15.258  23.032  0.00  0.00    +0.000 C 
ATOM      9  C   UNL     1      -3.835  14.595  23.624  0.00  0.00    +0.000 C 
ATOM     10  N   UNL     1      -3.397  13.352  22.918  0.00  0.00    +0.000 NA
ENDROOT
BRANCH   5  11
ATOM     11  C   UNL     1      -5.043  11.849  19.122  0.00  0.00    +0.000 A 
ATOM     12  C   UNL     1      -3.674  11.557  19.108  0.00  0.00    +0.000 A 
ATOM     13  C   UNL     1      -3.007  11.380  17.898  0.00  0.00    +0.000 A 
ATOM     14  C   UNL     1      -3.704  11.479  16.694  0.00  0.00    +0.000 A 
ATOM     15  C   UNL     1      -5.070  11.760  16.701  0.00  0.00    +0.000 A 
ATOM     16  C   UNL     1      -5.737  11.941  17.913  0.00  0.00    +0.000 A 
ENDBRANCH   5  11
BRANCH   1  17
ATOM     17  C   UNL     1      -6.045  16.158  20.908  0.00  0.00    +0.000 C 
BRANCH  17  19
ATOM     18  C   UNL     1      -7.040  15.233  18.791  0.00  0.00    +0.000 C 
ATOM     19  C   UNL     1      -6.001  15.759  19.455  0.00  0.00    +0.000 C 
ENDBRANCH  17  19
ENDBRANCH   1  17
BRANCH  10  20
ATOM     20  C   UNL     1      -1.936  13.192  23.091  0.00  0.00    +0.000 C 
BRANCH  20  21
ATOM     21  C   UNL     1      -1.218  11.958  22.565  0.00  0.00    +0.000 A 
ATOM     22  C   UNL     1      -1.155  10.763  23.303  0.00  0.00    +0.000 A 
ATOM     23  C   UNL     1      -0.626   9.583  22.764  0.00  0.00    +0.000 A 
ATOM     24  C   UNL     1      -0.084   9.570  21.485  0.00  0.00    +0.000 A 
ATOM     25  C   UNL     1      -0.025  10.767  20.782  0.00  0.00    +0.000 A 
ATOM     26  C   UNL     1      -0.576  11.952  21.307  0.00  0.00    +0.000 A 
BRANCH  24  27
ATOM     27  O   UNL     1       0.375   8.357  21.054  0.00  0.00    +0.000 OA
ATOM     28  C   UNL     1       1.624   8.358  20.371  0.00  0.00    +0.000 C 
ENDBRANCH  24  27
BRANCH  26  29
ATOM     29  O   UNL     1      -0.255  13.046  20.544  0.00  0.00    +0.000 OA
ATOM     30  C   UNL     1       0.993  13.679  20.761  0.00  0.00    +0.000 C 
ENDBRANCH  26  29
ENDBRANCH  20  21
ENDBRANCH  10  20
TORSDOF 7
ENDMDL
MODEL 8
REMARK VINA RESULT:      -6.5      5.769     11.466
REMARK  Name = 
REMARK  9 active torsions:
REMARK  status: ('A' for Active; 'I' for Inactive)
REMARK    1  A    between atoms: C_2  and  C_3
REMARK    2  A    between atoms: C_3  and  N_4
REMARK    3  A    between atoms: C_8  and  C_9
REMARK    4  A    between atoms: N_19  and  C_20
REMARK    5  A    between atoms: C_20  and  C_21
REMARK    6  A    between atoms: C_24  and  O_25
REMARK    7  A    between atoms: O_25  and  C_26
REMARK    8  A    between atoms: C_28  and  O_29
REMARK    9  A    between atoms: O_29  and  C_30
REMARK                            x       y       z     vdW  Elec       q    Type
REMARK                         _______ _______ _______ _____ _____    ______ ____
ROOT
ATOM      1  N   UNL     1      -1.893  15.452  22.448  0.00  0.00    +0.000 NA
ATOM      2  C   UNL     1      -2.407  15.062  21.123  0.00  0.00    +0.000 C 
ATOM      3  C   UNL     1      -2.745  13.554  20.960  0.00  0.00    +0.000 C 
ATOM      4  C   UNL     1      -3.879  13.170  21.930  0.00  0.00    +0.000 C 
ATOM      5  C   UNL     1      -5.195  13.280  21.653  0.00  0.00    +0.000 C 
ATOM      6  C   UNL     1      -3.447  12.622  23.276  0.00  0.00    +0.000 C 
ATOM      7  C   UNL     1      -2.456  13.503  24.048  0.00  0.00    +0.000 C 
ATOM      8  C   UNL     1      -1.407  14.258  23.198  0.00  0.00    +0.000 C 
ATOM      9  C   UNL     1      -0.690  13.268  22.220  0.00  0.00    +0.000 C 
ATOM     10  N   UNL     1      -1.588  12.646  21.199  0.00  0.00    +0.000 NA
ENDROOT
BRANCH   5  11
ATOM     11  C   UNL     1      -5.761  13.809  20.413  0.00  0.00    +0.000 A 
ATOM     12  C   UNL     1      -6.082  15.167  20.303  0.00  0.00    +0.000 A 
ATOM     13  C   UNL     1      -6.629  15.664  19.122  0.00  0.00    +0.000 A 
ATOM     14  C   UNL     1      -6.847  14.813  18.039  0.00  0.00    +0.000 A 
ATOM     15  C   UNL     1      -6.520  13.461  18.139  0.00  0.00    +0.000 A 
ATOM     16  C   UNL     1      -5.976  12.963  19.322  0.00  0.00    +0.000 A 
ENDBRANCH   5  11
BRANCH   1  17
ATOM     17  C   UNL     1      -2.809  16.308  23.206  0.00  0.00    +0.000 C 
BRANCH  17  19
ATOM     18  C   UNL     1      -4.930  17.569  22.719  0.00  0.00    +0.000 C 
ATOM     19  C   UNL     1      -3.725  17.127  22.332  0.00  0.00    +0.000 C 
ENDBRANCH  17  19
ENDBRANCH   1  17
BRANCH  10  20
ATOM     20  C   UNL     1      -0.786  12.293  20.007  0.00  0.00    +0.000 C 
BRANCH  20  21
ATOM     21  C   UNL     1      -1.373  11.433  18.897  0.00  0.00    +0.000 A 
ATOM     22  C   UNL     1      -2.657  11.670  18.374  0.00  0.00    +0.000 A 
ATOM     23  C   UNL     1      -3.143  10.978  17.257  0.00  0.00    +0.000 A 
ATOM     24  C   UNL     1      -2.385   9.981  16.657  0.00  0.00    +0.000 A 
ATOM     25  C   UNL     1      -1.164   9.646  17.229  0.00  0.00    +0.000 A 
ATOM     26  C   UNL     1      -0.657  10.351  18.338  0.00  0.00    +0.000 A 
BRANCH  24  27
ATOM     27  O   UNL     1      -2.949   9.396  15.557  0.00  0.00    +0.000 OA
ATOM     28  C   UNL     1      -3.442  10.276  14.553  0.00  0.00    +0.000 C 
ENDBRANCH  24  27
BRANCH  26  29
ATOM     29  O   UNL     1       0.463   9.753  18.856  0.00  0.00    +0.000 OA
ATOM     30  C   UNL     1       1.665   9.809  18.109  0.00  0.00    +0.000 C 
ENDBRANCH  26  29
ENDBRANCH  20  21
ENDBRANCH  10  20
TORSDOF 7
ENDMDL
MODEL 9
REMARK VINA RESULT:      -6.5      3.729      9.637
REMARK  Name = 
REMARK  9 active torsions:
REMARK  status: ('A' for Active; 'I' for Inactive)
REMARK    1  A    between atoms: C_2  and  C_3
REMARK    2  A    between atoms: C_3  and  N_4
REMARK    3  A    between atoms: C_8  and  C_9
REMARK    4  A    between atoms: N_19  and  C_20
REMARK    5  A    between atoms: C_20  and  C_21
REMARK    6  A    between atoms: C_24  and  O_25
REMARK    7  A    between atoms: O_25  and  C_26
REMARK    8  A    between atoms: C_28  and  O_29
REMARK    9  A    between atoms: O_29  and  C_30
REMARK                            x       y       z     vdW  Elec       q    Type
REMARK                         _______ _______ _______ _____ _____    ______ ____
ROOT
ATOM      1  N   UNL     1       0.300  14.589  19.190  0.00  0.00    +0.000 NA
ATOM      2  C   UNL     1      -0.336  13.531  18.385  0.00  0.00    +0.000 C 
ATOM      3  C   UNL     1      -0.440  12.143  19.078  0.00  0.00    +0.000 C 
ATOM      4  C   UNL     1      -1.333  12.253  20.328  0.00  0.00    +0.000 C 
ATOM      5  C   UNL     1      -2.676  12.118  20.325  0.00  0.00    +0.000 C 
ATOM      6  C   UNL     1      -0.617  12.521  21.637  0.00  0.00    +0.000 C 
ATOM      7  C   UNL     1       0.318  13.736  21.629  0.00  0.00    +0.000 C 
ATOM      8  C   UNL     1       1.087  13.999  20.312  0.00  0.00    +0.000 C 
ATOM      9  C   UNL     1       1.801  12.691  19.834  0.00  0.00    +0.000 C 
ATOM     10  N   UNL     1       0.875  11.571  19.483  0.00  0.00    +0.000 NA
ENDROOT
BRANCH   5  11
ATOM     11  C   UNL     1      -3.503  11.881  19.143  0.00  0.00    +0.000 A 
ATOM     12  C   UNL     1      -4.737  12.526  19.000  0.00  0.00    +0.000 A 
ATOM     13  C   UNL     1      -5.526  12.291  17.876  0.00  0.00    +0.000 A 
ATOM     14  C   UNL     1      -5.083  11.420  16.881  0.00  0.00    +0.000 A 
ATOM     15  C   UNL     1      -3.850  10.782  17.012  0.00  0.00    +0.000 A 
ATOM     16  C   UNL     1      -3.062  11.015  18.139  0.00  0.00    +0.000 A 
ENDBRANCH   5  11
BRANCH   1  17
ATOM     17  C   UNL     1      -0.620  15.656  19.594  0.00  0.00    +0.000 C 
BRANCH  17  19
ATOM     18  C   UNL     1      -0.653  17.440  17.823  0.00  0.00    +0.000 C 
ATOM     19  C   UNL     1      -0.258  17.005  19.028  0.00  0.00    +0.000 C 
ENDBRANCH  17  19
ENDBRANCH   1  17
BRANCH  10  20
ATOM     20  C   UNL     1       1.535  10.698  18.487  0.00  0.00    +0.000 C 
BRANCH  20  21
ATOM     21  C   UNL     1       1.719   9.211  18.754  0.00  0.00    +0.000 A 
ATOM     22  C   UNL     1       2.074   8.311  17.734  0.00  0.00    +0.000 A 
ATOM     23  C   UNL     1       2.387   6.971  18.000  0.00  0.00    +0.000 A 
ATOM     24  C   UNL     1       2.300   6.467  19.291  0.00  0.00    +0.000 A 
ATOM     25  C   UNL     1       1.835   7.306  20.297  0.00  0.00    +0.000 A 
ATOM     26  C   UNL     1       1.540   8.660  20.042  0.00  0.00    +0.000 A 
BRANCH  24  27
ATOM     27  O   UNL     1       2.658   5.156  19.436  0.00  0.00    +0.000 OA
ATOM     28  C   UNL     1       3.724   4.695  18.612  0.00  0.00    +0.000 C 
ENDBRANCH  24  27
BRANCH  26  29
ATOM     29  O   UNL     1       0.930   9.260  21.114  0.00  0.00    +0.000 OA
ATOM     30  C   UNL     1      -0.269   8.695  21.613  0.00  0.00    +0.000 C 
ENDBRANCH  26  29
ENDBRANCH  20  21
ENDBRANCH  10  20
TORSDOF 7
ENDMDL
