MODEL 1
REMARK VINA RESULT:      -8.5      0.000      0.000
REMARK  Name = 
REMARK  7 active torsions:
REMARK  status: ('A' for Active; 'I' for Inactive)
REMARK    1  A    between atoms: C_1  and  C_2
REMARK    2  A    between atoms: C_2  and  C_3
REMARK    3  A    between atoms: C_2  and  O_4
REMARK    4  A    between atoms: O_4  and  C_5
REMARK    5  A    between atoms: C_9  and  N_10
REMARK    6  A    between atoms: C_11  and  C_13
REMARK    7  A    between atoms: C_18  and  C_19
REMARK                            x       y       z     vdW  Elec       q    Type
REMARK                         _______ _______ _______ _____ _____    ______ ____
ROOT
ATOM      1  C   UNL     1       2.932   5.444  19.283  0.00  0.00    +0.000 A 
ATOM      2  C   UNL     1       2.360   4.389  18.555  0.00  0.00    +0.000 A 
ATOM      3  C   UNL     1       3.113   3.702  17.609  0.00  0.00    +0.000 A 
ATOM      4  C   UNL     1       4.461   4.031  17.431  0.00  0.00    +0.000 A 
ATOM      5  C   UNL     1       5.197   3.608  16.318  0.00  0.00    +0.000 A 
ATOM      6  C   UNL     1       6.480   4.130  16.155  0.00  0.00    +0.000 A 
ATOM      7  C   UNL     1       7.198   4.373  17.319  0.00  0.00    +0.000 A 
ATOM      8  C   UNL     1       6.489   4.935  18.371  0.00  0.00    +0.000 A 
ATOM      9  C   UNL     1       5.089   4.891  18.358  0.00  0.00    +0.000 A 
ATOM     10  C   UNL     1       4.307   5.667  19.224  0.00  0.00    +0.000 A 
ENDROOT
BRANCH   6  11
ATOM     11  C   UNL     1       6.564   5.359  15.245  0.00  0.00    +0.000 C 
ATOM     12  N   UNL     1       7.500   5.551  14.367  0.00  0.00    +0.000 NA
ATOM     13  N   UNL     1       5.549   6.264  15.214  0.00  0.00    +0.000 N 
ATOM     14  H   UNL     1       8.179   4.787  14.354  0.00  0.00    +0.000 HD
ATOM     15  H   UNL     1       4.942   6.417  16.004  0.00  0.00    +0.000 HD
ATOM     16  H   UNL     1       5.667   7.029  14.561  0.00  0.00    +0.000 HD
ENDBRANCH   6  11
BRANCH   1  18
ATOM     17  N   UNL     1       2.204   7.609  20.153  0.00  0.00    +0.000 N 
ATOM     18  C   UNL     1       2.038   6.235  20.152  0.00  0.00    +0.000 C 
ATOM     19  O   UNL     1       1.191   5.587  20.768  0.00  0.00    +0.000 OA
ATOM     20  H   UNL     1       2.953   7.993  19.583  0.00  0.00    +0.000 HD
BRANCH  17  25
ATOM     21  C   UNL     1      -0.387  10.273  20.515  0.00  0.00    +0.000 A 
ATOM     22  C   UNL     1      -0.481  10.395  21.902  0.00  0.00    +0.000 A 
ATOM     23  C   UNL     1       0.308   9.589  22.733  0.00  0.00    +0.000 A 
ATOM     24  C   UNL     1       1.204   8.681  22.162  0.00  0.00    +0.000 A 
ATOM     25  C   UNL     1       1.330   8.554  20.774  0.00  0.00    +0.000 A 
ATOM     26  C   UNL     1       0.536   9.375  19.954  0.00  0.00    +0.000 A 
BRANCH  21  27
ATOM     27  O   UNL     1      -1.193  11.118  19.808  0.00  0.00    +0.000 OA
BRANCH  27  29
ATOM     28  C   UNL     1      -2.015  10.727  17.596  0.00  0.00    +0.000 C 
ATOM     29  C   UNL     1      -0.874  11.312  18.425  0.00  0.00    +0.000 C 
ATOM     30  C   UNL     1      -0.750  12.810  18.177  0.00  0.00    +0.000 C 
ENDBRANCH  27  29
ENDBRANCH  21  27
ENDBRANCH  17  25
ENDBRANCH   1  18
TORSDOF 5
ENDMDL
MODEL 2
REMARK VINA RESULT:      -8.4      1.976      2.363
REMARK  Name = 
REMARK  7 active torsions:
REMARK  status: ('A' for Active; 'I' for Inactive)
REMARK    1  A    between atoms: C_1  and  C_2
REMARK    2  A    between atoms: C_2  and  C_3
REMARK    3  A    between atoms: C_2  and  O_4
REMARK    4  A    between atoms: O_4  and  C_5
REMARK    5  A    between atoms: C_9  and  N_10
REMARK    6  A    between atoms: C_11  and  C_13
REMARK    7  A    between atoms: C_18  and  C_19
REMARK                            x       y       z     vdW  Elec       q    Type
REMARK                         _______ _______ _______ _____ _____    ______ ____
ROOT
ATOM      1  C   UNL     1       3.151   6.584  18.326  0.00  0.00    +0.000 A 
ATOM      2  C   UNL     1       2.547   5.325  18.190  0.00  0.00    +0.000 A 
ATOM      3  C   UNL     1       3.248   4.271  17.612  0.00  0.00    +0.000 A 
ATOM      4  C   UNL     1       4.577   4.460  17.221  0.00  0.00    +0.000 A 
ATOM      5  C   UNL     1       5.246   3.567  16.377  0.00  0.00    +0.000 A 
ATOM      6  C   UNL     1       6.510   3.937  15.916  0.00  0.00    +0.000 A 
ATOM      7  C   UNL     1       7.297   4.668  16.797  0.00  0.00    +0.000 A 
ATOM      8  C   UNL     1       6.649   5.657  17.523  0.00  0.00    +0.000 A 
ATOM      9  C   UNL     1       5.252   5.636  17.619  0.00  0.00    +0.000 A 
ATOM     10  C   UNL     1       4.517   6.733  18.087  0.00  0.00    +0.000 A 
ENDROOT
BRANCH   6  11
ATOM     11  C   UNL     1       6.520   4.620  14.545  0.00  0.00    +0.000 C 
ATOM     12  N   UNL     1       7.472   5.397  14.128  0.00  0.00    +0.000 NA
ATOM     13  N   UNL     1       5.571   4.320  13.618  0.00  0.00    +0.000 N 
ATOM     14  H   UNL     1       8.215   5.503  14.821  0.00  0.00    +0.000 HD
ATOM     15  H   UNL     1       4.651   4.000  13.877  0.00  0.00    +0.000 HD
ATOM     16  H   UNL     1       5.670   4.789  12.727  0.00  0.00    +0.000 HD
ENDBRANCH   6  11
BRANCH   1  18
ATOM     17  N   UNL     1       1.978   8.682  17.879  0.00  0.00    +0.000 N 
ATOM     18  C   UNL     1       2.304   7.698  18.797  0.00  0.00    +0.000 C 
ATOM     19  O   UNL     1       1.930   7.619  19.967  0.00  0.00    +0.000 OA
ATOM     20  H   UNL     1       2.368   8.601  16.944  0.00  0.00    +0.000 HD
BRANCH  17  25
ATOM     21  C   UNL     1      -1.293  10.479  17.969  0.00  0.00    +0.000 A 
ATOM     22  C   UNL     1      -0.930  11.710  18.518  0.00  0.00    +0.000 A 
ATOM     23  C   UNL     1       0.403  11.954  18.872  0.00  0.00    +0.000 A 
ATOM     24  C   UNL     1       1.367  10.966  18.650  0.00  0.00    +0.000 A 
ATOM     25  C   UNL     1       1.030   9.732  18.084  0.00  0.00    +0.000 A 
ATOM     26  C   UNL     1      -0.311   9.505  17.727  0.00  0.00    +0.000 A 
BRANCH  21  27
ATOM     27  O   UNL     1      -2.616  10.360  17.650  0.00  0.00    +0.000 OA
BRANCH  27  29
ATOM     28  C   UNL     1      -3.047  10.430  15.299  0.00  0.00    +0.000 C 
ATOM     29  C   UNL     1      -3.111  11.210  16.609  0.00  0.00    +0.000 C 
ATOM     30  C   UNL     1      -4.553  11.572  16.943  0.00  0.00    +0.000 C 
ENDBRANCH  27  29
ENDBRANCH  21  27
ENDBRANCH  17  25
ENDBRANCH   1  18
TORSDOF 5
ENDMDL
MODEL 3
REMARK VINA RESULT:      -8.3      1.752      2.151
REMARK  Name = 
REMARK  7 active torsions:
REMARK  status: ('A' for Active; 'I' for Inactive)
REMARK    1  A    between atoms: C_1  and  C_2
REMARK    2  A    between atoms: C_2  and  C_3
REMARK    3  A    between atoms: C_2  and  O_4
REMARK    4  A    between atoms: O_4  and  C_5
REMARK    5  A    between atoms: C_9  and  N_10
REMARK    6  A    between atoms: C_11  and  C_13
REMARK    7  A    between atoms: C_18  and  C_19
REMARK                            x       y       z     vdW  Elec       q    Type
REMARK                         _______ _______ _______ _____ _____    ______ ____
ROOT
ATOM      1  C   UNL     1       2.999   7.290  17.948  0.00  0.00    +0.000 A 
ATOM      2  C   UNL     1       2.392   6.032  18.078  0.00  0.00    +0.000 A 
ATOM      3  C   UNL     1       3.107   4.876  17.780  0.00  0.00    +0.000 A 
ATOM      4  C   UNL     1       4.451   4.974  17.406  0.00  0.00    +0.000 A 
ATOM      5  C   UNL     1       5.144   3.914  16.811  0.00  0.00    +0.000 A 
ATOM      6  C   UNL     1       6.426   4.173  16.325  0.00  0.00    +0.000 A 
ATOM      7  C   UNL     1       7.185   5.085  17.047  0.00  0.00    +0.000 A 
ATOM      8  C   UNL     1       6.518   6.212  17.506  0.00  0.00    +0.000 A 
ATOM      9  C   UNL     1       5.118   6.211  17.552  0.00  0.00    +0.000 A 
ATOM     10  C   UNL     1       4.373   7.383  17.732  0.00  0.00    +0.000 A 
ENDROOT
BRANCH   6  11
ATOM     11  C   UNL     1       6.491   4.528  14.837  0.00  0.00    +0.000 C 
ATOM     12  N   UNL     1       5.559   4.243  13.980  0.00  0.00    +0.000 NA
ATOM     13  N   UNL     1       7.497   5.309  14.358  0.00  0.00    +0.000 N 
ATOM     14  H   UNL     1       4.775   3.752  14.413  0.00  0.00    +0.000 HD
ATOM     15  H   UNL     1       8.403   5.347  14.799  0.00  0.00    +0.000 HD
ATOM     16  H   UNL     1       7.447   5.525  13.370  0.00  0.00    +0.000 HD
ENDBRANCH   6  11
BRANCH   1  18
ATOM     17  N   UNL     1       1.382   8.553  19.277  0.00  0.00    +0.000 N 
ATOM     18  C   UNL     1       2.142   8.480  18.122  0.00  0.00    +0.000 C 
ATOM     19  O   UNL     1       2.221   9.324  17.229  0.00  0.00    +0.000 OA
ATOM     20  H   UNL     1       1.430   7.770  19.922  0.00  0.00    +0.000 HD
BRANCH  17  25
ATOM     21  C   UNL     1      -1.143  11.304  19.270  0.00  0.00    +0.000 A 
ATOM     22  C   UNL     1      -0.930  11.892  20.517  0.00  0.00    +0.000 A 
ATOM     23  C   UNL     1       0.047  11.377  21.379  0.00  0.00    +0.000 A 
ATOM     24  C   UNL     1       0.822  10.287  20.970  0.00  0.00    +0.000 A 
ATOM     25  C   UNL     1       0.640   9.693  19.716  0.00  0.00    +0.000 A 
ATOM     26  C   UNL     1      -0.340  10.226  18.860  0.00  0.00    +0.000 A 
BRANCH  21  27
ATOM     27  O   UNL     1      -2.111  11.898  18.512  0.00  0.00    +0.000 OA
BRANCH  27  29
ATOM     28  C   UNL     1      -4.451  11.559  18.158  0.00  0.00    +0.000 C 
ATOM     29  C   UNL     1      -3.049  11.031  17.864  0.00  0.00    +0.000 C 
ATOM     30  C   UNL     1      -2.769  11.070  16.366  0.00  0.00    +0.000 C 
ENDBRANCH  27  29
ENDBRANCH  21  27
ENDBRANCH  17  25
ENDBRANCH   1  18
TORSDOF 5
ENDMDL
MODEL 4
REMARK VINA RESULT:      -8.3      2.820      4.180
REMARK  Name = 
REMARK  7 active torsions:
REMARK  status: ('A' for Active; 'I' for Inactive)
REMARK    1  A    between atoms: C_1  and  C_2
REMARK    2  A    between atoms: C_2  and  C_3
REMARK    3  A    between atoms: C_2  and  O_4
REMARK    4  A    between atoms: O_4  and  C_5
REMARK    5  A    between atoms: C_9  and  N_10
REMARK    6  A    between atoms: C_11  and  C_13
REMARK    7  A    between atoms: C_18  and  C_19
REMARK                            x       y       z     vdW  Elec       q    Type
REMARK                         _______ _______ _______ _____ _____    ______ ____
ROOT
ATOM      1  C   UNL     1       1.709   7.609  20.134  0.00  0.00    +0.000 A 
ATOM      2  C   UNL     1       2.104   7.900  18.819  0.00  0.00    +0.000 A 
ATOM      3  C   UNL     1       2.578   6.887  17.990  0.00  0.00    +0.000 A 
ATOM      4  C   UNL     1       2.601   5.570  18.458  0.00  0.00    +0.000 A 
ATOM      5  C   UNL     1       3.325   4.558  17.817  0.00  0.00    +0.000 A 
ATOM      6  C   UNL     1       3.417   3.323  18.458  0.00  0.00    +0.000 A 
ATOM      7  C   UNL     1       2.304   2.924  19.188  0.00  0.00    +0.000 A 
ATOM      8  C   UNL     1       1.681   3.907  19.943  0.00  0.00    +0.000 A 
ATOM      9  C   UNL     1       1.943   5.255  19.668  0.00  0.00    +0.000 A 
ATOM     10  C   UNL     1       1.581   6.284  20.547  0.00  0.00    +0.000 A 
ENDROOT
BRANCH   6  11
ATOM     11  C   UNL     1       4.674   3.133  19.312  0.00  0.00    +0.000 C 
ATOM     12  N   UNL     1       4.870   2.123  20.103  0.00  0.00    +0.000 NA
ATOM     13  N   UNL     1       5.738   3.968  19.167  0.00  0.00    +0.000 N 
ATOM     14  H   UNL     1       4.087   1.468  20.092  0.00  0.00    +0.000 HD
ATOM     15  H   UNL     1       5.634   4.919  18.849  0.00  0.00    +0.000 HD
ATOM     16  H   UNL     1       6.542   3.753  19.744  0.00  0.00    +0.000 HD
ENDBRANCH   6  11
BRANCH   1  18
ATOM     17  N   UNL     1       0.821   9.870  20.413  0.00  0.00    +0.000 N 
ATOM     18  C   UNL     1       1.371   8.748  21.010  0.00  0.00    +0.000 C 
ATOM     19  O   UNL     1       1.575   8.570  22.212  0.00  0.00    +0.000 OA
ATOM     20  H   UNL     1       0.714   9.860  19.403  0.00  0.00    +0.000 HD
BRANCH  17  25
ATOM     21  C   UNL     1      -1.386  11.833  22.697  0.00  0.00    +0.000 A 
ATOM     22  C   UNL     1      -0.868  13.121  22.560  0.00  0.00    +0.000 A 
ATOM     23  C   UNL     1       0.225  13.351  21.715  0.00  0.00    +0.000 A 
ATOM     24  C   UNL     1       0.776  12.288  20.994  0.00  0.00    +0.000 A 
ATOM     25  C   UNL     1       0.261  10.991  21.101  0.00  0.00    +0.000 A 
ATOM     26  C   UNL     1      -0.841  10.777  21.947  0.00  0.00    +0.000 A 
BRANCH  21  27
ATOM     27  O   UNL     1      -2.458  11.731  23.536  0.00  0.00    +0.000 OA
BRANCH  27  29
ATOM     28  C   UNL     1      -4.174  12.626  22.131  0.00  0.00    +0.000 C 
ATOM     29  C   UNL     1      -3.440  12.771  23.462  0.00  0.00    +0.000 C 
ATOM     30  C   UNL     1      -4.408  12.588  24.625  0.00  0.00    +0.000 C 
ENDBRANCH  27  29
ENDBRANCH  21  27
ENDBRANCH  17  25
ENDBRANCH   1  18
TORSDOF 5
ENDMDL
MODEL 5
REMARK VINA RESULT:      -8.2      2.743      9.050
REMARK  Name = 
REMARK  7 active torsions:
REMARK  status: ('A' for Active; 'I' for Inactive)
REMARK    1  A    between atoms: C_1  and  C_2
REMARK    2  A    between atoms: C_2  and  C_3
REMARK    3  A    between atoms: C_2  and  O_4
REMARK    4  A    between atoms: O_4  and  C_5
REMARK    5  A    between atoms: C_9  and  N_10
REMARK    6  A    between atoms: C_11  and  C_13
REMARK    7  A    between atoms: C_18  and  C_19
REMARK                            x       y       z     vdW  Elec       q    Type
REMARK                         _______ _______ _______ _____ _____    ______ ____
ROOT
ATOM      1  C   UNL     1       1.002   8.838  20.447  0.00  0.00    +0.000 A 
ATOM      2  C   UNL     1       0.891   8.672  21.835  0.00  0.00    +0.000 A 
ATOM      3  C   UNL     1       0.210   9.613  22.601  0.00  0.00    +0.000 A 
ATOM      4  C   UNL     1      -0.413  10.694  21.969  0.00  0.00    +0.000 A 
ATOM      5  C   UNL     1      -0.852  11.823  22.671  0.00  0.00    +0.000 A 
ATOM      6  C   UNL     1      -1.305  12.911  21.925  0.00  0.00    +0.000 A 
ATOM      7  C   UNL     1      -1.975  12.613  20.745  0.00  0.00    +0.000 A 
ATOM      8  C   UNL     1      -1.441  11.586  19.979  0.00  0.00    +0.000 A 
ATOM      9  C   UNL     1      -0.532  10.695  20.561  0.00  0.00    +0.000 A 
ATOM     10  C   UNL     1       0.252   9.819  19.799  0.00  0.00    +0.000 A 
ENDROOT
BRANCH   6  11
ATOM     11  C   UNL     1      -0.249  13.985  21.648  0.00  0.00    +0.000 C 
ATOM     12  N   UNL     1       0.957  13.960  22.126  0.00  0.00    +0.000 NA
ATOM     13  N   UNL     1      -0.491  14.971  20.742  0.00  0.00    +0.000 N 
ATOM     14  H   UNL     1       1.122  13.140  22.712  0.00  0.00    +0.000 HD
ATOM     15  H   UNL     1      -1.424  15.292  20.535  0.00  0.00    +0.000 HD
ATOM     16  H   UNL     1       0.271  15.621  20.592  0.00  0.00    +0.000 HD
ENDBRANCH   6  11
BRANCH   1  18
ATOM     17  N   UNL     1       2.021   6.624  20.247  0.00  0.00    +0.000 N 
ATOM     18  C   UNL     1       1.870   7.894  19.715  0.00  0.00    +0.000 C 
ATOM     19  O   UNL     1       2.350   8.323  18.665  0.00  0.00    +0.000 OA
ATOM     20  H   UNL     1       1.553   6.424  21.126  0.00  0.00    +0.000 HD
BRANCH  17  25
ATOM     21  C   UNL     1       4.742   4.368  19.046  0.00  0.00    +0.000 A 
ATOM     22  C   UNL     1       4.018   3.350  18.425  0.00  0.00    +0.000 A 
ATOM     23  C   UNL     1       2.618   3.396  18.406  0.00  0.00    +0.000 A 
ATOM     24  C   UNL     1       1.956   4.479  18.991  0.00  0.00    +0.000 A 
ATOM     25  C   UNL     1       2.661   5.521  19.602  0.00  0.00    +0.000 A 
ATOM     26  C   UNL     1       4.066   5.464  19.607  0.00  0.00    +0.000 A 
BRANCH  21  27
ATOM     27  O   UNL     1       6.099   4.224  18.991  0.00  0.00    +0.000 OA
BRANCH  27  29
ATOM     28  C   UNL     1       7.859   5.828  19.217  0.00  0.00    +0.000 C 
ATOM     29  C   UNL     1       6.828   5.223  18.267  0.00  0.00    +0.000 C 
ATOM     30  C   UNL     1       7.521   4.541  17.094  0.00  0.00    +0.000 C 
ENDBRANCH  27  29
ENDBRANCH  21  27
ENDBRANCH  17  25
ENDBRANCH   1  18
TORSDOF 5
ENDMDL
MODEL 6
REMARK VINA RESULT:      -8.1      1.124      1.665
REMARK  Name = 
REMARK  7 active torsions:
REMARK  status: ('A' for Active; 'I' for Inactive)
REMARK    1  A    between atoms: C_1  and  C_2
REMARK    2  A    between atoms: C_2  and  C_3
REMARK    3  A    between atoms: C_2  and  O_4
REMARK    4  A    between atoms: O_4  and  C_5
REMARK    5  A    between atoms: C_9  and  N_10
REMARK    6  A    between atoms: C_11  and  C_13
REMARK    7  A    between atoms: C_18  and  C_19
REMARK                            x       y       z     vdW  Elec       q    Type
REMARK                         _______ _______ _______ _____ _____    ______ ____
ROOT
ATOM      1  C   UNL     1       2.828   6.333  19.015  0.00  0.00    +0.000 A 
ATOM      2  C   UNL     1       2.189   5.208  18.473  0.00  0.00    +0.000 A 
ATOM      3  C   UNL     1       2.907   4.298  17.703  0.00  0.00    +0.000 A 
ATOM      4  C   UNL     1       4.281   4.483  17.522  0.00  0.00    +0.000 A 
ATOM      5  C   UNL     1       5.007   3.801  16.538  0.00  0.00    +0.000 A 
ATOM      6  C   UNL     1       6.333   4.183  16.334  0.00  0.00    +0.000 A 
ATOM      7  C   UNL     1       7.039   4.586  17.461  0.00  0.00    +0.000 A 
ATOM      8  C   UNL     1       6.353   5.389  18.360  0.00  0.00    +0.000 A 
ATOM      9  C   UNL     1       4.955   5.452  18.298  0.00  0.00    +0.000 A 
ATOM     10  C   UNL     1       4.218   6.435  18.972  0.00  0.00    +0.000 A 
ENDROOT
BRANCH   6  11
ATOM     11  C   UNL     1       6.543   5.207  15.215  0.00  0.00    +0.000 C 
ATOM     12  N   UNL     1       5.665   6.100  14.873  0.00  0.00    +0.000 NA
ATOM     13  N   UNL     1       7.753   5.325  14.606  0.00  0.00    +0.000 N 
ATOM     14  H   UNL     1       4.814   6.039  15.435  0.00  0.00    +0.000 HD
ATOM     15  H   UNL     1       8.398   4.552  14.540  0.00  0.00    +0.000 HD
ATOM     16  H   UNL     1       7.817   6.049  13.901  0.00  0.00    +0.000 HD
ENDBRANCH   6  11
BRANCH   1  18
ATOM     17  N   UNL     1       1.789   8.547  19.030  0.00  0.00    +0.000 N 
ATOM     18  C   UNL     1       1.981   7.341  19.683  0.00  0.00    +0.000 C 
ATOM     19  O   UNL     1       1.486   6.989  20.755  0.00  0.00    +0.000 OA
ATOM     20  H   UNL     1       2.269   8.683  18.145  0.00  0.00    +0.000 HD
BRANCH  17  25
ATOM     21  C   UNL     1      -1.007  11.010  18.804  0.00  0.00    +0.000 A 
ATOM     22  C   UNL     1      -1.042  11.524  20.100  0.00  0.00    +0.000 A 
ATOM     23  C   UNL     1      -0.145  11.053  21.067  0.00  0.00    +0.000 A 
ATOM     24  C   UNL     1       0.800  10.084  20.716  0.00  0.00    +0.000 A 
ATOM     25  C   UNL     1       0.867   9.567  19.418  0.00  0.00    +0.000 A 
ATOM     26  C   UNL     1      -0.037  10.056  18.457  0.00  0.00    +0.000 A 
BRANCH  21  27
ATOM     27  O   UNL     1      -1.919  11.553  17.945  0.00  0.00    +0.000 OA
BRANCH  27  29
ATOM     28  C   UNL     1      -4.251  11.047  17.781  0.00  0.00    +0.000 C 
ATOM     29  C   UNL     1      -2.847  10.652  17.330  0.00  0.00    +0.000 C 
ATOM     30  C   UNL     1      -2.713  10.797  15.819  0.00  0.00    +0.000 C 
ENDBRANCH  27  29
ENDBRANCH  21  27
ENDBRANCH  17  25
ENDBRANCH   1  18
TORSDOF 5
ENDMDL
MODEL 7
REMARK VINA RESULT:      -8.0      2.779      3.702
REMARK  Name = 
REMARK  7 active torsions:
REMARK  status: ('A' for Active; 'I' for Inactive)
REMARK    1  A    between atoms: C_1  and  C_2
REMARK    2  A    between atoms: C_2  and  C_3
REMARK    3  A    between atoms: C_2  and  O_4
REMARK    4  A    between atoms: O_4  and  C_5
REMARK    5  A    between atoms: C_9  and  N_10
REMARK    6  A    between atoms: C_11  and  C_13
REMARK    7  A    between atoms: C_18  and  C_19
REMARK                            x       y       z     vdW  Elec       q    Type
REMARK                         _______ _______ _______ _____ _____    ______ ____
ROOT
ATOM      1  C   UNL     1       2.545   7.365  17.921  0.00  0.00    +0.000 A 
ATOM      2  C   UNL     1       3.856   7.393  17.421  0.00  0.00    +0.000 A 
ATOM      3  C   UNL     1       4.578   6.211  17.284  0.00  0.00    +0.000 A 
ATOM      4  C   UNL     1       3.968   4.992  17.593  0.00  0.00    +0.000 A 
ATOM      5  C   UNL     1       4.697   3.810  17.769  0.00  0.00    +0.000 A 
ATOM      6  C   UNL     1       4.010   2.691  18.239  0.00  0.00    +0.000 A 
ATOM      7  C   UNL     1       2.695   2.552  17.813  0.00  0.00    +0.000 A 
ATOM      8  C   UNL     1       1.933   3.712  17.786  0.00  0.00    +0.000 A 
ATOM      9  C   UNL     1       2.574   4.956  17.821  0.00  0.00    +0.000 A 
ATOM     10  C   UNL     1       1.883   6.148  18.076  0.00  0.00    +0.000 A 
ENDROOT
BRANCH   6  11
ATOM     11  C   UNL     1       4.073   2.486  19.755  0.00  0.00    +0.000 C 
ATOM     12  N   UNL     1       3.110   2.788  20.570  0.00  0.00    +0.000 NA
ATOM     13  N   UNL     1       5.120   1.825  20.318  0.00  0.00    +0.000 N 
ATOM     14  H   UNL     1       2.302   3.182  20.083  0.00  0.00    +0.000 HD
ATOM     15  H   UNL     1       6.034   1.806  19.894  0.00  0.00    +0.000 HD
ATOM     16  H   UNL     1       5.068   1.702  21.322  0.00  0.00    +0.000 HD
ENDBRANCH   6  11
BRANCH   1  18
ATOM     17  N   UNL     1       0.977   8.709  19.230  0.00  0.00    +0.000 N 
ATOM     18  C   UNL     1       1.893   8.662  18.193  0.00  0.00    +0.000 C 
ATOM     19  O   UNL     1       2.266   9.599  17.487  0.00  0.00    +0.000 OA
ATOM     20  H   UNL     1       0.779   7.842  19.722  0.00  0.00    +0.000 HD
BRANCH  17  25
ATOM     21  C   UNL     1      -1.318  11.635  19.560  0.00  0.00    +0.000 A 
ATOM     22  C   UNL     1      -0.904  12.189  20.772  0.00  0.00    +0.000 A 
ATOM     23  C   UNL     1       0.135  11.593  21.497  0.00  0.00    +0.000 A 
ATOM     24  C   UNL     1       0.768  10.456  20.988  0.00  0.00    +0.000 A 
ATOM     25  C   UNL     1       0.383   9.893  19.765  0.00  0.00    +0.000 A 
ATOM     26  C   UNL     1      -0.657  10.507  19.046  0.00  0.00    +0.000 A 
BRANCH  21  27
ATOM     27  O   UNL     1      -2.329  12.308  18.936  0.00  0.00    +0.000 OA
BRANCH  27  29
ATOM     28  C   UNL     1      -4.548  12.650  19.760  0.00  0.00    +0.000 C 
ATOM     29  C   UNL     1      -3.630  11.711  18.982  0.00  0.00    +0.000 C 
ATOM     30  C   UNL     1      -4.125  11.550  17.549  0.00  0.00    +0.000 C 
ENDBRANCH  27  29
ENDBRANCH  21  27
ENDBRANCH  17  25
ENDBRANCH   1  18
TORSDOF 5
ENDMDL
MODEL 8
REMARK VINA RESULT:      -8.0      2.874      3.861
REMARK  Name = 
REMARK  7 active torsions:
REMARK  status: ('A' for Active; 'I' for Inactive)
REMARK    1  A    between atoms: C_1  and  C_2
REMARK    2  A    between atoms: C_2  and  C_3
REMARK    3  A    between atoms: C_2  and  O_4
REMARK    4  A    between atoms: O_4  and  C_5
REMARK    5  A    between atoms: C_9  and  N_10
REMARK    6  A    between atoms: C_11  and  C_13
REMARK    7  A    between atoms: C_18  and  C_19
REMARK                            x       y       z     vdW  Elec       q    Type
REMARK                         _______ _______ _______ _____ _____    ______ ____
ROOT
ATOM      1  C   UNL     1       2.401   7.223  18.398  0.00  0.00    +0.000 A 
ATOM      2  C   UNL     1       3.644   7.300  17.751  0.00  0.00    +0.000 A 
ATOM      3  C   UNL     1       4.316   6.138  17.386  0.00  0.00    +0.000 A 
ATOM      4  C   UNL     1       3.717   4.895  17.616  0.00  0.00    +0.000 A 
ATOM      5  C   UNL     1       4.434   3.694  17.558  0.00  0.00    +0.000 A 
ATOM      6  C   UNL     1       3.780   2.532  17.967  0.00  0.00    +0.000 A 
ATOM      7  C   UNL     1       2.421   2.459  17.689  0.00  0.00    +0.000 A 
ATOM      8  C   UNL     1       1.689   3.620  17.894  0.00  0.00    +0.000 A 
ATOM      9  C   UNL     1       2.360   4.845  18.004  0.00  0.00    +0.000 A 
ATOM     10  C   UNL     1       1.732   6.002  18.483  0.00  0.00    +0.000 A 
ENDROOT
BRANCH   6  11
ATOM     11  C   UNL     1       4.017   2.141  19.429  0.00  0.00    +0.000 C 
ATOM     12  N   UNL     1       5.118   1.617  19.872  0.00  0.00    +0.000 NA
ATOM     13  N   UNL     1       3.107   2.468  20.385  0.00  0.00    +0.000 N 
ATOM     14  H   UNL     1       5.811   1.492  19.132  0.00  0.00    +0.000 HD
ATOM     15  H   UNL     1       2.127   2.585  20.177  0.00  0.00    +0.000 HD
ATOM     16  H   UNL     1       3.355   2.203  21.331  0.00  0.00    +0.000 HD
ENDBRANCH   6  11
BRANCH   1  18
ATOM     17  N   UNL     1       1.434   9.427  17.965  0.00  0.00    +0.000 N 
ATOM     18  C   UNL     1       1.817   8.482  18.902  0.00  0.00    +0.000 C 
ATOM     19  O   UNL     1       1.686   8.552  20.124  0.00  0.00    +0.000 OA
ATOM     20  H   UNL     1       1.609   9.216  16.986  0.00  0.00    +0.000 HD
BRANCH  17  25
ATOM     21  C   UNL     1      -1.494  11.676  18.517  0.00  0.00    +0.000 A 
ATOM     22  C   UNL     1      -0.872  12.885  18.829  0.00  0.00    +0.000 A 
ATOM     23  C   UNL     1       0.526  12.966  18.869  0.00  0.00    +0.000 A 
ATOM     24  C   UNL     1       1.290  11.834  18.570  0.00  0.00    +0.000 A 
ATOM     25  C   UNL     1       0.689  10.616  18.236  0.00  0.00    +0.000 A 
ATOM     26  C   UNL     1      -0.715  10.553  18.193  0.00  0.00    +0.000 A 
BRANCH  21  27
ATOM     27  O   UNL     1      -2.859  11.720  18.496  0.00  0.00    +0.000 OA
BRANCH  27  29
ATOM     28  C   UNL     1      -5.006  10.772  18.037  0.00  0.00    +0.000 C 
ATOM     29  C   UNL     1      -3.525  10.761  17.666  0.00  0.00    +0.000 C 
ATOM     30  C   UNL     1      -3.337  11.184  16.214  0.00  0.00    +0.000 C 
ENDBRANCH  27  29
ENDBRANCH  21  27
ENDBRANCH  17  25
ENDBRANCH   1  18
TORSDOF 5
ENDMDL
MODEL 9
REMARK VINA RESULT:      -8.0      1.323      1.342
REMARK  Name = 
REMARK  7 active torsions:
REMARK  status: ('A' for Active; 'I' for Inactive)
REMARK    1  A    between atoms: C_1  and  C_2
REMARK    2  A    between atoms: C_2  and  C_3
REMARK    3  A    between atoms: C_2  and  O_4
REMARK    4  A    between atoms: O_4  and  C_5
REMARK    5  A    between atoms: C_9  and  N_10
REMARK    6  A    between atoms: C_11  and  C_13
REMARK    7  A    between atoms: C_18  and  C_19
REMARK                            x       y       z     vdW  Elec       q    Type
REMARK                         _______ _______ _______ _____ _____    ______ ____
ROOT
ATOM      1  C   UNL     1       3.211   6.648  18.181  0.00  0.00    +0.000 A 
ATOM      2  C   UNL     1       2.591   5.395  18.057  0.00  0.00    +0.000 A 
ATOM      3  C   UNL     1       3.283   4.324  17.500  0.00  0.00    +0.000 A 
ATOM      4  C   UNL     1       4.618   4.491  17.119  0.00  0.00    +0.000 A 
ATOM      5  C   UNL     1       5.283   3.577  16.293  0.00  0.00    +0.000 A 
ATOM      6  C   UNL     1       6.555   3.924  15.839  0.00  0.00    +0.000 A 
ATOM      7  C   UNL     1       7.344   4.656  16.717  0.00  0.00    +0.000 A 
ATOM      8  C   UNL     1       6.703   5.663  17.424  0.00  0.00    +0.000 A 
ATOM      9  C   UNL     1       5.305   5.663  17.507  0.00  0.00    +0.000 A 
ATOM     10  C   UNL     1       4.580   6.775  17.953  0.00  0.00    +0.000 A 
ENDROOT
BRANCH   6  11
ATOM     11  C   UNL     1       6.588   4.588  14.460  0.00  0.00    +0.000 C 
ATOM     12  N   UNL     1       7.521   5.398  14.064  0.00  0.00    +0.000 NA
ATOM     13  N   UNL     1       5.686   4.235  13.504  0.00  0.00    +0.000 N 
ATOM     14  H   UNL     1       8.233   5.544  14.782  0.00  0.00    +0.000 HD
ATOM     15  H   UNL     1       4.771   3.880  13.734  0.00  0.00    +0.000 HD
ATOM     16  H   UNL     1       5.798   4.695  12.609  0.00  0.00    +0.000 HD
ENDBRANCH   6  11
BRANCH   1  18
ATOM     17  N   UNL     1       1.761   7.668  19.866  0.00  0.00    +0.000 N 
ATOM     18  C   UNL     1       2.374   7.780  18.629  0.00  0.00    +0.000 C 
ATOM     19  O   UNL     1       2.337   8.745  17.865  0.00  0.00    +0.000 OA
ATOM     20  H   UNL     1       1.893   6.802  20.379  0.00  0.00    +0.000 HD
BRANCH  17  25
ATOM     21  C   UNL     1      -0.474  10.604  20.433  0.00  0.00    +0.000 A 
ATOM     22  C   UNL     1      -0.391  10.765  21.816  0.00  0.00    +0.000 A 
ATOM     23  C   UNL     1       0.401   9.896  22.578  0.00  0.00    +0.000 A 
ATOM     24  C   UNL     1       1.124   8.884  21.939  0.00  0.00    +0.000 A 
ATOM     25  C   UNL     1       1.071   8.715  20.551  0.00  0.00    +0.000 A 
ATOM     26  C   UNL     1       0.277   9.600  19.800  0.00  0.00    +0.000 A 
BRANCH  21  27
ATOM     27  O   UNL     1      -1.265  11.517  19.795  0.00  0.00    +0.000 OA
BRANCH  27  29
ATOM     28  C   UNL     1      -2.131  11.617  17.568  0.00  0.00    +0.000 C 
ATOM     29  C   UNL     1      -0.908  11.855  18.449  0.00  0.00    +0.000 C 
ATOM     30  C   UNL     1      -0.511  13.326  18.423  0.00  0.00    +0.000 C 
ENDBRANCH  27  29
ENDBRANCH  21  27
ENDBRANCH  17  25
ENDBRANCH   1  18
TORSDOF 5
ENDMDL
