MODEL 1
REMARK VINA RESULT:      -6.8      0.000      0.000
REMARK  Name = 
REMARK  4 active torsions:
REMARK  status: ('A' for Active; 'I' for Inactive)
REMARK    1  A    between atoms: C_1  and  C_2
REMARK    2  A    between atoms: C_2  and  C_3
REMARK    3  A    between atoms: N_16  and  C_17
REMARK    4  A    between atoms: C_17  and  C_18
REMARK                            x       y       z     vdW  Elec       q    Type
REMARK                         _______ _______ _______ _____ _____    ______ ____
ROOT
ATOM      1  C   UNL     1      -2.243  10.529  17.311  0.00  0.00    +0.000 C 
ATOM      2  O   UNL     1      -2.591   9.404  17.666  0.00  0.00    +0.000 OA
ATOM      3  N   UNL     1      -1.476  11.346  18.114  0.00  0.00    +0.000 N 
ATOM      4  C   UNL     1      -0.955  12.655  17.797  0.00  0.00    +0.000 C 
ATOM      5  C   UNL     1      -0.873  13.388  19.129  0.00  0.00    +0.000 C 
ATOM      6  C   UNL     1      -1.061  12.311  20.230  0.00  0.00    +0.000 C 
ATOM      7  C   UNL     1       0.114  12.355  21.215  0.00  0.00    +0.000 C 
ATOM      8  O   UNL     1      -0.105  11.441  22.289  0.00  0.00    +0.000 OA
ATOM      9  C   UNL     1      -1.173  11.885  23.133  0.00  0.00    +0.000 C 
ATOM     10  C   UNL     1      -2.401  12.224  22.355  0.00  0.00    +0.000 A 
ATOM     11  C   UNL     1      -3.633  12.372  22.953  0.00  0.00    +0.000 A 
ATOM     12  N   UNL     1      -4.750  12.732  22.293  0.00  0.00    +0.000 NA
ATOM     13  C   UNL     1      -4.630  12.955  20.978  0.00  0.00    +0.000 A 
ATOM     14  N   UNL     1      -5.711  13.387  20.232  0.00  0.00    +0.000 N 
ATOM     15  N   UNL     1      -3.478  12.831  20.306  0.00  0.00    +0.000 NA
ATOM     16  C   UNL     1      -2.368  12.481  20.997  0.00  0.00    +0.000 A 
ATOM     17  C   UNL     1      -1.112  10.973  19.468  0.00  0.00    +0.000 C 
ATOM     18  H   UNL     1      -5.518  13.148  19.267  0.00  0.00    +0.000 HD
ENDROOT
BRANCH   1  20
ATOM     19  C   UNL     1      -3.513  10.171  15.154  0.00  0.00    +0.000 C 
ATOM     20  C   UNL     1      -2.638  11.110  15.964  0.00  0.00    +0.000 C 
ENDBRANCH   1  20
BRANCH  14  21
ATOM     21  C   UNL     1      -7.014  12.955  20.702  0.00  0.00    +0.000 C 
BRANCH  21  22
ATOM     22  C   UNL     1      -7.234  11.491  20.499  0.00  0.00    +0.000 A 
ATOM     23  C   UNL     1      -7.905  10.527  21.223  0.00  0.00    +0.000 A 
ATOM     24  C   UNL     1      -7.773   9.317  20.500  0.00  0.00    +0.000 A 
ATOM     25  C   UNL     1      -7.033   9.619  19.381  0.00  0.00    +0.000 A 
ATOM     26  O   UNL     1      -6.702  10.936  19.369  0.00  0.00    +0.000 OA
ENDBRANCH  21  22
ENDBRANCH  14  21
TORSDOF 3
ENDMDL
MODEL 2
REMARK VINA RESULT:      -6.7      2.213      4.559
REMARK  Name = 
REMARK  4 active torsions:
REMARK  status: ('A' for Active; 'I' for Inactive)
REMARK    1  A    between atoms: C_1  and  C_2
REMARK    2  A    between atoms: C_2  and  C_3
REMARK    3  A    between atoms: N_16  and  C_17
REMARK    4  A    between atoms: C_17  and  C_18
REMARK                            x       y       z     vdW  Elec       q    Type
REMARK                         _______ _______ _______ _____ _____    ______ ____
ROOT
ATOM      1  C   UNL     1      -0.399  11.061  21.980  0.00  0.00    +0.000 C 
ATOM      2  O   UNL     1      -0.737   9.889  22.139  0.00  0.00    +0.000 OA
ATOM      3  N   UNL     1      -1.060  12.104  22.595  0.00  0.00    +0.000 N 
ATOM      4  C   UNL     1      -0.733  13.509  22.540  0.00  0.00    +0.000 C 
ATOM      5  C   UNL     1      -2.061  14.237  22.692  0.00  0.00    +0.000 C 
ATOM      6  C   UNL     1      -3.088  13.174  23.164  0.00  0.00    +0.000 C 
ATOM      7  C   UNL     1      -3.768  13.638  24.458  0.00  0.00    +0.000 C 
ATOM      8  O   UNL     1      -4.790  12.716  24.839  0.00  0.00    +0.000 OA
ATOM      9  C   UNL     1      -5.893  12.765  23.929  0.00  0.00    +0.000 C 
ATOM     10  C   UNL     1      -5.455  12.643  22.506  0.00  0.00    +0.000 A 
ATOM     11  C   UNL     1      -6.336  12.354  21.487  0.00  0.00    +0.000 A 
ATOM     12  N   UNL     1      -5.987  12.292  20.189  0.00  0.00    +0.000 NA
ATOM     13  C   UNL     1      -4.703  12.529  19.895  0.00  0.00    +0.000 A 
ATOM     14  N   UNL     1      -4.269  12.546  18.583  0.00  0.00    +0.000 N 
ATOM     15  N   UNL     1      -3.771  12.812  20.814  0.00  0.00    +0.000 NA
ATOM     16  C   UNL     1      -4.152  12.881  22.111  0.00  0.00    +0.000 A 
ATOM     17  C   UNL     1      -2.257  11.896  23.388  0.00  0.00    +0.000 C 
ATOM     18  H   UNL     1      -3.269  12.381  18.600  0.00  0.00    +0.000 HD
ENDROOT
BRANCH   1  20
ATOM     19  C   UNL     1       0.612  10.953  19.666  0.00  0.00    +0.000 C 
ATOM     20  C   UNL     1       0.767  11.453  21.090  0.00  0.00    +0.000 C 
ENDBRANCH   1  20
BRANCH  14  21
ATOM     21  C   UNL     1      -4.996  11.688  17.667  0.00  0.00    +0.000 C 
BRANCH  21  22
ATOM     22  C   UNL     1      -4.086  10.915  16.768  0.00  0.00    +0.000 A 
ATOM     23  C   UNL     1      -3.118   9.960  17.000  0.00  0.00    +0.000 A 
ATOM     24  C   UNL     1      -2.613   9.585  15.731  0.00  0.00    +0.000 A 
ATOM     25  C   UNL     1      -3.306  10.332  14.808  0.00  0.00    +0.000 A 
ATOM     26  O   UNL     1      -4.204  11.142  15.426  0.00  0.00    +0.000 OA
ENDBRANCH  21  22
ENDBRANCH  14  21
TORSDOF 3
ENDMDL
MODEL 3
REMARK VINA RESULT:      -6.6      7.496      9.759
REMARK  Name = 
REMARK  4 active torsions:
REMARK  status: ('A' for Active; 'I' for Inactive)
REMARK    1  A    between atoms: C_1  and  C_2
REMARK    2  A    between atoms: C_2  and  C_3
REMARK    3  A    between atoms: N_16  and  C_17
REMARK    4  A    between atoms: C_17  and  C_18
REMARK                            x       y       z     vdW  Elec       q    Type
REMARK                         _______ _______ _______ _____ _____    ______ ____
ROOT
ATOM      1  C   UNL     1       5.349   6.623  16.973  0.00  0.00    +0.000 C 
ATOM      2  O   UNL     1       4.558   6.858  16.062  0.00  0.00    +0.000 OA
ATOM      3  N   UNL     1       5.372   5.410  17.629  0.00  0.00    +0.000 N 
ATOM      4  C   UNL     1       6.281   4.988  18.668  0.00  0.00    +0.000 C 
ATOM      5  C   UNL     1       5.488   4.008  19.522  0.00  0.00    +0.000 C 
ATOM      6  C   UNL     1       4.211   3.662  18.713  0.00  0.00    +0.000 C 
ATOM      7  C   UNL     1       4.091   2.142  18.543  0.00  0.00    +0.000 C 
ATOM      8  O   UNL     1       2.863   1.811  17.893  0.00  0.00    +0.000 OA
ATOM      9  C   UNL     1       1.743   2.070  18.746  0.00  0.00    +0.000 C 
ATOM     10  C   UNL     1       1.781   3.447  19.322  0.00  0.00    +0.000 A 
ATOM     11  C   UNL     1       0.680   4.030  19.910  0.00  0.00    +0.000 A 
ATOM     12  N   UNL     1       0.692   5.245  20.489  0.00  0.00    +0.000 NA
ATOM     13  C   UNL     1       1.855   5.907  20.481  0.00  0.00    +0.000 A 
ATOM     14  N   UNL     1       1.976   7.134  21.105  0.00  0.00    +0.000 N 
ATOM     15  N   UNL     1       2.979   5.428  19.930  0.00  0.00    +0.000 NA
ATOM     16  C   UNL     1       2.941   4.198  19.366  0.00  0.00    +0.000 A 
ATOM     17  C   UNL     1       4.398   4.370  17.357  0.00  0.00    +0.000 C 
ATOM     18  H   UNL     1       2.772   7.601  20.689  0.00  0.00    +0.000 HD
ENDROOT
BRANCH   1  20
ATOM     19  C   UNL     1       7.779   7.319  17.028  0.00  0.00    +0.000 C 
ATOM     20  C   UNL     1       6.360   7.651  17.451  0.00  0.00    +0.000 C 
ENDBRANCH   1  20
BRANCH  14  21
ATOM     21  C   UNL     1       0.770   7.940  21.148  0.00  0.00    +0.000 C 
BRANCH  21  22
ATOM     22  C   UNL     1       0.919   9.225  20.399  0.00  0.00    +0.000 A 
ATOM     23  C   UNL     1       1.086   9.525  19.063  0.00  0.00    +0.000 A 
ATOM     24  C   UNL     1       1.144  10.938  18.973  0.00  0.00    +0.000 A 
ATOM     25  C   UNL     1       1.005  11.408  20.258  0.00  0.00    +0.000 A 
ATOM     26  O   UNL     1       0.866  10.377  21.131  0.00  0.00    +0.000 OA
ENDBRANCH  21  22
ENDBRANCH  14  21
TORSDOF 3
ENDMDL
MODEL 4
REMARK VINA RESULT:      -6.5      4.530      7.468
REMARK  Name = 
REMARK  4 active torsions:
REMARK  status: ('A' for Active; 'I' for Inactive)
REMARK    1  A    between atoms: C_1  and  C_2
REMARK    2  A    between atoms: C_2  and  C_3
REMARK    3  A    between atoms: N_16  and  C_17
REMARK    4  A    between atoms: C_17  and  C_18
REMARK                            x       y       z     vdW  Elec       q    Type
REMARK                         _______ _______ _______ _____ _____    ______ ____
ROOT
ATOM      1  C   UNL     1       2.328  13.650  19.298  0.00  0.00    +0.000 C 
ATOM      2  O   UNL     1       3.304  13.672  20.046  0.00  0.00    +0.000 OA
ATOM      3  N   UNL     1       1.089  13.222  19.724  0.00  0.00    +0.000 N 
ATOM      4  C   UNL     1      -0.143  13.201  18.971  0.00  0.00    +0.000 C 
ATOM      5  C   UNL     1      -0.942  12.036  19.540  0.00  0.00    +0.000 C 
ATOM      6  C   UNL     1      -0.234  11.627  20.858  0.00  0.00    +0.000 C 
ATOM      7  C   UNL     1      -1.235  11.645  22.020  0.00  0.00    +0.000 C 
ATOM      8  O   UNL     1      -0.616  11.166  23.215  0.00  0.00    +0.000 OA
ATOM      9  C   UNL     1      -0.341   9.764  23.126  0.00  0.00    +0.000 C 
ATOM     10  C   UNL     1       0.390   9.413  21.872  0.00  0.00    +0.000 A 
ATOM     11  C   UNL     1       1.030   8.204  21.708  0.00  0.00    +0.000 A 
ATOM     12  N   UNL     1       1.650   7.831  20.573  0.00  0.00    +0.000 NA
ATOM     13  C   UNL     1       1.631   8.703  19.558  0.00  0.00    +0.000 A 
ATOM     14  N   UNL     1       2.190   8.379  18.336  0.00  0.00    +0.000 N 
ATOM     15  N   UNL     1       1.041   9.904  19.623  0.00  0.00    +0.000 NA
ATOM     16  C   UNL     1       0.414  10.248  20.772  0.00  0.00    +0.000 A 
ATOM     17  C   UNL     1       0.877  12.676  21.052  0.00  0.00    +0.000 C 
ATOM     18  H   UNL     1       2.388   9.252  17.861  0.00  0.00    +0.000 HD
ENDROOT
BRANCH   1  20
ATOM     19  C   UNL     1       3.313  15.290  17.645  0.00  0.00    +0.000 C 
ATOM     20  C   UNL     1       2.412  14.085  17.845  0.00  0.00    +0.000 C 
ENDBRANCH   1  20
BRANCH  14  21
ATOM     21  C   UNL     1       3.310   7.459  18.380  0.00  0.00    +0.000 C 
BRANCH  21  22
ATOM     22  C   UNL     1       2.902   6.052  18.085  0.00  0.00    +0.000 A 
ATOM     23  C   UNL     1       1.680   5.448  17.872  0.00  0.00    +0.000 A 
ATOM     24  C   UNL     1       1.947   4.081  17.618  0.00  0.00    +0.000 A 
ATOM     25  C   UNL     1       3.312   3.938  17.689  0.00  0.00    +0.000 A 
ATOM     26  O   UNL     1       3.903   5.129  17.970  0.00  0.00    +0.000 OA
ENDBRANCH  21  22
ENDBRANCH  14  21
TORSDOF 3
ENDMDL
MODEL 5
REMARK VINA RESULT:      -6.4      2.236      6.512
REMARK  Name = 
REMARK  4 active torsions:
REMARK  status: ('A' for Active; 'I' for Inactive)
REMARK    1  A    between atoms: C_1  and  C_2
REMARK    2  A    between atoms: C_2  and  C_3
REMARK    3  A    between atoms: N_16  and  C_17
REMARK    4  A    between atoms: C_17  and  C_18
REMARK                            x       y       z     vdW  Elec       q    Type
REMARK                         _______ _______ _______ _____ _____    ______ ____
ROOT
ATOM      1  C   UNL     1      -4.008  13.047  23.575  0.00  0.00    +0.000 C 
ATOM      2  O   UNL     1      -4.138  11.896  23.990  0.00  0.00    +0.000 OA
ATOM      3  N   UNL     1      -4.769  13.541  22.537  0.00  0.00    +0.000 N 
ATOM      4  C   UNL     1      -4.758  14.881  21.997  0.00  0.00    +0.000 C 
ATOM      5  C   UNL     1      -5.133  14.725  20.530  0.00  0.00    +0.000 C 
ATOM      6  C   UNL     1      -5.671  13.279  20.370  0.00  0.00    +0.000 C 
ATOM      7  C   UNL     1      -7.071  13.304  19.744  0.00  0.00    +0.000 C 
ATOM      8  O   UNL     1      -7.528  11.975  19.495  0.00  0.00    +0.000 OA
ATOM      9  C   UNL     1      -6.778  11.362  18.440  0.00  0.00    +0.000 C 
ATOM     10  C   UNL     1      -5.305  11.475  18.657  0.00  0.00    +0.000 A 
ATOM     11  C   UNL     1      -4.398  10.710  17.959  0.00  0.00    +0.000 A 
ATOM     12  N   UNL     1      -3.063  10.824  18.087  0.00  0.00    +0.000 NA
ATOM     13  C   UNL     1      -2.614  11.743  18.951  0.00  0.00    +0.000 A 
ATOM     14  N   UNL     1      -1.260  11.971  19.102  0.00  0.00    +0.000 N 
ATOM     15  N   UNL     1      -3.416  12.531  19.680  0.00  0.00    +0.000 NA
ATOM     16  C   UNL     1      -4.755  12.404  19.521  0.00  0.00    +0.000 A 
ATOM     17  C   UNL     1      -5.701  12.709  21.801  0.00  0.00    +0.000 C 
ATOM     18  H   UNL     1      -1.132  12.407  20.008  0.00  0.00    +0.000 HD
ENDROOT
BRANCH   1  20
ATOM     19  C   UNL     1      -1.603  13.823  23.596  0.00  0.00    +0.000 C 
ATOM     20  C   UNL     1      -2.995  14.011  24.169  0.00  0.00    +0.000 C 
ENDBRANCH   1  20
BRANCH  14  21
ATOM     21  C   UNL     1      -0.398  10.828  18.866  0.00  0.00    +0.000 C 
BRANCH  21  22
ATOM     22  C   UNL     1       0.011  10.153  20.135  0.00  0.00    +0.000 A 
ATOM     23  C   UNL     1      -0.348  10.327  21.455  0.00  0.00    +0.000 A 
ATOM     24  C   UNL     1       0.373   9.360  22.198  0.00  0.00    +0.000 A 
ATOM     25  C   UNL     1       1.122   8.657  21.284  0.00  0.00    +0.000 A 
ATOM     26  O   UNL     1       0.909   9.129  20.028  0.00  0.00    +0.000 OA
ENDBRANCH  21  22
ENDBRANCH  14  21
TORSDOF 3
ENDMDL
MODEL 6
REMARK VINA RESULT:      -6.4      2.125      5.547
REMARK  Name = 
REMARK  4 active torsions:
REMARK  status: ('A' for Active; 'I' for Inactive)
REMARK    1  A    between atoms: C_1  and  C_2
REMARK    2  A    between atoms: C_2  and  C_3
REMARK    3  A    between atoms: N_16  and  C_17
REMARK    4  A    between atoms: C_17  and  C_18
REMARK                            x       y       z     vdW  Elec       q    Type
REMARK                         _______ _______ _______ _____ _____    ______ ____
ROOT
ATOM      1  C   UNL     1      -2.189  13.387  22.262  0.00  0.00    +0.000 C 
ATOM      2  O   UNL     1      -1.821  12.215  22.303  0.00  0.00    +0.000 OA
ATOM      3  N   UNL     1      -3.425  13.783  22.728  0.00  0.00    +0.000 N 
ATOM      4  C   UNL     1      -3.953  15.126  22.792  0.00  0.00    +0.000 C 
ATOM      5  C   UNL     1      -5.461  14.971  22.640  0.00  0.00    +0.000 C 
ATOM      6  C   UNL     1      -5.763  13.461  22.822  0.00  0.00    +0.000 C 
ATOM      7  C   UNL     1      -6.808  13.262  23.926  0.00  0.00    +0.000 C 
ATOM      8  O   UNL     1      -7.171  11.885  24.025  0.00  0.00    +0.000 OA
ATOM      9  C   UNL     1      -7.917  11.465  22.877  0.00  0.00    +0.000 C 
ATOM     10  C   UNL     1      -7.236  11.832  21.599  0.00  0.00    +0.000 A 
ATOM     11  C   UNL     1      -7.591  11.274  20.391  0.00  0.00    +0.000 A 
ATOM     12  N   UNL     1      -7.040  11.621  19.213  0.00  0.00    +0.000 NA
ATOM     13  C   UNL     1      -6.093  12.566  19.243  0.00  0.00    +0.000 A 
ATOM     14  N   UNL     1      -5.515  13.028  18.075  0.00  0.00    +0.000 N 
ATOM     15  N   UNL     1      -5.675  13.163  20.368  0.00  0.00    +0.000 NA
ATOM     16  C   UNL     1      -6.256  12.804  21.536  0.00  0.00    +0.000 A 
ATOM     17  C   UNL     1      -4.410  12.831  23.204  0.00  0.00    +0.000 C 
ATOM     18  H   UNL     1      -4.624  13.437  18.328  0.00  0.00    +0.000 HD
ENDROOT
BRANCH   1  20
ATOM     19  C   UNL     1       0.053  14.553  22.343  0.00  0.00    +0.000 C 
ATOM     20  C   UNL     1      -1.315  14.490  21.690  0.00  0.00    +0.000 C 
ENDBRANCH   1  20
BRANCH  14  21
ATOM     21  C   UNL     1      -5.442  12.070  16.988  0.00  0.00    +0.000 C 
BRANCH  21  22
ATOM     22  C   UNL     1      -4.179  11.272  17.017  0.00  0.00    +0.000 A 
ATOM     23  C   UNL     1      -2.997  11.349  16.310  0.00  0.00    +0.000 A 
ATOM     24  C   UNL     1      -2.163  10.319  16.810  0.00  0.00    +0.000 A 
ATOM     25  C   UNL     1      -2.887   9.683  17.791  0.00  0.00    +0.000 A 
ATOM     26  O   UNL     1      -4.112  10.255  17.926  0.00  0.00    +0.000 OA
ENDBRANCH  21  22
ENDBRANCH  14  21
TORSDOF 3
ENDMDL
MODEL 7
REMARK VINA RESULT:      -6.4      2.096      2.902
REMARK  Name = 
REMARK  4 active torsions:
REMARK  status: ('A' for Active; 'I' for Inactive)
REMARK    1  A    between atoms: C_1  and  C_2
REMARK    2  A    between atoms: C_2  and  C_3
REMARK    3  A    between atoms: N_16  and  C_17
REMARK    4  A    between atoms: C_17  and  C_18
REMARK                            x       y       z     vdW  Elec       q    Type
REMARK                         _______ _______ _______ _____ _____    ______ ____
ROOT
ATOM      1  C   UNL     1      -3.651  10.662  17.733  0.00  0.00    +0.000 C 
ATOM      2  O   UNL     1      -4.168   9.600  18.079  0.00  0.00    +0.000 OA
ATOM      3  N   UNL     1      -2.312  10.923  17.931  0.00  0.00    +0.000 N 
ATOM      4  C   UNL     1      -1.574  12.095  17.522  0.00  0.00    +0.000 C 
ATOM      5  C   UNL     1      -0.464  12.250  18.553  0.00  0.00    +0.000 C 
ATOM      6  C   UNL     1      -0.427  10.922  19.355  0.00  0.00    +0.000 C 
ATOM      7  C   UNL     1       0.985  10.325  19.320  0.00  0.00    +0.000 C 
ATOM      8  O   UNL     1       1.052   9.161  20.144  0.00  0.00    +0.000 OA
ATOM      9  C   UNL     1       0.945   9.504  21.530  0.00  0.00    +0.000 C 
ATOM     10  C   UNL     1      -0.231  10.384  21.802  0.00  0.00    +0.000 A 
ATOM     11  C   UNL     1      -0.717  10.589  23.075  0.00  0.00    +0.000 A 
ATOM     12  N   UNL     1      -1.737  11.417  23.365  0.00  0.00    +0.000 NA
ATOM     13  C   UNL     1      -2.297  12.069  22.339  0.00  0.00    +0.000 A 
ATOM     14  N   UNL     1      -3.310  12.985  22.550  0.00  0.00    +0.000 N 
ATOM     15  N   UNL     1      -1.901  11.932  21.066  0.00  0.00    +0.000 NA
ATOM     16  C   UNL     1      -0.863  11.103  20.805  0.00  0.00    +0.000 A 
ATOM     17  C   UNL     1      -1.446  10.008  18.649  0.00  0.00    +0.000 C 
ATOM     18  H   UNL     1      -3.813  13.078  21.675  0.00  0.00    +0.000 HD
ENDROOT
BRANCH   1  20
ATOM     19  C   UNL     1      -5.648  12.204  17.888  0.00  0.00    +0.000 C 
ATOM     20  C   UNL     1      -4.449  11.770  17.066  0.00  0.00    +0.000 C 
ENDBRANCH   1  20
BRANCH  14  21
ATOM     21  C   UNL     1      -4.160  12.731  23.699  0.00  0.00    +0.000 C 
BRANCH  21  22
ATOM     22  C   UNL     1      -5.604  12.632  23.327  0.00  0.00    +0.000 A 
ATOM     23  C   UNL     1      -6.775  12.867  24.017  0.00  0.00    +0.000 A 
ATOM     24  C   UNL     1      -7.833  12.616  23.110  0.00  0.00    +0.000 A 
ATOM     25  C   UNL     1      -7.240  12.248  21.925  0.00  0.00    +0.000 A 
ATOM     26  O   UNL     1      -5.887  12.256  22.045  0.00  0.00    +0.000 OA
ENDBRANCH  21  22
ENDBRANCH  14  21
TORSDOF 3
ENDMDL
MODEL 8
REMARK VINA RESULT:      -6.3      7.656      9.970
REMARK  Name = 
REMARK  4 active torsions:
REMARK  status: ('A' for Active; 'I' for Inactive)
REMARK    1  A    between atoms: C_1  and  C_2
REMARK    2  A    between atoms: C_2  and  C_3
REMARK    3  A    between atoms: N_16  and  C_17
REMARK    4  A    between atoms: C_17  and  C_18
REMARK                            x       y       z     vdW  Elec       q    Type
REMARK                         _______ _______ _______ _____ _____    ______ ____
ROOT
ATOM      1  C   UNL     1       7.333   6.379  17.305  0.00  0.00    +0.000 C 
ATOM      2  O   UNL     1       7.220   6.386  16.080  0.00  0.00    +0.000 OA
ATOM      3  N   UNL     1       6.745   5.409  18.089  0.00  0.00    +0.000 N 
ATOM      4  C   UNL     1       6.846   5.252  19.521  0.00  0.00    +0.000 C 
ATOM      5  C   UNL     1       5.534   4.609  19.948  0.00  0.00    +0.000 C 
ATOM      6  C   UNL     1       4.847   4.118  18.647  0.00  0.00    +0.000 C 
ATOM      7  C   UNL     1       4.518   2.624  18.756  0.00  0.00    +0.000 C 
ATOM      8  O   UNL     1       3.790   2.191  17.607  0.00  0.00    +0.000 OA
ATOM      9  C   UNL     1       2.472   2.750  17.592  0.00  0.00    +0.000 C 
ATOM     10  C   UNL     1       2.487   4.230  17.788  0.00  0.00    +0.000 A 
ATOM     11  C   UNL     1       1.394   5.021  17.506  0.00  0.00    +0.000 A 
ATOM     12  N   UNL     1       1.352   6.348  17.724  0.00  0.00    +0.000 NA
ATOM     13  C   UNL     1       2.448   6.912  18.245  0.00  0.00    +0.000 A 
ATOM     14  N   UNL     1       2.472   8.258  18.558  0.00  0.00    +0.000 N 
ATOM     15  N   UNL     1       3.561   6.230  18.547  0.00  0.00    +0.000 NA
ATOM     16  C   UNL     1       3.571   4.893  18.331  0.00  0.00    +0.000 A 
ATOM     17  C   UNL     1       5.873   4.392  17.531  0.00  0.00    +0.000 C 
ATOM     18  H   UNL     1       3.446   8.537  18.585  0.00  0.00    +0.000 HD
ENDROOT
BRANCH   1  20
ATOM     19  C   UNL     1       7.773   8.850  17.608  0.00  0.00    +0.000 C 
ATOM     20  C   UNL     1       8.122   7.441  18.051  0.00  0.00    +0.000 C 
ENDBRANCH   1  20
BRANCH  14  21
ATOM     21  C   UNL     1       1.633   9.110  17.737  0.00  0.00    +0.000 C 
BRANCH  21  22
ATOM     22  C   UNL     1       0.620   9.857  18.544  0.00  0.00    +0.000 A 
ATOM     23  C   UNL     1      -0.674  10.261  18.294  0.00  0.00    +0.000 A 
ATOM     24  C   UNL     1      -1.124  10.916  19.466  0.00  0.00    +0.000 A 
ATOM     25  C   UNL     1      -0.077  10.867  20.356  0.00  0.00    +0.000 A 
ATOM     26  O   UNL     1       0.986  10.224  19.808  0.00  0.00    +0.000 OA
ENDBRANCH  21  22
ENDBRANCH  14  21
TORSDOF 3
ENDMDL
MODEL 9
REMARK VINA RESULT:      -6.3      4.362      6.966
REMARK  Name = 
REMARK  4 active torsions:
REMARK  status: ('A' for Active; 'I' for Inactive)
REMARK    1  A    between atoms: C_1  and  C_2
REMARK    2  A    between atoms: C_2  and  C_3
REMARK    3  A    between atoms: N_16  and  C_17
REMARK    4  A    between atoms: C_17  and  C_18
REMARK                            x       y       z     vdW  Elec       q    Type
REMARK                         _______ _______ _______ _____ _____    ______ ____
ROOT
ATOM      1  C   UNL     1       2.448  13.715  19.475  0.00  0.00    +0.000 C 
ATOM      2  O   UNL     1       3.285  13.739  20.376  0.00  0.00    +0.000 OA
ATOM      3  N   UNL     1       1.109  13.499  19.725  0.00  0.00    +0.000 N 
ATOM      4  C   UNL     1       0.023  13.505  18.773  0.00  0.00    +0.000 C 
ATOM      5  C   UNL     1      -1.009  12.536  19.336  0.00  0.00    +0.000 C 
ATOM      6  C   UNL     1      -0.586  12.253  20.801  0.00  0.00    +0.000 C 
ATOM      7  C   UNL     1      -1.748  12.559  21.753  0.00  0.00    +0.000 C 
ATOM      8  O   UNL     1      -1.401  12.199  23.091  0.00  0.00    +0.000 OA
ATOM      9  C   UNL     1      -1.311  10.777  23.234  0.00  0.00    +0.000 C 
ATOM     10  C   UNL     1      -0.443  10.161  22.187  0.00  0.00    +0.000 A 
ATOM     11  C   UNL     1       0.043   8.876  22.296  0.00  0.00    +0.000 A 
ATOM     12  N   UNL     1       0.780   8.269  21.348  0.00  0.00    +0.000 NA
ATOM     13  C   UNL     1       1.044   8.975  20.242  0.00  0.00    +0.000 A 
ATOM     14  N   UNL     1       1.742   8.410  19.192  0.00  0.00    +0.000 N 
ATOM     15  N   UNL     1       0.623  10.231  20.045  0.00  0.00    +0.000 NA
ATOM     16  C   UNL     1      -0.128  10.813  21.010  0.00  0.00    +0.000 A 
ATOM     17  C   UNL     1       0.614  13.187  21.052  0.00  0.00    +0.000 C 
ATOM     18  H   UNL     1       2.132   9.173  18.652  0.00  0.00    +0.000 HD
ENDROOT
BRANCH   1  20
ATOM     19  C   UNL     1       3.965  14.896  17.834  0.00  0.00    +0.000 C 
ATOM     20  C   UNL     1       2.823  13.914  18.017  0.00  0.00    +0.000 C 
ENDBRANCH   1  20
BRANCH  14  21
ATOM     21  C   UNL     1       2.704   7.385  19.553  0.00  0.00    +0.000 C 
BRANCH  21  22
ATOM     22  C   UNL     1       2.221   6.010  19.222  0.00  0.00    +0.000 A 
ATOM     23  C   UNL     1       1.731   4.972  19.986  0.00  0.00    +0.000 A 
ATOM     24  C   UNL     1       1.419   3.924  19.086  0.00  0.00    +0.000 A 
ATOM     25  C   UNL     1       1.735   4.390  17.832  0.00  0.00    +0.000 A 
ATOM     26  O   UNL     1       2.221   5.656  17.902  0.00  0.00    +0.000 OA
ENDBRANCH  21  22
ENDBRANCH  14  21
TORSDOF 3
ENDMDL
