MODEL 1
REMARK VINA RESULT:      -6.7      0.000      0.000
REMARK  Name = 
REMARK  3 active torsions:
REMARK  status: ('A' for Active; 'I' for Inactive)
REMARK    1  A    between atoms: C_1  and  N_2
REMARK    2  A    between atoms: N_2  and  C_3
REMARK    3  A    between atoms: N_6  and  C_7
REMARK                            x       y       z     vdW  Elec       q    Type
REMARK                         _______ _______ _______ _____ _____    ______ ____
ROOT
ATOM      1  C   UNL     1       2.748   4.741  19.961  0.00  0.00    +0.000 A 
ATOM      2  N   UNL     1       4.021   4.908  19.522  0.00  0.00    +0.000 NA
ATOM      3  C   UNL     1       4.593   4.026  18.673  0.00  0.00    +0.000 A 
ATOM      4  N   UNL     1       5.872   4.289  18.160  0.00  0.00    +0.000 N 
ATOM      5  N   UNL     1       4.005   2.905  18.207  0.00  0.00    +0.000 NA
ATOM      6  C   UNL     1       2.745   2.778  18.642  0.00  0.00    +0.000 A 
ATOM      7  N   UNL     1       1.857   1.793  18.315  0.00  0.00    +0.000 N 
ATOM      8  C   UNL     1       0.679   2.072  18.953  0.00  0.00    +0.000 A 
ATOM      9  N   UNL     1       0.757   3.171  19.675  0.00  0.00    +0.000 NA
ATOM     10  C   UNL     1       2.050   3.621  19.488  0.00  0.00    +0.000 A 
ATOM     11  H   UNL     1       6.094   3.536  17.520  0.00  0.00    +0.000 HD
ATOM     12  H   UNL     1       2.045   1.019  17.697  0.00  0.00    +0.000 HD
ENDROOT
BRANCH   4  13
ATOM     13  C   UNL     1       6.570   5.453  18.126  0.00  0.00    +0.000 A 
ATOM     14  C   UNL     1       7.627   5.734  19.042  0.00  0.00    +0.000 A 
ATOM     15  C   UNL     1       8.251   6.934  18.772  0.00  0.00    +0.000 A 
ATOM     16  S   UNL     1       7.537   7.747  17.449  0.00  0.00    +0.000 S 
ATOM     17  C   UNL     1       6.396   6.492  17.238  0.00  0.00    +0.000 A 
ENDBRANCH   4  13
BRANCH   1  19
ATOM     18  C   UNL     1       1.955   6.986  20.262  0.00  0.00    +0.000 C 
ATOM     19  N   UNL     1       2.167   5.671  20.831  0.00  0.00    +0.000 N 
ATOM     20  H   UNL     1       1.369   5.254  21.302  0.00  0.00    +0.000 HD
ENDBRANCH   1  19
TORSDOF 2
ENDMDL
MODEL 2
REMARK VINA RESULT:      -6.4      2.934      5.728
REMARK  Name = 
REMARK  3 active torsions:
REMARK  status: ('A' for Active; 'I' for Inactive)
REMARK    1  A    between atoms: C_1  and  N_2
REMARK    2  A    between atoms: N_2  and  C_3
REMARK    3  A    between atoms: N_6  and  C_7
REMARK                            x       y       z     vdW  Elec       q    Type
REMARK                         _______ _______ _______ _____ _____    ______ ____
ROOT
ATOM      1  C   UNL     1       6.573   4.637  17.735  0.00  0.00    +0.000 A 
ATOM      2  N   UNL     1       5.337   4.552  18.289  0.00  0.00    +0.000 NA
ATOM      3  C   UNL     1       4.225   4.496  17.523  0.00  0.00    +0.000 A 
ATOM      4  N   UNL     1       2.975   4.302  18.130  0.00  0.00    +0.000 N 
ATOM      5  N   UNL     1       4.209   4.549  16.175  0.00  0.00    +0.000 NA
ATOM      6  C   UNL     1       5.443   4.614  15.657  0.00  0.00    +0.000 A 
ATOM      7  N   UNL     1       5.780   4.625  14.334  0.00  0.00    +0.000 N 
ATOM      8  C   UNL     1       7.146   4.661  14.258  0.00  0.00    +0.000 A 
ATOM      9  N   UNL     1       7.706   4.681  15.449  0.00  0.00    +0.000 NA
ATOM     10  C   UNL     1       6.646   4.654  16.335  0.00  0.00    +0.000 A 
ATOM     11  H   UNL     1       2.291   4.248  17.385  0.00  0.00    +0.000 HD
ATOM     12  H   UNL     1       5.128   4.590  13.565  0.00  0.00    +0.000 HD
ENDROOT
BRANCH   4  13
ATOM     13  C   UNL     1       2.677   3.855  19.377  0.00  0.00    +0.000 A 
ATOM     14  C   UNL     1       2.538   4.738  20.489  0.00  0.00    +0.000 A 
ATOM     15  C   UNL     1       2.151   4.079  21.637  0.00  0.00    +0.000 A 
ATOM     16  S   UNL     1       2.000   2.394  21.392  0.00  0.00    +0.000 S 
ATOM     17  C   UNL     1       2.452   2.548  19.750  0.00  0.00    +0.000 A 
ENDBRANCH   4  13
BRANCH   1  19
ATOM     18  C   UNL     1       7.846   5.885  19.340  0.00  0.00    +0.000 C 
ATOM     19  N   UNL     1       7.714   4.683  18.544  0.00  0.00    +0.000 N 
ATOM     20  H   UNL     1       7.822   3.804  19.042  0.00  0.00    +0.000 HD
ENDBRANCH   1  19
TORSDOF 2
ENDMDL
MODEL 3
REMARK VINA RESULT:      -6.4      3.059      6.187
REMARK  Name = 
REMARK  3 active torsions:
REMARK  status: ('A' for Active; 'I' for Inactive)
REMARK    1  A    between atoms: C_1  and  N_2
REMARK    2  A    between atoms: N_2  and  C_3
REMARK    3  A    between atoms: N_6  and  C_7
REMARK                            x       y       z     vdW  Elec       q    Type
REMARK                         _______ _______ _______ _____ _____    ______ ____
ROOT
ATOM      1  C   UNL     1       5.854   6.085  16.905  0.00  0.00    +0.000 A 
ATOM      2  N   UNL     1       5.365   5.005  17.565  0.00  0.00    +0.000 NA
ATOM      3  C   UNL     1       5.883   4.612  18.751  0.00  0.00    +0.000 A 
ATOM      4  N   UNL     1       5.282   3.557  19.453  0.00  0.00    +0.000 N 
ATOM      5  N   UNL     1       6.924   5.201  19.375  0.00  0.00    +0.000 NA
ATOM      6  C   UNL     1       7.372   6.273  18.709  0.00  0.00    +0.000 A 
ATOM      7  N   UNL     1       8.372   7.120  19.091  0.00  0.00    +0.000 N 
ATOM      8  C   UNL     1       8.473   8.095  18.136  0.00  0.00    +0.000 A 
ATOM      9  N   UNL     1       7.607   7.921  17.160  0.00  0.00    +0.000 NA
ATOM     10  C   UNL     1       6.911   6.779  17.508  0.00  0.00    +0.000 A 
ATOM     11  H   UNL     1       5.792   3.453  20.322  0.00  0.00    +0.000 HD
ATOM     12  H   UNL     1       8.913   7.041  19.939  0.00  0.00    +0.000 HD
ENDROOT
BRANCH   4  13
ATOM     13  C   UNL     1       4.050   3.007  19.304  0.00  0.00    +0.000 A 
ATOM     14  C   UNL     1       3.784   1.980  18.351  0.00  0.00    +0.000 A 
ATOM     15  C   UNL     1       2.490   1.511  18.431  0.00  0.00    +0.000 A 
ATOM     16  S   UNL     1       1.578   2.338  19.616  0.00  0.00    +0.000 S 
ATOM     17  C   UNL     1       2.916   3.320  20.023  0.00  0.00    +0.000 A 
ENDBRANCH   4  13
BRANCH   1  19
ATOM     18  C   UNL     1       5.453   5.530  14.605  0.00  0.00    +0.000 C 
ATOM     19  N   UNL     1       5.298   6.484  15.684  0.00  0.00    +0.000 N 
ATOM     20  H   UNL     1       4.359   6.842  15.831  0.00  0.00    +0.000 HD
ENDBRANCH   1  19
TORSDOF 2
ENDMDL
MODEL 4
REMARK VINA RESULT:      -6.4      3.004      6.141
REMARK  Name = 
REMARK  3 active torsions:
REMARK  status: ('A' for Active; 'I' for Inactive)
REMARK    1  A    between atoms: C_1  and  N_2
REMARK    2  A    between atoms: N_2  and  C_3
REMARK    3  A    between atoms: N_6  and  C_7
REMARK                            x       y       z     vdW  Elec       q    Type
REMARK                         _______ _______ _______ _____ _____    ______ ____
ROOT
ATOM      1  C   UNL     1       5.770   5.877  16.961  0.00  0.00    +0.000 A 
ATOM      2  N   UNL     1       5.243   4.862  17.689  0.00  0.00    +0.000 NA
ATOM      3  C   UNL     1       5.727   4.549  18.912  0.00  0.00    +0.000 A 
ATOM      4  N   UNL     1       5.087   3.562  19.678  0.00  0.00    +0.000 N 
ATOM      5  N   UNL     1       6.767   5.161  19.514  0.00  0.00    +0.000 NA
ATOM      6  C   UNL     1       7.253   6.170  18.780  0.00  0.00    +0.000 A 
ATOM      7  N   UNL     1       8.263   7.023  19.121  0.00  0.00    +0.000 N 
ATOM      8  C   UNL     1       8.407   7.920  18.097  0.00  0.00    +0.000 A 
ATOM      9  N   UNL     1       7.558   7.691  17.117  0.00  0.00    +0.000 NA
ATOM     10  C   UNL     1       6.830   6.594  17.534  0.00  0.00    +0.000 A 
ATOM     11  H   UNL     1       5.576   3.514  20.564  0.00  0.00    +0.000 HD
ATOM     12  H   UNL     1       8.784   6.997  19.984  0.00  0.00    +0.000 HD
ENDROOT
BRANCH   4  13
ATOM     13  C   UNL     1       3.847   3.028  19.542  0.00  0.00    +0.000 A 
ATOM     14  C   UNL     1       2.816   3.243  20.505  0.00  0.00    +0.000 A 
ATOM     15  C   UNL     1       1.616   2.679  20.124  0.00  0.00    +0.000 A 
ATOM     16  S   UNL     1       1.739   1.851  18.634  0.00  0.00    +0.000 S 
ATOM     17  C   UNL     1       3.396   2.248  18.499  0.00  0.00    +0.000 A 
ENDBRANCH   4  13
BRANCH   1  19
ATOM     18  C   UNL     1       5.600   5.265  14.647  0.00  0.00    +0.000 C 
ATOM     19  N   UNL     1       5.249   6.194  15.701  0.00  0.00    +0.000 N 
ATOM     20  H   UNL     1       4.263   6.426  15.781  0.00  0.00    +0.000 HD
ENDBRANCH   1  19
TORSDOF 2
ENDMDL
MODEL 5
REMARK VINA RESULT:      -6.2      2.841      5.792
REMARK  Name = 
REMARK  3 active torsions:
REMARK  status: ('A' for Active; 'I' for Inactive)
REMARK    1  A    between atoms: C_1  and  N_2
REMARK    2  A    between atoms: N_2  and  C_3
REMARK    3  A    between atoms: N_6  and  C_7
REMARK                            x       y       z     vdW  Elec       q    Type
REMARK                         _______ _______ _______ _____ _____    ______ ____
ROOT
ATOM      1  C   UNL     1       6.437   4.617  17.752  0.00  0.00    +0.000 A 
ATOM      2  N   UNL     1       5.171   4.515  18.231  0.00  0.00    +0.000 NA
ATOM      3  C   UNL     1       4.107   4.465  17.399  0.00  0.00    +0.000 A 
ATOM      4  N   UNL     1       2.825   4.252  17.927  0.00  0.00    +0.000 N 
ATOM      5  N   UNL     1       4.171   4.540  16.053  0.00  0.00    +0.000 NA
ATOM      6  C   UNL     1       5.432   4.622  15.611  0.00  0.00    +0.000 A 
ATOM      7  N   UNL     1       5.846   4.656  14.311  0.00  0.00    +0.000 N 
ATOM      8  C   UNL     1       7.214   4.703  14.316  0.00  0.00    +0.000 A 
ATOM      9  N   UNL     1       7.703   4.707  15.539  0.00  0.00    +0.000 NA
ATOM     10  C   UNL     1       6.593   4.658  16.360  0.00  0.00    +0.000 A 
ATOM     11  H   UNL     1       2.186   4.207  17.142  0.00  0.00    +0.000 HD
ATOM     12  H   UNL     1       5.242   4.630  13.504  0.00  0.00    +0.000 HD
ENDROOT
BRANCH   4  13
ATOM     13  C   UNL     1       2.457   3.783  19.147  0.00  0.00    +0.000 A 
ATOM     14  C   UNL     1       1.978   2.453  19.338  0.00  0.00    +0.000 A 
ATOM     15  C   UNL     1       1.744   2.165  20.667  0.00  0.00    +0.000 A 
ATOM     16  S   UNL     1       2.052   3.507  21.680  0.00  0.00    +0.000 S 
ATOM     17  C   UNL     1       2.500   4.471  20.341  0.00  0.00    +0.000 A 
ENDBRANCH   4  13
BRANCH   1  19
ATOM     18  C   UNL     1       7.908   5.984  19.064  0.00  0.00    +0.000 C 
ATOM     19  N   UNL     1       7.528   4.657  18.628  0.00  0.00    +0.000 N 
ATOM     20  H   UNL     1       7.410   3.963  19.361  0.00  0.00    +0.000 HD
ENDBRANCH   1  19
TORSDOF 2
ENDMDL
MODEL 6
REMARK VINA RESULT:      -6.1      3.143      5.569
REMARK  Name = 
REMARK  3 active torsions:
REMARK  status: ('A' for Active; 'I' for Inactive)
REMARK    1  A    between atoms: C_1  and  N_2
REMARK    2  A    between atoms: N_2  and  C_3
REMARK    3  A    between atoms: N_6  and  C_7
REMARK                            x       y       z     vdW  Elec       q    Type
REMARK                         _______ _______ _______ _____ _____    ______ ____
ROOT
ATOM      1  C   UNL     1       4.576   5.759  16.851  0.00  0.00    +0.000 A 
ATOM      2  N   UNL     1       3.820   4.851  17.517  0.00  0.00    +0.000 NA
ATOM      3  C   UNL     1       3.933   3.526  17.272  0.00  0.00    +0.000 A 
ATOM      4  N   UNL     1       3.212   2.613  18.056  0.00  0.00    +0.000 N 
ATOM      5  N   UNL     1       4.753   2.975  16.353  0.00  0.00    +0.000 NA
ATOM      6  C   UNL     1       5.498   3.894  15.726  0.00  0.00    +0.000 A 
ATOM      7  N   UNL     1       6.462   3.668  14.786  0.00  0.00    +0.000 N 
ATOM      8  C   UNL     1       6.994   4.882  14.443  0.00  0.00    +0.000 A 
ATOM      9  N   UNL     1       6.427   5.872  15.099  0.00  0.00    +0.000 NA
ATOM     10  C   UNL     1       5.486   5.264  15.906  0.00  0.00    +0.000 A 
ATOM     11  H   UNL     1       3.469   1.686  17.740  0.00  0.00    +0.000 HD
ATOM     12  H   UNL     1       6.735   2.764  14.434  0.00  0.00    +0.000 HD
ENDROOT
BRANCH   4  13
ATOM     13  C   UNL     1       2.605   2.791  19.257  0.00  0.00    +0.000 A 
ATOM     14  C   UNL     1       1.215   3.093  19.371  0.00  0.00    +0.000 A 
ATOM     15  C   UNL     1       0.796   3.147  20.684  0.00  0.00    +0.000 A 
ATOM     16  S   UNL     1       2.079   2.885  21.781  0.00  0.00    +0.000 S 
ATOM     17  C   UNL     1       3.195   2.696  20.499  0.00  0.00    +0.000 A 
ENDBRANCH   4  13
BRANCH   1  19
ATOM     18  C   UNL     1       3.241   7.498  17.826  0.00  0.00    +0.000 C 
ATOM     19  N   UNL     1       4.452   7.126  17.125  0.00  0.00    +0.000 N 
ATOM     20  H   UNL     1       5.320   7.481  17.514  0.00  0.00    +0.000 HD
ENDBRANCH   1  19
TORSDOF 2
ENDMDL
MODEL 7
REMARK VINA RESULT:      -6.1      2.973      5.780
REMARK  Name = 
REMARK  3 active torsions:
REMARK  status: ('A' for Active; 'I' for Inactive)
REMARK    1  A    between atoms: C_1  and  N_2
REMARK    2  A    between atoms: N_2  and  C_3
REMARK    3  A    between atoms: N_6  and  C_7
REMARK                            x       y       z     vdW  Elec       q    Type
REMARK                         _______ _______ _______ _____ _____    ______ ____
ROOT
ATOM      1  C   UNL     1       5.036   6.342  17.575  0.00  0.00    +0.000 A 
ATOM      2  N   UNL     1       4.604   5.147  18.051  0.00  0.00    +0.000 NA
ATOM      3  C   UNL     1       5.399   4.365  18.815  0.00  0.00    +0.000 A 
ATOM      4  N   UNL     1       4.879   3.188  19.375  0.00  0.00    +0.000 N 
ATOM      5  N   UNL     1       6.672   4.651  19.154  0.00  0.00    +0.000 NA
ATOM      6  C   UNL     1       7.064   5.843  18.686  0.00  0.00    +0.000 A 
ATOM      7  N   UNL     1       8.267   6.454  18.894  0.00  0.00    +0.000 N 
ATOM      8  C   UNL     1       8.226   7.670  18.267  0.00  0.00    +0.000 A 
ATOM      9  N   UNL     1       7.074   7.874  17.663  0.00  0.00    +0.000 NA
ATOM     10  C   UNL     1       6.337   6.734  17.918  0.00  0.00    +0.000 A 
ATOM     11  H   UNL     1       5.616   2.780  19.938  0.00  0.00    +0.000 HD
ATOM     12  H   UNL     1       9.030   6.073  19.433  0.00  0.00    +0.000 HD
ENDROOT
BRANCH   4  13
ATOM     13  C   UNL     1       3.588   2.802  19.540  0.00  0.00    +0.000 A 
ATOM     14  C   UNL     1       2.906   2.937  20.786  0.00  0.00    +0.000 A 
ATOM     15  C   UNL     1       1.582   2.562  20.702  0.00  0.00    +0.000 A 
ATOM     16  S   UNL     1       1.168   2.002  19.141  0.00  0.00    +0.000 S 
ATOM     17  C   UNL     1       2.761   2.264  18.578  0.00  0.00    +0.000 A 
ENDBRANCH   4  13
BRANCH   1  19
ATOM     18  C   UNL     1       3.149   7.822  17.528  0.00  0.00    +0.000 C 
ATOM     19  N   UNL     1       4.196   7.143  16.794  0.00  0.00    +0.000 N 
ATOM     20  H   UNL     1       4.750   7.721  16.169  0.00  0.00    +0.000 HD
ENDBRANCH   1  19
TORSDOF 2
ENDMDL
MODEL 8
REMARK VINA RESULT:      -5.9      3.028      4.291
REMARK  Name = 
REMARK  3 active torsions:
REMARK  status: ('A' for Active; 'I' for Inactive)
REMARK    1  A    between atoms: C_1  and  N_2
REMARK    2  A    between atoms: N_2  and  C_3
REMARK    3  A    between atoms: N_6  and  C_7
REMARK                            x       y       z     vdW  Elec       q    Type
REMARK                         _______ _______ _______ _____ _____    ______ ____
ROOT
ATOM      1  C   UNL     1       1.813   3.975  19.719  0.00  0.00    +0.000 A 
ATOM      2  N   UNL     1       1.984   5.313  19.575  0.00  0.00    +0.000 NA
ATOM      3  C   UNL     1       2.930   5.816  18.750  0.00  0.00    +0.000 A 
ATOM      4  N   UNL     1       3.005   7.203  18.547  0.00  0.00    +0.000 N 
ATOM      5  N   UNL     1       3.800   5.080  18.029  0.00  0.00    +0.000 NA
ATOM      6  C   UNL     1       3.595   3.766  18.178  0.00  0.00    +0.000 A 
ATOM      7  N   UNL     1       4.261   2.753  17.550  0.00  0.00    +0.000 N 
ATOM      8  C   UNL     1       3.705   1.574  17.966  0.00  0.00    +0.000 A 
ATOM      9  N   UNL     1       2.729   1.766  18.828  0.00  0.00    +0.000 NA
ATOM     10  C   UNL     1       2.652   3.138  18.970  0.00  0.00    +0.000 A 
ATOM     11  H   UNL     1       3.742   7.362  17.872  0.00  0.00    +0.000 HD
ATOM     12  H   UNL     1       5.010   2.870  16.885  0.00  0.00    +0.000 HD
ENDROOT
BRANCH   4  13
ATOM     13  C   UNL     1       2.088   8.168  18.812  0.00  0.00    +0.000 A 
ATOM     14  C   UNL     1       1.588   8.405  20.127  0.00  0.00    +0.000 A 
ATOM     15  C   UNL     1       0.733   9.486  20.177  0.00  0.00    +0.000 A 
ATOM     16  S   UNL     1       0.491  10.187  18.638  0.00  0.00    +0.000 S 
ATOM     17  C   UNL     1       1.532   9.046  17.906  0.00  0.00    +0.000 A 
ENDBRANCH   4  13
BRANCH   1  19
ATOM     18  C   UNL     1       1.319   2.759  21.727  0.00  0.00    +0.000 C 
ATOM     19  N   UNL     1       0.822   3.472  20.570  0.00  0.00    +0.000 N 
ATOM     20  H   UNL     1       0.126   4.189  20.753  0.00  0.00    +0.000 HD
ENDBRANCH   1  19
TORSDOF 2
ENDMDL
MODEL 9
REMARK VINA RESULT:      -5.9      4.205      6.131
REMARK  Name = 
REMARK  3 active torsions:
REMARK  status: ('A' for Active; 'I' for Inactive)
REMARK    1  A    between atoms: C_1  and  N_2
REMARK    2  A    between atoms: N_2  and  C_3
REMARK    3  A    between atoms: N_6  and  C_7
REMARK                            x       y       z     vdW  Elec       q    Type
REMARK                         _______ _______ _______ _____ _____    ______ ____
ROOT
ATOM      1  C   UNL     1       5.380   3.884  16.941  0.00  0.00    +0.000 A 
ATOM      2  N   UNL     1       5.511   3.921  15.591  0.00  0.00    +0.000 NA
ATOM      3  C   UNL     1       6.436   4.708  14.996  0.00  0.00    +0.000 A 
ATOM      4  N   UNL     1       6.611   4.638  13.606  0.00  0.00    +0.000 N 
ATOM      5  N   UNL     1       7.279   5.538  15.643  0.00  0.00    +0.000 NA
ATOM      6  C   UNL     1       7.139   5.465  16.972  0.00  0.00    +0.000 A 
ATOM      7  N   UNL     1       7.871   6.129  17.914  0.00  0.00    +0.000 N 
ATOM      8  C   UNL     1       7.418   5.732  19.143  0.00  0.00    +0.000 A 
ATOM      9  N   UNL     1       6.435   4.861  19.049  0.00  0.00    +0.000 NA
ATOM     10  C   UNL     1       6.250   4.688  17.691  0.00  0.00    +0.000 A 
ATOM     11  H   UNL     1       7.370   5.267  13.373  0.00  0.00    +0.000 HD
ATOM     12  H   UNL     1       8.622   6.775  17.722  0.00  0.00    +0.000 HD
ENDROOT
BRANCH   4  13
ATOM     13  C   UNL     1       6.209   3.684  12.727  0.00  0.00    +0.000 A 
ATOM     14  C   UNL     1       4.867   3.605  12.251  0.00  0.00    +0.000 A 
ATOM     15  C   UNL     1       4.704   2.615  11.304  0.00  0.00    +0.000 A 
ATOM     16  S   UNL     1       6.149   1.748  11.024  0.00  0.00    +0.000 S 
ATOM     17  C   UNL     1       6.993   2.699  12.167  0.00  0.00    +0.000 A 
ENDBRANCH   4  13
BRANCH   1  19
ATOM     18  C   UNL     1       3.094   3.619  17.617  0.00  0.00    +0.000 C 
ATOM     19  N   UNL     1       4.425   3.055  17.541  0.00  0.00    +0.000 N 
ATOM     20  H   UNL     1       4.491   2.117  17.158  0.00  0.00    +0.000 HD
ENDBRANCH   1  19
TORSDOF 2
ENDMDL
