MODEL 1
REMARK VINA RESULT:      -6.9      0.000      0.000
REMARK  Name = 
REMARK  4 active torsions:
REMARK  status: ('A' for Active; 'I' for Inactive)
REMARK    1  A    between atoms: C_1  and  O_2
REMARK    2  A    between atoms: O_2  and  P_3
REMARK    3  A    between atoms: C_7  and  C_8
REMARK    4  A    between atoms: C_8  and  C_9
REMARK                            x       y       z     vdW  Elec       q    Type
REMARK                         _______ _______ _______ _____ _____    ______ ____
ROOT
ATOM      1  P   UNL     1       6.552   5.324  16.587  0.00  0.00    +0.000 P 
ATOM      2  S   UNL     1       6.180   4.468  14.894  0.00  0.00    +0.000 S 
ATOM      3  N   UNL     1       6.713   4.401  17.955  0.00  0.00    +0.000 NA
ATOM      4  C   UNL     1       5.337   4.217  18.444  0.00  0.00    +0.000 C 
ATOM      5  C   UNL     1       4.594   5.547  18.171  0.00  0.00    +0.000 C 
ATOM      6  O   UNL     1       5.327   6.228  17.135  0.00  0.00    +0.000 OA
ATOM      7  H   UNL     1       7.232   4.943  18.643  0.00  0.00    +0.000 HD
ENDROOT
BRANCH   1   9
ATOM      8  C   UNL     1       7.593   7.503  17.511  0.00  0.00    +0.000 C 
ATOM      9  O   UNL     1       7.749   6.403  16.629  0.00  0.00    +0.000 OA
ENDBRANCH   1   9
BRANCH   5  10
ATOM     10  C   UNL     1       3.161   5.334  17.674  0.00  0.00    +0.000 C 
BRANCH  10  11
ATOM     11  C   UNL     1       2.353   4.503  18.645  0.00  0.00    +0.000 A 
ATOM     12  C   UNL     1       1.679   3.352  18.205  0.00  0.00    +0.000 A 
ATOM     13  C   UNL     1       0.899   2.603  19.086  0.00  0.00    +0.000 A 
ATOM     14  C   UNL     1       0.791   2.991  20.418  0.00  0.00    +0.000 A 
ATOM     15  C   UNL     1       1.452   4.134  20.867  0.00  0.00    +0.000 A 
ATOM     16  C   UNL     1       2.231   4.890  19.985  0.00  0.00    +0.000 A 
ENDBRANCH  10  11
ENDBRANCH   5  10
TORSDOF 3
ENDMDL
MODEL 2
REMARK VINA RESULT:      -6.9      0.128      1.253
REMARK  Name = 
REMARK  4 active torsions:
REMARK  status: ('A' for Active; 'I' for Inactive)
REMARK    1  A    between atoms: C_1  and  O_2
REMARK    2  A    between atoms: O_2  and  P_3
REMARK    3  A    between atoms: C_7  and  C_8
REMARK    4  A    between atoms: C_8  and  C_9
REMARK                            x       y       z     vdW  Elec       q    Type
REMARK                         _______ _______ _______ _____ _____    ______ ____
ROOT
ATOM      1  P   UNL     1       6.618   5.422  16.632  0.00  0.00    +0.000 P 
ATOM      2  S   UNL     1       6.265   4.709  14.871  0.00  0.00    +0.000 S 
ATOM      3  N   UNL     1       6.735   4.391  17.927  0.00  0.00    +0.000 NA
ATOM      4  C   UNL     1       5.347   4.196  18.374  0.00  0.00    +0.000 C 
ATOM      5  C   UNL     1       4.633   5.558  18.193  0.00  0.00    +0.000 C 
ATOM      6  O   UNL     1       5.398   6.303  17.228  0.00  0.00    +0.000 OA
ATOM      7  H   UNL     1       7.250   4.868  18.665  0.00  0.00    +0.000 HD
ENDROOT
BRANCH   1   9
ATOM      8  C   UNL     1       7.571   7.658  17.513  0.00  0.00    +0.000 C 
ATOM      9  O   UNL     1       7.833   6.471  16.782  0.00  0.00    +0.000 OA
ENDBRANCH   1   9
BRANCH   5  10
ATOM     10  C   UNL     1       3.207   5.412  17.654  0.00  0.00    +0.000 C 
BRANCH  10  11
ATOM     11  C   UNL     1       2.341   4.591  18.584  0.00  0.00    +0.000 A 
ATOM     12  C   UNL     1       2.178   4.974  19.925  0.00  0.00    +0.000 A 
ATOM     13  C   UNL     1       1.414   4.200  20.798  0.00  0.00    +0.000 A 
ATOM     14  C   UNL     1       0.798   3.039  20.339  0.00  0.00    +0.000 A 
ATOM     15  C   UNL     1       0.956   2.646  19.010  0.00  0.00    +0.000 A 
ATOM     16  C   UNL     1       1.725   3.418  18.133  0.00  0.00    +0.000 A 
ENDBRANCH  10  11
ENDBRANCH   5  10
TORSDOF 3
ENDMDL
MODEL 3
REMARK VINA RESULT:      -6.6      1.969      2.155
REMARK  Name = 
REMARK  4 active torsions:
REMARK  status: ('A' for Active; 'I' for Inactive)
REMARK    1  A    between atoms: C_1  and  O_2
REMARK    2  A    between atoms: O_2  and  P_3
REMARK    3  A    between atoms: C_7  and  C_8
REMARK    4  A    between atoms: C_8  and  C_9
REMARK                            x       y       z     vdW  Elec       q    Type
REMARK                         _______ _______ _______ _____ _____    ______ ____
ROOT
ATOM      1  P   UNL     1       6.808   5.616  17.335  0.00  0.00    +0.000 P 
ATOM      2  S   UNL     1       7.847   6.110  18.888  0.00  0.00    +0.000 S 
ATOM      3  N   UNL     1       6.119   6.798  16.398  0.00  0.00    +0.000 NA
ATOM      4  C   UNL     1       4.837   7.095  17.057  0.00  0.00    +0.000 C 
ATOM      5  C   UNL     1       4.296   5.747  17.591  0.00  0.00    +0.000 C 
ATOM      6  O   UNL     1       5.425   4.859  17.699  0.00  0.00    +0.000 OA
ATOM      7  H   UNL     1       5.927   6.401  15.480  0.00  0.00    +0.000 HD
ENDROOT
BRANCH   1   9
ATOM      8  C   UNL     1       6.763   4.320  15.098  0.00  0.00    +0.000 C 
ATOM      9  O   UNL     1       7.459   4.553  16.312  0.00  0.00    +0.000 OA
ENDBRANCH   1   9
BRANCH   5  10
ATOM     10  C   UNL     1       3.660   5.872  18.980  0.00  0.00    +0.000 C 
BRANCH  10  11
ATOM     11  C   UNL     1       2.644   4.779  19.226  0.00  0.00    +0.000 A 
ATOM     12  C   UNL     1       2.151   4.013  18.158  0.00  0.00    +0.000 A 
ATOM     13  C   UNL     1       1.185   3.031  18.372  0.00  0.00    +0.000 A 
ATOM     14  C   UNL     1       0.706   2.798  19.658  0.00  0.00    +0.000 A 
ATOM     15  C   UNL     1       1.185   3.554  20.728  0.00  0.00    +0.000 A 
ATOM     16  C   UNL     1       2.151   4.543  20.515  0.00  0.00    +0.000 A 
ENDBRANCH  10  11
ENDBRANCH   5  10
TORSDOF 3
ENDMDL
MODEL 4
REMARK VINA RESULT:      -6.6      2.001      2.431
REMARK  Name = 
REMARK  4 active torsions:
REMARK  status: ('A' for Active; 'I' for Inactive)
REMARK    1  A    between atoms: C_1  and  O_2
REMARK    2  A    between atoms: O_2  and  P_3
REMARK    3  A    between atoms: C_7  and  C_8
REMARK    4  A    between atoms: C_8  and  C_9
REMARK                            x       y       z     vdW  Elec       q    Type
REMARK                         _______ _______ _______ _____ _____    ______ ____
ROOT
ATOM      1  P   UNL     1       6.757   5.833  16.987  0.00  0.00    +0.000 P 
ATOM      2  S   UNL     1       7.808   6.654  18.386  0.00  0.00    +0.000 S 
ATOM      3  N   UNL     1       5.827   6.782  15.994  0.00  0.00    +0.000 NA
ATOM      4  C   UNL     1       4.563   6.960  16.726  0.00  0.00    +0.000 C 
ATOM      5  C   UNL     1       4.279   5.617  17.441  0.00  0.00    +0.000 C 
ATOM      6  O   UNL     1       5.538   4.926  17.544  0.00  0.00    +0.000 OA
ATOM      7  H   UNL     1       5.639   6.258  15.142  0.00  0.00    +0.000 HD
ENDROOT
BRANCH   1   9
ATOM      8  C   UNL     1       7.042   4.687  14.687  0.00  0.00    +0.000 C 
ATOM      9  O   UNL     1       7.496   4.767  16.028  0.00  0.00    +0.000 OA
ENDBRANCH   1   9
BRANCH   5  10
ATOM     10  C   UNL     1       3.727   5.805  18.858  0.00  0.00    +0.000 C 
BRANCH  10  11
ATOM     11  C   UNL     1       2.650   4.793  19.175  0.00  0.00    +0.000 A 
ATOM     12  C   UNL     1       2.176   4.648  20.489  0.00  0.00    +0.000 A 
ATOM     13  C   UNL     1       1.211   3.689  20.796  0.00  0.00    +0.000 A 
ATOM     14  C   UNL     1       0.703   2.871  19.792  0.00  0.00    +0.000 A 
ATOM     15  C   UNL     1       1.167   3.002  18.483  0.00  0.00    +0.000 A 
ATOM     16  C   UNL     1       2.138   3.960  18.174  0.00  0.00    +0.000 A 
ENDBRANCH  10  11
ENDBRANCH   5  10
TORSDOF 3
ENDMDL
MODEL 5
REMARK VINA RESULT:      -6.4      1.976      2.473
REMARK  Name = 
REMARK  4 active torsions:
REMARK  status: ('A' for Active; 'I' for Inactive)
REMARK    1  A    between atoms: C_1  and  O_2
REMARK    2  A    between atoms: O_2  and  P_3
REMARK    3  A    between atoms: C_7  and  C_8
REMARK    4  A    between atoms: C_8  and  C_9
REMARK                            x       y       z     vdW  Elec       q    Type
REMARK                         _______ _______ _______ _____ _____    ______ ____
ROOT
ATOM      1  P   UNL     1       6.668   5.827  16.828  0.00  0.00    +0.000 P 
ATOM      2  S   UNL     1       7.669   6.489  18.343  0.00  0.00    +0.000 S 
ATOM      3  N   UNL     1       5.179   6.471  16.482  0.00  0.00    +0.000 NA
ATOM      4  C   UNL     1       4.241   5.716  17.327  0.00  0.00    +0.000 C 
ATOM      5  C   UNL     1       4.758   4.258  17.360  0.00  0.00    +0.000 C 
ATOM      6  O   UNL     1       6.154   4.303  17.011  0.00  0.00    +0.000 OA
ATOM      7  H   UNL     1       4.969   6.273  15.505  0.00  0.00    +0.000 HD
ENDROOT
BRANCH   1   9
ATOM      8  C   UNL     1       6.941   4.755  14.490  0.00  0.00    +0.000 C 
ATOM      9  O   UNL     1       7.443   5.702  15.419  0.00  0.00    +0.000 OA
ENDBRANCH   1   9
BRANCH   5  10
ATOM     10  C   UNL     1       4.638   3.618  18.747  0.00  0.00    +0.000 C 
BRANCH  10  11
ATOM     11  C   UNL     1       3.194   3.470  19.169  0.00  0.00    +0.000 A 
ATOM     12  C   UNL     1       2.733   4.079  20.348  0.00  0.00    +0.000 A 
ATOM     13  C   UNL     1       1.412   3.914  20.765  0.00  0.00    +0.000 A 
ATOM     14  C   UNL     1       0.535   3.147  20.004  0.00  0.00    +0.000 A 
ATOM     15  C   UNL     1       0.981   2.534  18.833  0.00  0.00    +0.000 A 
ATOM     16  C   UNL     1       2.307   2.694  18.415  0.00  0.00    +0.000 A 
ENDBRANCH  10  11
ENDBRANCH   5  10
TORSDOF 3
ENDMDL
MODEL 6
REMARK VINA RESULT:      -6.4      2.063      2.205
REMARK  Name = 
REMARK  4 active torsions:
REMARK  status: ('A' for Active; 'I' for Inactive)
REMARK    1  A    between atoms: C_1  and  O_2
REMARK    2  A    between atoms: O_2  and  P_3
REMARK    3  A    between atoms: C_7  and  C_8
REMARK    4  A    between atoms: C_8  and  C_9
REMARK                            x       y       z     vdW  Elec       q    Type
REMARK                         _______ _______ _______ _____ _____    ______ ____
ROOT
ATOM      1  P   UNL     1       6.812   6.239  16.683  0.00  0.00    +0.000 P 
ATOM      2  S   UNL     1       7.749   7.481  17.830  0.00  0.00    +0.000 S 
ATOM      3  N   UNL     1       5.374   6.687  15.988  0.00  0.00    +0.000 NA
ATOM      4  C   UNL     1       4.357   6.385  17.008  0.00  0.00    +0.000 C 
ATOM      5  C   UNL     1       4.811   5.079  17.704  0.00  0.00    +0.000 C 
ATOM      6  O   UNL     1       6.225   4.952  17.470  0.00  0.00    +0.000 OA
ATOM      7  H   UNL     1       5.213   6.088  15.181  0.00  0.00    +0.000 HD
ENDROOT
BRANCH   1   9
ATOM      8  C   UNL     1       6.930   4.778  14.553  0.00  0.00    +0.000 C 
ATOM      9  O   UNL     1       7.662   5.507  15.525  0.00  0.00    +0.000 OA
ENDBRANCH   1   9
BRANCH   5  10
ATOM     10  C   UNL     1       4.584   5.106  19.219  0.00  0.00    +0.000 C 
BRANCH  10  11
ATOM     11  C   UNL     1       3.346   4.331  19.610  0.00  0.00    +0.000 A 
ATOM     12  C   UNL     1       3.174   3.004  19.183  0.00  0.00    +0.000 A 
ATOM     13  C   UNL     1       2.017   2.296  19.507  0.00  0.00    +0.000 A 
ATOM     14  C   UNL     1       1.022   2.903  20.267  0.00  0.00    +0.000 A 
ATOM     15  C   UNL     1       1.178   4.222  20.695  0.00  0.00    +0.000 A 
ATOM     16  C   UNL     1       2.336   4.936  20.368  0.00  0.00    +0.000 A 
ENDBRANCH  10  11
ENDBRANCH   5  10
TORSDOF 3
ENDMDL
MODEL 7
REMARK VINA RESULT:      -6.3      2.164      2.293
REMARK  Name = 
REMARK  4 active torsions:
REMARK  status: ('A' for Active; 'I' for Inactive)
REMARK    1  A    between atoms: C_1  and  O_2
REMARK    2  A    between atoms: O_2  and  P_3
REMARK    3  A    between atoms: C_7  and  C_8
REMARK    4  A    between atoms: C_8  and  C_9
REMARK                            x       y       z     vdW  Elec       q    Type
REMARK                         _______ _______ _______ _____ _____    ______ ____
ROOT
ATOM      1  P   UNL     1       6.092   5.166  16.612  0.00  0.00    +0.000 P 
ATOM      2  S   UNL     1       7.556   4.718  17.791  0.00  0.00    +0.000 S 
ATOM      3  N   UNL     1       4.849   6.113  17.169  0.00  0.00    +0.000 NA
ATOM      4  C   UNL     1       3.927   5.170  17.822  0.00  0.00    +0.000 C 
ATOM      5  C   UNL     1       3.945   3.879  16.969  0.00  0.00    +0.000 C 
ATOM      6  O   UNL     1       5.172   3.896  16.215  0.00  0.00    +0.000 OA
ATOM      7  H   UNL     1       4.379   6.523  16.364  0.00  0.00    +0.000 HD
ENDROOT
BRANCH   1   9
ATOM      8  C   UNL     1       6.755   4.764  14.145  0.00  0.00    +0.000 C 
ATOM      9  O   UNL     1       6.461   5.726  15.145  0.00  0.00    +0.000 OA
ENDBRANCH   1   9
BRANCH   5  10
ATOM     10  C   UNL     1       3.933   2.606  17.821  0.00  0.00    +0.000 C 
BRANCH  10  11
ATOM     11  C   UNL     1       2.966   2.720  18.979  0.00  0.00    +0.000 A 
ATOM     12  C   UNL     1       1.595   2.912  18.742  0.00  0.00    +0.000 A 
ATOM     13  C   UNL     1       0.703   3.058  19.804  0.00  0.00    +0.000 A 
ATOM     14  C   UNL     1       1.170   3.006  21.114  0.00  0.00    +0.000 A 
ATOM     15  C   UNL     1       2.530   2.821  21.363  0.00  0.00    +0.000 A 
ATOM     16  C   UNL     1       3.427   2.678  20.299  0.00  0.00    +0.000 A 
ENDBRANCH  10  11
ENDBRANCH   5  10
TORSDOF 3
ENDMDL
MODEL 8
REMARK VINA RESULT:      -6.3      1.786      1.820
REMARK  Name = 
REMARK  4 active torsions:
REMARK  status: ('A' for Active; 'I' for Inactive)
REMARK    1  A    between atoms: C_1  and  O_2
REMARK    2  A    between atoms: O_2  and  P_3
REMARK    3  A    between atoms: C_7  and  C_8
REMARK    4  A    between atoms: C_8  and  C_9
REMARK                            x       y       z     vdW  Elec       q    Type
REMARK                         _______ _______ _______ _____ _____    ______ ____
ROOT
ATOM      1  P   UNL     1       7.008   5.241  17.676  0.00  0.00    +0.000 P 
ATOM      2  S   UNL     1       6.912   7.130  17.280  0.00  0.00    +0.000 S 
ATOM      3  N   UNL     1       7.045   4.143  16.433  0.00  0.00    +0.000 NA
ATOM      4  C   UNL     1       5.630   3.915  16.096  0.00  0.00    +0.000 C 
ATOM      5  C   UNL     1       4.852   3.944  17.433  0.00  0.00    +0.000 C 
ATOM      6  O   UNL     1       5.671   4.660  18.377  0.00  0.00    +0.000 OA
ATOM      7  H   UNL     1       7.437   3.274  16.791  0.00  0.00    +0.000 HD
ENDROOT
BRANCH   1   9
ATOM      8  C   UNL     1       8.193   5.466  19.963  0.00  0.00    +0.000 C 
ATOM      9  O   UNL     1       8.123   4.758  18.736  0.00  0.00    +0.000 OA
ENDBRANCH   1   9
BRANCH   5  10
ATOM     10  C   UNL     1       3.510   4.676  17.322  0.00  0.00    +0.000 C 
BRANCH  10  11
ATOM     11  C   UNL     1       2.524   4.191  18.360  0.00  0.00    +0.000 A 
ATOM     12  C   UNL     1       1.789   3.014  18.146  0.00  0.00    +0.000 A 
ATOM     13  C   UNL     1       0.848   2.582  19.080  0.00  0.00    +0.000 A 
ATOM     14  C   UNL     1       0.638   3.317  20.243  0.00  0.00    +0.000 A 
ATOM     15  C   UNL     1       1.358   4.490  20.467  0.00  0.00    +0.000 A 
ATOM     16  C   UNL     1       2.299   4.928  19.529  0.00  0.00    +0.000 A 
ENDBRANCH  10  11
ENDBRANCH   5  10
TORSDOF 3
ENDMDL
MODEL 9
REMARK VINA RESULT:      -6.3      2.193      2.510
REMARK  Name = 
REMARK  4 active torsions:
REMARK  status: ('A' for Active; 'I' for Inactive)
REMARK    1  A    between atoms: C_1  and  O_2
REMARK    2  A    between atoms: O_2  and  P_3
REMARK    3  A    between atoms: C_7  and  C_8
REMARK    4  A    between atoms: C_8  and  C_9
REMARK                            x       y       z     vdW  Elec       q    Type
REMARK                         _______ _______ _______ _____ _____    ______ ____
ROOT
ATOM      1  P   UNL     1       5.858   5.202  16.478  0.00  0.00    +0.000 P 
ATOM      2  S   UNL     1       7.387   4.815  17.595  0.00  0.00    +0.000 S 
ATOM      3  N   UNL     1       4.631   6.152  17.064  0.00  0.00    +0.000 NA
ATOM      4  C   UNL     1       3.757   5.222  17.796  0.00  0.00    +0.000 C 
ATOM      5  C   UNL     1       3.751   3.901  16.989  0.00  0.00    +0.000 C 
ATOM      6  O   UNL     1       4.937   3.906  16.173  0.00  0.00    +0.000 OA
ATOM      7  H   UNL     1       4.115   6.527  16.271  0.00  0.00    +0.000 HD
ENDROOT
BRANCH   1   9
ATOM      8  C   UNL     1       6.778   4.800  14.094  0.00  0.00    +0.000 C 
ATOM      9  O   UNL     1       6.144   5.713  14.975  0.00  0.00    +0.000 OA
ENDBRANCH   1   9
BRANCH   5  10
ATOM     10  C   UNL     1       3.801   2.659  17.885  0.00  0.00    +0.000 C 
BRANCH  10  11
ATOM     11  C   UNL     1       2.912   2.813  19.099  0.00  0.00    +0.000 A 
ATOM     12  C   UNL     1       3.443   2.668  20.391  0.00  0.00    +0.000 A 
ATOM     13  C   UNL     1       2.623   2.769  21.514  0.00  0.00    +0.000 A 
ATOM     14  C   UNL     1       1.264   3.024  21.359  0.00  0.00    +0.000 A 
ATOM     15  C   UNL     1       0.722   3.166  20.081  0.00  0.00    +0.000 A 
ATOM     16  C   UNL     1       1.543   3.061  18.953  0.00  0.00    +0.000 A 
ENDBRANCH  10  11
ENDBRANCH   5  10
TORSDOF 3
ENDMDL
