MODEL 1
REMARK VINA RESULT:      -6.3      0.000      0.000
REMARK  Name = 
REMARK  2 active torsions:
REMARK  status: ('A' for Active; 'I' for Inactive)
REMARK    1  A    between atoms: C_2  and  C_4
REMARK    2  A    between atoms: C_5  and  C_6
REMARK                            x       y       z     vdW  Elec       q    Type
REMARK                         _______ _______ _______ _____ _____    ______ ____
ROOT
ATOM      1  C   UNL     1       4.406   4.344  18.315  0.00  0.00    +0.000 A 
ATOM      2  C   UNL     1       5.329   4.549  19.326  0.00  0.00    +0.000 A 
ATOM      3  N   UNL     1       6.567   4.709  18.748  0.00  0.00    +0.000 N 
ATOM      4  C   UNL     1       6.460   4.617  17.388  0.00  0.00    +0.000 A 
ATOM      5  N   UNL     1       7.476   4.724  16.506  0.00  0.00    +0.000 NA
ATOM      6  C   UNL     1       7.030   4.588  15.234  0.00  0.00    +0.000 A 
ATOM      7  C   UNL     1       5.701   4.374  14.892  0.00  0.00    +0.000 A 
ATOM      8  N   UNL     1       4.697   4.267  15.791  0.00  0.00    +0.000 NA
ATOM      9  C   UNL     1       5.118   4.397  17.082  0.00  0.00    +0.000 A 
ATOM     10  H   UNL     1       7.439   4.869  19.232  0.00  0.00    +0.000 HD
ENDROOT
BRANCH   1  12
ATOM     11  C   UNL     1       2.486   2.951  18.940  0.00  0.00    +0.000 C 
ATOM     12  C   UNL     1       3.011   4.120  18.538  0.00  0.00    +0.000 C 
BRANCH  11  14
ATOM     13  N   UNL     1       0.591   3.432  20.276  0.00  0.00    +0.000 N 
ATOM     14  C   UNL     1       1.038   2.790  19.164  0.00  0.00    +0.000 C 
ATOM     15  O   UNL     1       0.297   2.149  18.433  0.00  0.00    +0.000 OA
ATOM     16  H   UNL     1      -0.393   3.369  20.494  0.00  0.00    +0.000 HD
ATOM     17  H   UNL     1       1.189   3.967  20.891  0.00  0.00    +0.000 HD
ENDBRANCH  11  14
ENDBRANCH   1  12
TORSDOF 2
ENDMDL
MODEL 2
REMARK VINA RESULT:      -6.3      2.814      5.513
REMARK  Name = 
REMARK  2 active torsions:
REMARK  status: ('A' for Active; 'I' for Inactive)
REMARK    1  A    between atoms: C_2  and  C_4
REMARK    2  A    between atoms: C_5  and  C_6
REMARK                            x       y       z     vdW  Elec       q    Type
REMARK                         _______ _______ _______ _____ _____    ______ ____
ROOT
ATOM      1  C   UNL     1       4.178   4.624  17.888  0.00  0.00    +0.000 A 
ATOM      2  C   UNL     1       4.561   5.547  18.845  0.00  0.00    +0.000 A 
ATOM      3  N   UNL     1       3.653   5.494  19.877  0.00  0.00    +0.000 N 
ATOM      4  C   UNL     1       2.699   4.552  19.608  0.00  0.00    +0.000 A 
ATOM      5  N   UNL     1       1.655   4.236  20.403  0.00  0.00    +0.000 NA
ATOM      6  C   UNL     1       0.900   3.260  19.845  0.00  0.00    +0.000 A 
ATOM      7  C   UNL     1       1.174   2.665  18.620  0.00  0.00    +0.000 A 
ATOM      8  N   UNL     1       2.225   2.998  17.837  0.00  0.00    +0.000 NA
ATOM      9  C   UNL     1       3.002   3.982  18.374  0.00  0.00    +0.000 A 
ATOM     10  H   UNL     1       3.666   6.055  20.717  0.00  0.00    +0.000 HD
ENDROOT
BRANCH   1  12
ATOM     11  C   UNL     1       6.072   4.944  16.363  0.00  0.00    +0.000 C 
ATOM     12  C   UNL     1       4.876   4.409  16.658  0.00  0.00    +0.000 C 
BRANCH  11  14
ATOM     13  N   UNL     1       6.259   3.576  14.439  0.00  0.00    +0.000 N 
ATOM     14  C   UNL     1       6.744   4.673  15.080  0.00  0.00    +0.000 C 
ATOM     15  O   UNL     1       7.649   5.355  14.620  0.00  0.00    +0.000 OA
ATOM     16  H   UNL     1       6.670   3.327  13.551  0.00  0.00    +0.000 HD
ATOM     17  H   UNL     1       5.512   3.001  14.805  0.00  0.00    +0.000 HD
ENDBRANCH  11  14
ENDBRANCH   1  12
TORSDOF 2
ENDMDL
MODEL 3
REMARK VINA RESULT:      -6.2      2.325      2.916
REMARK  Name = 
REMARK  2 active torsions:
REMARK  status: ('A' for Active; 'I' for Inactive)
REMARK    1  A    between atoms: C_2  and  C_4
REMARK    2  A    between atoms: C_5  and  C_6
REMARK                            x       y       z     vdW  Elec       q    Type
REMARK                         _______ _______ _______ _____ _____    ______ ____
ROOT
ATOM      1  C   UNL     1       4.207   5.067  18.636  0.00  0.00    +0.000 A 
ATOM      2  C   UNL     1       3.516   5.709  17.623  0.00  0.00    +0.000 A 
ATOM      3  N   UNL     1       4.388   6.562  16.986  0.00  0.00    +0.000 N 
ATOM      4  C   UNL     1       5.624   6.479  17.564  0.00  0.00    +0.000 A 
ATOM      5  N   UNL     1       6.718   7.178  17.194  0.00  0.00    +0.000 NA
ATOM      6  C   UNL     1       7.782   6.858  17.969  0.00  0.00    +0.000 A 
ATOM      7  C   UNL     1       7.744   5.930  19.001  0.00  0.00    +0.000 A 
ATOM      8  N   UNL     1       6.638   5.241  19.358  0.00  0.00    +0.000 NA
ATOM      9  C   UNL     1       5.548   5.546  18.595  0.00  0.00    +0.000 A 
ATOM     10  H   UNL     1       4.172   7.170  16.209  0.00  0.00    +0.000 HD
ENDROOT
BRANCH   1  12
ATOM     11  C   UNL     1       2.542   4.357  20.292  0.00  0.00    +0.000 C 
ATOM     12  C   UNL     1       3.619   4.115  19.527  0.00  0.00    +0.000 C 
BRANCH  11  14
ATOM     13  N   UNL     1       0.721   2.944  20.831  0.00  0.00    +0.000 N 
ATOM     14  C   UNL     1       1.978   3.327  21.181  0.00  0.00    +0.000 C 
ATOM     15  O   UNL     1       2.566   2.850  22.142  0.00  0.00    +0.000 OA
ATOM     16  H   UNL     1       0.268   2.238  21.394  0.00  0.00    +0.000 HD
ATOM     17  H   UNL     1       0.220   3.327  20.041  0.00  0.00    +0.000 HD
ENDBRANCH  11  14
ENDBRANCH   1  12
TORSDOF 2
ENDMDL
MODEL 4
REMARK VINA RESULT:      -6.2      2.759      5.806
REMARK  Name = 
REMARK  2 active torsions:
REMARK  status: ('A' for Active; 'I' for Inactive)
REMARK    1  A    between atoms: C_2  and  C_4
REMARK    2  A    between atoms: C_5  and  C_6
REMARK                            x       y       z     vdW  Elec       q    Type
REMARK                         _______ _______ _______ _____ _____    ______ ____
ROOT
ATOM      1  C   UNL     1       3.963   3.443  18.035  0.00  0.00    +0.000 A 
ATOM      2  C   UNL     1       3.435   2.304  17.452  0.00  0.00    +0.000 A 
ATOM      3  N   UNL     1       2.213   2.054  18.032  0.00  0.00    +0.000 N 
ATOM      4  C   UNL     1       1.941   3.011  18.971  0.00  0.00    +0.000 A 
ATOM      5  N   UNL     1       0.829   3.075  19.734  0.00  0.00    +0.000 NA
ATOM      6  C   UNL     1       0.871   4.147  20.561  0.00  0.00    +0.000 A 
ATOM      7  C   UNL     1       1.919   5.057  20.606  0.00  0.00    +0.000 A 
ATOM      8  N   UNL     1       3.026   4.974  19.834  0.00  0.00    +0.000 NA
ATOM      9  C   UNL     1       3.013   3.900  18.993  0.00  0.00    +0.000 A 
ATOM     10  H   UNL     1       1.592   1.288  17.817  0.00  0.00    +0.000 HD
ENDROOT
BRANCH   1  12
ATOM     11  C   UNL     1       5.715   4.087  16.444  0.00  0.00    +0.000 C 
ATOM     12  C   UNL     1       5.236   3.999  17.696  0.00  0.00    +0.000 C 
BRANCH  11  14
ATOM     13  N   UNL     1       7.976   4.369  17.088  0.00  0.00    +0.000 N 
ATOM     14  C   UNL     1       7.033   4.683  16.161  0.00  0.00    +0.000 C 
ATOM     15  O   UNL     1       7.274   5.392  15.193  0.00  0.00    +0.000 OA
ATOM     16  H   UNL     1       8.907   4.740  16.960  0.00  0.00    +0.000 HD
ATOM     17  H   UNL     1       7.795   3.785  17.893  0.00  0.00    +0.000 HD
ENDBRANCH  11  14
ENDBRANCH   1  12
TORSDOF 2
ENDMDL
MODEL 5
REMARK VINA RESULT:      -6.2      2.993      5.424
REMARK  Name = 
REMARK  2 active torsions:
REMARK  status: ('A' for Active; 'I' for Inactive)
REMARK    1  A    between atoms: C_2  and  C_4
REMARK    2  A    between atoms: C_5  and  C_6
REMARK                            x       y       z     vdW  Elec       q    Type
REMARK                         _______ _______ _______ _____ _____    ______ ____
ROOT
ATOM      1  C   UNL     1       4.981   4.058  17.352  0.00  0.00    +0.000 A 
ATOM      2  C   UNL     1       5.804   4.415  18.406  0.00  0.00    +0.000 A 
ATOM      3  N   UNL     1       5.187   4.041  19.577  0.00  0.00    +0.000 N 
ATOM      4  C   UNL     1       3.988   3.446  19.299  0.00  0.00    +0.000 A 
ATOM      5  N   UNL     1       3.117   2.960  20.209  0.00  0.00    +0.000 NA
ATOM      6  C   UNL     1       2.027   2.433  19.603  0.00  0.00    +0.000 A 
ATOM      7  C   UNL     1       1.839   2.397  18.227  0.00  0.00    +0.000 A 
ATOM      8  N   UNL     1       2.722   2.892  17.332  0.00  0.00    +0.000 NA
ATOM      9  C   UNL     1       3.831   3.433  17.915  0.00  0.00    +0.000 A 
ATOM     10  H   UNL     1       5.542   4.176  20.512  0.00  0.00    +0.000 HD
ENDROOT
BRANCH   1  12
ATOM     11  C   UNL     1       6.501   4.135  15.429  0.00  0.00    +0.000 C 
ATOM     12  C   UNL     1       5.287   4.306  15.978  0.00  0.00    +0.000 C 
BRANCH  11  14
ATOM     13  N   UNL     1       6.210   3.458  13.179  0.00  0.00    +0.000 N 
ATOM     14  C   UNL     1       6.748   4.399  14.000  0.00  0.00    +0.000 C 
ATOM     15  O   UNL     1       7.370   5.362  13.576  0.00  0.00    +0.000 OA
ATOM     16  H   UNL     1       6.336   3.572  12.183  0.00  0.00    +0.000 HD
ATOM     17  H   UNL     1       5.693   2.655  13.512  0.00  0.00    +0.000 HD
ENDBRANCH  11  14
ENDBRANCH   1  12
TORSDOF 2
ENDMDL
MODEL 6
REMARK VINA RESULT:      -6.2      2.678      5.761
REMARK  Name = 
REMARK  2 active torsions:
REMARK  status: ('A' for Active; 'I' for Inactive)
REMARK    1  A    between atoms: C_2  and  C_4
REMARK    2  A    between atoms: C_5  and  C_6
REMARK                            x       y       z     vdW  Elec       q    Type
REMARK                         _______ _______ _______ _____ _____    ______ ____
ROOT
ATOM      1  C   UNL     1       3.576   3.703  17.919  0.00  0.00    +0.000 A 
ATOM      2  C   UNL     1       3.415   2.399  17.484  0.00  0.00    +0.000 A 
ATOM      3  N   UNL     1       2.720   1.709  18.451  0.00  0.00    +0.000 N 
ATOM      4  C   UNL     1       2.426   2.542  19.494  0.00  0.00    +0.000 A 
ATOM      5  N   UNL     1       1.755   2.199  20.615  0.00  0.00    +0.000 NA
ATOM      6  C   UNL     1       1.630   3.260  21.448  0.00  0.00    +0.000 A 
ATOM      7  C   UNL     1       2.125   4.528  21.176  0.00  0.00    +0.000 A 
ATOM      8  N   UNL     1       2.797   4.851  20.049  0.00  0.00    +0.000 NA
ATOM      9  C   UNL     1       2.940   3.800  19.191  0.00  0.00    +0.000 A 
ATOM     10  H   UNL     1       2.456   0.735  18.420  0.00  0.00    +0.000 HD
ENDROOT
BRANCH   1  12
ATOM     11  C   UNL     1       5.243   4.465  16.290  0.00  0.00    +0.000 C 
ATOM     12  C   UNL     1       4.269   4.712  17.181  0.00  0.00    +0.000 C 
BRANCH  11  14
ATOM     13  N   UNL     1       7.205   5.278  15.243  0.00  0.00    +0.000 N 
ATOM     14  C   UNL     1       5.910   5.553  15.553  0.00  0.00    +0.000 C 
ATOM     15  O   UNL     1       5.370   6.605  15.240  0.00  0.00    +0.000 OA
ATOM     16  H   UNL     1       7.728   5.977  14.735  0.00  0.00    +0.000 HD
ATOM     17  H   UNL     1       7.668   4.414  15.493  0.00  0.00    +0.000 HD
ENDBRANCH  11  14
ENDBRANCH   1  12
TORSDOF 2
ENDMDL
MODEL 7
REMARK VINA RESULT:      -6.2      1.719      1.801
REMARK  Name = 
REMARK  2 active torsions:
REMARK  status: ('A' for Active; 'I' for Inactive)
REMARK    1  A    between atoms: C_2  and  C_4
REMARK    2  A    between atoms: C_5  and  C_6
REMARK                            x       y       z     vdW  Elec       q    Type
REMARK                         _______ _______ _______ _____ _____    ______ ____
ROOT
ATOM      1  C   UNL     1       5.445   5.344  18.790  0.00  0.00    +0.000 A 
ATOM      2  C   UNL     1       6.668   5.320  19.438  0.00  0.00    +0.000 A 
ATOM      3  N   UNL     1       7.637   5.015  18.510  0.00  0.00    +0.000 N 
ATOM      4  C   UNL     1       7.065   4.849  17.279  0.00  0.00    +0.000 A 
ATOM      5  N   UNL     1       7.719   4.540  16.139  0.00  0.00    +0.000 NA
ATOM      6  C   UNL     1       6.859   4.452  15.097  0.00  0.00    +0.000 A 
ATOM      7  C   UNL     1       5.489   4.657  15.195  0.00  0.00    +0.000 A 
ATOM      8  N   UNL     1       4.852   4.962  16.348  0.00  0.00    +0.000 NA
ATOM      9  C   UNL     1       5.694   5.055  17.417  0.00  0.00    +0.000 A 
ATOM     10  H   UNL     1       8.627   4.920  18.686  0.00  0.00    +0.000 HD
ENDROOT
BRANCH   1  12
ATOM     11  C   UNL     1       3.295   4.670  19.760  0.00  0.00    +0.000 C 
ATOM     12  C   UNL     1       4.200   5.611  19.441  0.00  0.00    +0.000 C 
BRANCH  11  14
ATOM     13  N   UNL     1       1.950   6.322  20.794  0.00  0.00    +0.000 N 
ATOM     14  C   UNL     1       2.034   5.011  20.442  0.00  0.00    +0.000 C 
ATOM     15  O   UNL     1       1.141   4.210  20.677  0.00  0.00    +0.000 OA
ATOM     16  H   UNL     1       1.112   6.632  21.265  0.00  0.00    +0.000 HD
ATOM     17  H   UNL     1       2.678   6.998  20.608  0.00  0.00    +0.000 HD
ENDBRANCH  11  14
ENDBRANCH   1  12
TORSDOF 2
ENDMDL
MODEL 8
REMARK VINA RESULT:      -6.2      2.704      5.873
REMARK  Name = 
REMARK  2 active torsions:
REMARK  status: ('A' for Active; 'I' for Inactive)
REMARK    1  A    between atoms: C_2  and  C_4
REMARK    2  A    between atoms: C_5  and  C_6
REMARK                            x       y       z     vdW  Elec       q    Type
REMARK                         _______ _______ _______ _____ _____    ______ ____
ROOT
ATOM      1  C   UNL     1       3.620   3.851  18.105  0.00  0.00    +0.000 A 
ATOM      2  C   UNL     1       2.591   4.411  17.368  0.00  0.00    +0.000 A 
ATOM      3  N   UNL     1       1.438   4.329  18.115  0.00  0.00    +0.000 N 
ATOM      4  C   UNL     1       1.705   3.734  19.316  0.00  0.00    +0.000 A 
ATOM      5  N   UNL     1       0.806   3.490  20.294  0.00  0.00    +0.000 NA
ATOM      6  C   UNL     1       1.397   2.890  21.356  0.00  0.00    +0.000 A 
ATOM      7  C   UNL     1       2.748   2.577  21.423  0.00  0.00    +0.000 A 
ATOM      8  N   UNL     1       3.632   2.827  20.431  0.00  0.00    +0.000 NA
ATOM      9  C   UNL     1       3.064   3.428  19.346  0.00  0.00    +0.000 A 
ATOM     10  H   UNL     1       0.521   4.650  17.840  0.00  0.00    +0.000 HD
ENDROOT
BRANCH   1  12
ATOM     11  C   UNL     1       5.722   4.783  17.251  0.00  0.00    +0.000 C 
ATOM     12  C   UNL     1       4.969   3.742  17.641  0.00  0.00    +0.000 C 
BRANCH  11  14
ATOM     13  N   UNL     1       7.972   4.288  17.798  0.00  0.00    +0.000 N 
ATOM     14  C   UNL     1       7.111   4.604  16.793  0.00  0.00    +0.000 C 
ATOM     15  O   UNL     1       7.473   4.722  15.631  0.00  0.00    +0.000 OA
ATOM     16  H   UNL     1       8.944   4.148  17.560  0.00  0.00    +0.000 HD
ATOM     17  H   UNL     1       7.690   4.187  18.763  0.00  0.00    +0.000 HD
ENDBRANCH  11  14
ENDBRANCH   1  12
TORSDOF 2
ENDMDL
MODEL 9
REMARK VINA RESULT:      -6.1      3.058      5.423
REMARK  Name = 
REMARK  2 active torsions:
REMARK  status: ('A' for Active; 'I' for Inactive)
REMARK    1  A    between atoms: C_2  and  C_4
REMARK    2  A    between atoms: C_5  and  C_6
REMARK                            x       y       z     vdW  Elec       q    Type
REMARK                         _______ _______ _______ _____ _____    ______ ____
ROOT
ATOM      1  C   UNL     1       6.108   4.423  15.093  0.00  0.00    +0.000 A 
ATOM      2  C   UNL     1       7.184   5.271  14.895  0.00  0.00    +0.000 A 
ATOM      3  N   UNL     1       7.504   5.844  16.105  0.00  0.00    +0.000 N 
ATOM      4  C   UNL     1       6.663   5.378  17.076  0.00  0.00    +0.000 A 
ATOM      5  N   UNL     1       6.689   5.729  18.379  0.00  0.00    +0.000 NA
ATOM      6  C   UNL     1       5.722   5.084  19.074  0.00  0.00    +0.000 A 
ATOM      7  C   UNL     1       4.830   4.179  18.514  0.00  0.00    +0.000 A 
ATOM      8  N   UNL     1       4.818   3.842  17.205  0.00  0.00    +0.000 NA
ATOM      9  C   UNL     1       5.781   4.480  16.479  0.00  0.00    +0.000 A 
ATOM     10  H   UNL     1       8.243   6.511  16.275  0.00  0.00    +0.000 HD
ENDROOT
BRANCH   1  12
ATOM     11  C   UNL     1       5.957   3.569  12.799  0.00  0.00    +0.000 C 
ATOM     12  C   UNL     1       5.486   3.664  14.053  0.00  0.00    +0.000 C 
BRANCH  11  14
ATOM     13  N   UNL     1       5.914   1.594  11.494  0.00  0.00    +0.000 N 
ATOM     14  C   UNL     1       5.272   2.759  11.776  0.00  0.00    +0.000 C 
ATOM     15  O   UNL     1       4.230   3.085  11.224  0.00  0.00    +0.000 OA
ATOM     16  H   UNL     1       5.502   0.983  10.802  0.00  0.00    +0.000 HD
ATOM     17  H   UNL     1       6.775   1.309  11.939  0.00  0.00    +0.000 HD
ENDBRANCH  11  14
ENDBRANCH   1  12
TORSDOF 2
ENDMDL
