MODEL 1
REMARK VINA RESULT:      -7.8      0.000      0.000
REMARK  Name = 
REMARK  6 active torsions:
REMARK  status: ('A' for Active; 'I' for Inactive)
REMARK    1  A    between atoms: C_1  and  C_2
REMARK    2  A    between atoms: C_6  and  C_7
REMARK    3  A    between atoms: N_9  and  C_10
REMARK    4  A    between atoms: C_10  and  C_11
REMARK    5  A    between atoms: C_11  and  C_12
REMARK    6  A    between atoms: C_22  and  O_23
REMARK                            x       y       z     vdW  Elec       q    Type
REMARK                         _______ _______ _______ _____ _____    ______ ____
ROOT
ATOM      1  C   UNL     1      -0.818  10.289  18.480  0.00  0.00    +0.000 C 
ATOM      2  O   UNL     1      -0.806  10.210  19.712  0.00  0.00    +0.000 OA
ATOM      3  N   UNL     1       0.322  10.118  17.723  0.00  0.00    +0.000 N 
ATOM      4  H   UNL     1       0.302  10.141  16.715  0.00  0.00    +0.000 HD
ENDROOT
BRANCH   1  10
ATOM      5  C   UNL     1      -5.321  12.562  18.471  0.00  0.00    +0.000 C 
ATOM      6  C   UNL     1      -4.289  11.709  17.790  0.00  0.00    +0.000 A 
ATOM      7  C   UNL     1      -4.535  11.209  16.505  0.00  0.00    +0.000 A 
ATOM      8  C   UNL     1      -3.589  10.412  15.865  0.00  0.00    +0.000 A 
ATOM      9  C   UNL     1      -2.383  10.105  16.498  0.00  0.00    +0.000 A 
ATOM     10  C   UNL     1      -2.104  10.595  17.783  0.00  0.00    +0.000 A 
ATOM     11  C   UNL     1      -3.071  11.401  18.419  0.00  0.00    +0.000 A 
BRANCH  11  12
ATOM     12  O   UNL     1      -2.883  11.927  19.676  0.00  0.00    +0.000 OA
ATOM     13  H   UNL     1      -1.992  11.652  19.990  0.00  0.00    +0.000 HD
ENDBRANCH  11  12
ENDBRANCH   1  10
BRANCH   3  14
ATOM     14  C   UNL     1       1.589   9.804  18.360  0.00  0.00    +0.000 C 
BRANCH  14  15
ATOM     15  C   UNL     1       2.353   8.663  17.679  0.00  0.00    +0.000 C 
BRANCH  15  16
ATOM     16  C   UNL     1       2.610   7.494  18.586  0.00  0.00    +0.000 A 
ATOM     17  C   UNL     1       2.099   7.314  19.858  0.00  0.00    +0.000 A 
ATOM     18  N   UNL     1       2.567   6.128  20.352  0.00  0.00    +0.000 N 
ATOM     19  C   UNL     1       3.381   5.519  19.429  0.00  0.00    +0.000 A 
ATOM     20  C   UNL     1       4.071   4.304  19.511  0.00  0.00    +0.000 A 
ATOM     21  C   UNL     1       4.841   3.921  18.410  0.00  0.00    +0.000 A 
ATOM     22  C   UNL     1       4.906   4.728  17.277  0.00  0.00    +0.000 A 
ATOM     23 BR   UNL     1       5.961   4.174  15.807  0.00  0.00    +0.000 Br
ATOM     24  C   UNL     1       4.208   5.941  17.204  0.00  0.00    +0.000 A 
ATOM     25  C   UNL     1       3.429   6.350  18.308  0.00  0.00    +0.000 A 
ATOM     26  H   UNL     1       2.352   5.752  21.265  0.00  0.00    +0.000 HD
ENDBRANCH  15  16
ENDBRANCH  14  15
ENDBRANCH   3  14
TORSDOF 5
ENDMDL
MODEL 2
REMARK VINA RESULT:      -7.8      3.774      8.280
REMARK  Name = 
REMARK  6 active torsions:
REMARK  status: ('A' for Active; 'I' for Inactive)
REMARK    1  A    between atoms: C_1  and  C_2
REMARK    2  A    between atoms: C_6  and  C_7
REMARK    3  A    between atoms: N_9  and  C_10
REMARK    4  A    between atoms: C_10  and  C_11
REMARK    5  A    between atoms: C_11  and  C_12
REMARK    6  A    between atoms: C_22  and  O_23
REMARK                            x       y       z     vdW  Elec       q    Type
REMARK                         _______ _______ _______ _____ _____    ______ ____
ROOT
ATOM      1  C   UNL     1       2.931   6.107  18.169  0.00  0.00    +0.000 C 
ATOM      2  O   UNL     1       3.944   6.304  17.490  0.00  0.00    +0.000 OA
ATOM      3  N   UNL     1       2.129   7.141  18.606  0.00  0.00    +0.000 N 
ATOM      4  H   UNL     1       1.279   6.975  19.123  0.00  0.00    +0.000 HD
ENDROOT
BRANCH   1  10
ATOM      5  C   UNL     1       1.677   2.744  21.712  0.00  0.00    +0.000 C 
ATOM      6  C   UNL     1       1.953   3.083  20.275  0.00  0.00    +0.000 A 
ATOM      7  C   UNL     1       1.864   2.088  19.293  0.00  0.00    +0.000 A 
ATOM      8  C   UNL     1       2.123   2.389  17.958  0.00  0.00    +0.000 A 
ATOM      9  C   UNL     1       2.473   3.687  17.584  0.00  0.00    +0.000 A 
ATOM     10  C   UNL     1       2.566   4.707  18.543  0.00  0.00    +0.000 A 
ATOM     11  C   UNL     1       2.300   4.389  19.891  0.00  0.00    +0.000 A 
BRANCH  11  12
ATOM     12  O   UNL     1       2.365   5.324  20.896  0.00  0.00    +0.000 OA
ATOM     13  H   UNL     1       1.613   5.164  21.510  0.00  0.00    +0.000 HD
ENDBRANCH  11  12
ENDBRANCH   1  10
BRANCH   3  14
ATOM     14  C   UNL     1       2.439   8.515  18.251  0.00  0.00    +0.000 C 
BRANCH  14  15
ATOM     15  C   UNL     1       1.238   9.293  17.700  0.00  0.00    +0.000 C 
BRANCH  15  16
ATOM     16  C   UNL     1       0.557  10.144  18.734  0.00  0.00    +0.000 A 
ATOM     17  C   UNL     1       1.084  10.540  19.949  0.00  0.00    +0.000 A 
ATOM     18  N   UNL     1       0.154  11.304  20.598  0.00  0.00    +0.000 N 
ATOM     19  C   UNL     1      -0.982  11.420  19.834  0.00  0.00    +0.000 A 
ATOM     20  C   UNL     1      -2.174  12.100  20.105  0.00  0.00    +0.000 A 
ATOM     21  C   UNL     1      -3.182  12.049  19.140  0.00  0.00    +0.000 A 
ATOM     22  C   UNL     1      -2.991  11.345  17.954  0.00  0.00    +0.000 A 
ATOM     23 BR   UNL     1      -4.383  11.299  16.672  0.00  0.00    +0.000 Br
ATOM     24  C   UNL     1      -1.792  10.670  17.692  0.00  0.00    +0.000 A 
ATOM     25  C   UNL     1      -0.762  10.704  18.656  0.00  0.00    +0.000 A 
ATOM     26  H   UNL     1       0.277  11.721  21.511  0.00  0.00    +0.000 HD
ENDBRANCH  15  16
ENDBRANCH  14  15
ENDBRANCH   3  14
TORSDOF 5
ENDMDL
MODEL 3
REMARK VINA RESULT:      -7.7      5.421      8.401
REMARK  Name = 
REMARK  6 active torsions:
REMARK  status: ('A' for Active; 'I' for Inactive)
REMARK    1  A    between atoms: C_1  and  C_2
REMARK    2  A    between atoms: C_6  and  C_7
REMARK    3  A    between atoms: N_9  and  C_10
REMARK    4  A    between atoms: C_10  and  C_11
REMARK    5  A    between atoms: C_11  and  C_12
REMARK    6  A    between atoms: C_22  and  O_23
REMARK                            x       y       z     vdW  Elec       q    Type
REMARK                         _______ _______ _______ _____ _____    ______ ____
ROOT
ATOM      1  C   UNL     1       5.296   4.227  17.221  0.00  0.00    +0.000 C 
ATOM      2  O   UNL     1       4.957   4.402  16.046  0.00  0.00    +0.000 OA
ATOM      3  N   UNL     1       4.742   3.236  18.004  0.00  0.00    +0.000 N 
ATOM      4  H   UNL     1       5.051   3.067  18.949  0.00  0.00    +0.000 HD
ENDROOT
BRANCH   1  10
ATOM      5  C   UNL     1       7.643   8.690  17.320  0.00  0.00    +0.000 C 
ATOM      6  C   UNL     1       7.458   7.302  17.861  0.00  0.00    +0.000 A 
ATOM      7  C   UNL     1       8.249   6.858  18.929  0.00  0.00    +0.000 A 
ATOM      8  C   UNL     1       8.090   5.571  19.437  0.00  0.00    +0.000 A 
ATOM      9  C   UNL     1       7.139   4.709  18.888  0.00  0.00    +0.000 A 
ATOM     10  C   UNL     1       6.328   5.126  17.822  0.00  0.00    +0.000 A 
ATOM     11  C   UNL     1       6.498   6.432  17.317  0.00  0.00    +0.000 A 
BRANCH  11  12
ATOM     12  O   UNL     1       5.747   6.925  16.277  0.00  0.00    +0.000 OA
ATOM     13  H   UNL     1       6.213   6.713  15.438  0.00  0.00    +0.000 HD
ENDBRANCH  11  12
ENDBRANCH   1  10
BRANCH   3  14
ATOM     14  C   UNL     1       3.748   2.332  17.454  0.00  0.00    +0.000 C 
BRANCH  14  15
ATOM     15  C   UNL     1       2.312   2.855  17.569  0.00  0.00    +0.000 C 
BRANCH  15  16
ATOM     16  C   UNL     1       2.039   3.565  18.865  0.00  0.00    +0.000 A 
ATOM     17  C   UNL     1       1.738   2.973  20.077  0.00  0.00    +0.000 A 
ATOM     18  N   UNL     1       1.560   3.957  21.009  0.00  0.00    +0.000 N 
ATOM     19  C   UNL     1       1.736   5.192  20.435  0.00  0.00    +0.000 A 
ATOM     20  C   UNL     1       1.647   6.464  21.010  0.00  0.00    +0.000 A 
ATOM     21  C   UNL     1       1.874   7.566  20.181  0.00  0.00    +0.000 A 
ATOM     22  C   UNL     1       2.180   7.388  18.835  0.00  0.00    +0.000 A 
ATOM     23 BR   UNL     1       2.479   8.907  17.746  0.00  0.00    +0.000 Br
ATOM     24  C   UNL     1       2.270   6.109  18.271  0.00  0.00    +0.000 A 
ATOM     25  C   UNL     1       2.039   4.982  19.089  0.00  0.00    +0.000 A 
ATOM     26  H   UNL     1       1.327   3.804  21.981  0.00  0.00    +0.000 HD
ENDBRANCH  15  16
ENDBRANCH  14  15
ENDBRANCH   3  14
TORSDOF 5
ENDMDL
MODEL 4
REMARK VINA RESULT:      -7.7      3.657      5.786
REMARK  Name = 
REMARK  6 active torsions:
REMARK  status: ('A' for Active; 'I' for Inactive)
REMARK    1  A    between atoms: C_1  and  C_2
REMARK    2  A    between atoms: C_6  and  C_7
REMARK    3  A    between atoms: N_9  and  C_10
REMARK    4  A    between atoms: C_10  and  C_11
REMARK    5  A    between atoms: C_11  and  C_12
REMARK    6  A    between atoms: C_22  and  O_23
REMARK                            x       y       z     vdW  Elec       q    Type
REMARK                         _______ _______ _______ _____ _____    ______ ____
ROOT
ATOM      1  C   UNL     1       2.826   6.427  19.223  0.00  0.00    +0.000 C 
ATOM      2  O   UNL     1       2.502   5.556  20.037  0.00  0.00    +0.000 OA
ATOM      3  N   UNL     1       3.873   6.254  18.342  0.00  0.00    +0.000 N 
ATOM      4  H   UNL     1       4.108   6.948  17.649  0.00  0.00    +0.000 HD
ENDROOT
BRANCH   1  10
ATOM      5  C   UNL     1       0.164   9.950  21.661  0.00  0.00    +0.000 C 
ATOM      6  C   UNL     1       0.782   9.424  20.396  0.00  0.00    +0.000 A 
ATOM      7  C   UNL     1       0.652  10.145  19.203  0.00  0.00    +0.000 A 
ATOM      8  C   UNL     1       1.215   9.666  18.024  0.00  0.00    +0.000 A 
ATOM      9  C   UNL     1       1.918   8.461  18.018  0.00  0.00    +0.000 A 
ATOM     10  C   UNL     1       2.071   7.716  19.198  0.00  0.00    +0.000 A 
ATOM     11  C   UNL     1       1.496   8.214  20.386  0.00  0.00    +0.000 A 
BRANCH  11  12
ATOM     12  O   UNL     1       1.597   7.554  21.587  0.00  0.00    +0.000 OA
ATOM     13  H   UNL     1       0.935   7.941  22.204  0.00  0.00    +0.000 HD
ENDBRANCH  11  12
ENDBRANCH   1  10
BRANCH   3  14
ATOM     14  C   UNL     1       4.622   5.010  18.322  0.00  0.00    +0.000 C 
BRANCH  14  15
ATOM     15  C   UNL     1       4.626   4.316  16.955  0.00  0.00    +0.000 C 
BRANCH  15  16
ATOM     16  C   UNL     1       5.773   4.736  16.079  0.00  0.00    +0.000 A 
ATOM     17  C   UNL     1       6.859   5.502  16.460  0.00  0.00    +0.000 A 
ATOM     18  N   UNL     1       7.679   5.662  15.377  0.00  0.00    +0.000 N 
ATOM     19  C   UNL     1       7.153   5.016  14.285  0.00  0.00    +0.000 A 
ATOM     20  C   UNL     1       7.650   4.920  12.980  0.00  0.00    +0.000 A 
ATOM     21  C   UNL     1       6.899   4.194  12.053  0.00  0.00    +0.000 A 
ATOM     22  C   UNL     1       5.703   3.590  12.430  0.00  0.00    +0.000 A 
ATOM     23 BR   UNL     1       4.714   2.615  11.143  0.00  0.00    +0.000 Br
ATOM     24  C   UNL     1       5.216   3.689  13.740  0.00  0.00    +0.000 A 
ATOM     25  C   UNL     1       5.957   4.423  14.691  0.00  0.00    +0.000 A 
ATOM     26  H   UNL     1       8.545   6.183  15.374  0.00  0.00    +0.000 HD
ENDBRANCH  15  16
ENDBRANCH  14  15
ENDBRANCH   3  14
TORSDOF 5
ENDMDL
MODEL 5
REMARK VINA RESULT:      -7.7      1.477      1.660
REMARK  Name = 
REMARK  6 active torsions:
REMARK  status: ('A' for Active; 'I' for Inactive)
REMARK    1  A    between atoms: C_1  and  C_2
REMARK    2  A    between atoms: C_6  and  C_7
REMARK    3  A    between atoms: N_9  and  C_10
REMARK    4  A    between atoms: C_10  and  C_11
REMARK    5  A    between atoms: C_11  and  C_12
REMARK    6  A    between atoms: C_22  and  O_23
REMARK                            x       y       z     vdW  Elec       q    Type
REMARK                         _______ _______ _______ _____ _____    ______ ____
ROOT
ATOM      1  C   UNL     1      -0.193  10.331  18.481  0.00  0.00    +0.000 C 
ATOM      2  O   UNL     1       0.096  10.593  19.653  0.00  0.00    +0.000 OA
ATOM      3  N   UNL     1       0.748   9.886  17.576  0.00  0.00    +0.000 N 
ATOM      4  H   UNL     1       0.502   9.632  16.632  0.00  0.00    +0.000 HD
ENDROOT
BRANCH   1  10
ATOM      5  C   UNL     1      -4.727  12.450  19.110  0.00  0.00    +0.000 C 
ATOM      6  C   UNL     1      -3.802  11.554  18.336  0.00  0.00    +0.000 A 
ATOM      7  C   UNL     1      -4.262  10.901  17.186  0.00  0.00    +0.000 A 
ATOM      8  C   UNL     1      -3.415  10.064  16.463  0.00  0.00    +0.000 A 
ATOM      9  C   UNL     1      -2.097   9.870  16.876  0.00  0.00    +0.000 A 
ATOM     10  C   UNL     1      -1.603  10.514  18.021  0.00  0.00    +0.000 A 
ATOM     11  C   UNL     1      -2.471  11.359  18.744  0.00  0.00    +0.000 A 
BRANCH  11  12
ATOM     12  O   UNL     1      -2.074  12.032  19.874  0.00  0.00    +0.000 OA
ATOM     13  H   UNL     1      -1.230  11.634  20.185  0.00  0.00    +0.000 HD
ENDBRANCH  11  12
ENDBRANCH   1  10
BRANCH   3  14
ATOM     14  C   UNL     1       2.125   9.680  17.987  0.00  0.00    +0.000 C 
BRANCH  14  15
ATOM     15  C   UNL     1       2.586   8.221  17.882  0.00  0.00    +0.000 C 
BRANCH  15  16
ATOM     16  C   UNL     1       2.264   7.407  19.103  0.00  0.00    +0.000 A 
ATOM     17  C   UNL     1       1.885   7.895  20.339  0.00  0.00    +0.000 A 
ATOM     18  N   UNL     1       1.683   6.838  21.182  0.00  0.00    +0.000 N 
ATOM     19  C   UNL     1       1.924   5.656  20.525  0.00  0.00    +0.000 A 
ATOM     20  C   UNL     1       1.845   4.341  20.997  0.00  0.00    +0.000 A 
ATOM     21  C   UNL     1       2.153   3.313  20.102  0.00  0.00    +0.000 A 
ATOM     22  C   UNL     1       2.519   3.602  18.791  0.00  0.00    +0.000 A 
ATOM     23 BR   UNL     1       2.929   2.181  17.611  0.00  0.00    +0.000 Br
ATOM     24  C   UNL     1       2.591   4.923  18.328  0.00  0.00    +0.000 A 
ATOM     25  C   UNL     1       2.291   5.977  19.217  0.00  0.00    +0.000 A 
ATOM     26  H   UNL     1       1.402   6.910  22.150  0.00  0.00    +0.000 HD
ENDBRANCH  15  16
ENDBRANCH  14  15
ENDBRANCH   3  14
TORSDOF 5
ENDMDL
MODEL 6
REMARK VINA RESULT:      -7.6      5.729      8.351
REMARK  Name = 
REMARK  6 active torsions:
REMARK  status: ('A' for Active; 'I' for Inactive)
REMARK    1  A    between atoms: C_1  and  C_2
REMARK    2  A    between atoms: C_6  and  C_7
REMARK    3  A    between atoms: N_9  and  C_10
REMARK    4  A    between atoms: C_10  and  C_11
REMARK    5  A    between atoms: C_11  and  C_12
REMARK    6  A    between atoms: C_22  and  O_23
REMARK                            x       y       z     vdW  Elec       q    Type
REMARK                         _______ _______ _______ _____ _____    ______ ____
ROOT
ATOM      1  C   UNL     1       5.166   3.721  18.305  0.00  0.00    +0.000 C 
ATOM      2  O   UNL     1       5.280   3.465  19.508  0.00  0.00    +0.000 OA
ATOM      3  N   UNL     1       4.378   2.962  17.466  0.00  0.00    +0.000 N 
ATOM      4  H   UNL     1       4.252   3.197  16.493  0.00  0.00    +0.000 HD
ENDROOT
BRANCH   1  10
ATOM      5  C   UNL     1       8.467   7.485  18.915  0.00  0.00    +0.000 C 
ATOM      6  C   UNL     1       7.525   6.705  18.043  0.00  0.00    +0.000 A 
ATOM      7  C   UNL     1       7.358   7.064  16.700  0.00  0.00    +0.000 A 
ATOM      8  C   UNL     1       6.484   6.351  15.882  0.00  0.00    +0.000 A 
ATOM      9  C   UNL     1       5.766   5.269  16.394  0.00  0.00    +0.000 A 
ATOM     10  C   UNL     1       5.915   4.881  17.734  0.00  0.00    +0.000 A 
ATOM     11  C   UNL     1       6.804   5.610  18.550  0.00  0.00    +0.000 A 
BRANCH  11  12
ATOM     12  O   UNL     1       7.016   5.300  19.873  0.00  0.00    +0.000 OA
ATOM     13  H   UNL     1       7.975   5.121  19.994  0.00  0.00    +0.000 HD
ENDBRANCH  11  12
ENDBRANCH   1  10
BRANCH   3  14
ATOM     14  C   UNL     1       3.621   1.835  17.984  0.00  0.00    +0.000 C 
BRANCH  14  15
ATOM     15  C   UNL     1       2.124   2.123  18.143  0.00  0.00    +0.000 C 
BRANCH  15  16
ATOM     16  C   UNL     1       1.811   3.014  19.312  0.00  0.00    +0.000 A 
ATOM     17  C   UNL     1       1.353   2.609  20.553  0.00  0.00    +0.000 A 
ATOM     18  N   UNL     1       1.190   3.716  21.338  0.00  0.00    +0.000 N 
ATOM     19  C   UNL     1       1.531   4.848  20.639  0.00  0.00    +0.000 A 
ATOM     20  C   UNL     1       1.514   6.187  21.045  0.00  0.00    +0.000 A 
ATOM     21  C   UNL     1       1.913   7.151  20.116  0.00  0.00    +0.000 A 
ATOM     22  C   UNL     1       2.314   6.776  18.837  0.00  0.00    +0.000 A 
ATOM     23 BR   UNL     1       2.847   8.112  17.607  0.00  0.00    +0.000 Br
ATOM     24  C   UNL     1       2.331   5.432  18.442  0.00  0.00    +0.000 A 
ATOM     25  C   UNL     1       1.926   4.443  19.363  0.00  0.00    +0.000 A 
ATOM     26  H   UNL     1       0.862   3.709  22.294  0.00  0.00    +0.000 HD
ENDBRANCH  15  16
ENDBRANCH  14  15
ENDBRANCH   3  14
TORSDOF 5
ENDMDL
MODEL 7
REMARK VINA RESULT:      -7.6      7.707     10.357
REMARK  Name = 
REMARK  6 active torsions:
REMARK  status: ('A' for Active; 'I' for Inactive)
REMARK    1  A    between atoms: C_1  and  C_2
REMARK    2  A    between atoms: C_6  and  C_7
REMARK    3  A    between atoms: N_9  and  C_10
REMARK    4  A    between atoms: C_10  and  C_11
REMARK    5  A    between atoms: C_11  and  C_12
REMARK    6  A    between atoms: C_22  and  O_23
REMARK                            x       y       z     vdW  Elec       q    Type
REMARK                         _______ _______ _______ _____ _____    ______ ____
ROOT
ATOM      1  C   UNL     1       7.496   6.749  18.131  0.00  0.00    +0.000 C 
ATOM      2  O   UNL     1       8.194   6.205  18.993  0.00  0.00    +0.000 OA
ATOM      3  N   UNL     1       7.690   8.061  17.753  0.00  0.00    +0.000 N 
ATOM      4  H   UNL     1       7.148   8.491  17.019  0.00  0.00    +0.000 HD
ENDROOT
BRANCH   1  10
ATOM      5  C   UNL     1       5.710   4.260  14.124  0.00  0.00    +0.000 C 
ATOM      6  C   UNL     1       5.543   4.759  15.532  0.00  0.00    +0.000 A 
ATOM      7  C   UNL     1       4.362   4.486  16.232  0.00  0.00    +0.000 A 
ATOM      8  C   UNL     1       4.192   4.947  17.535  0.00  0.00    +0.000 A 
ATOM      9  C   UNL     1       5.199   5.684  18.159  0.00  0.00    +0.000 A 
ATOM     10  C   UNL     1       6.397   5.969  17.486  0.00  0.00    +0.000 A 
ATOM     11  C   UNL     1       6.556   5.496  16.167  0.00  0.00    +0.000 A 
BRANCH  11  12
ATOM     12  O   UNL     1       7.696   5.726  15.432  0.00  0.00    +0.000 OA
ATOM     13  H   UNL     1       8.219   6.420  15.892  0.00  0.00    +0.000 HD
ENDBRANCH  11  12
ENDBRANCH   1  10
BRANCH   3  14
ATOM     14  C   UNL     1       8.757   8.849  18.344  0.00  0.00    +0.000 C 
BRANCH  14  15
ATOM     15  C   UNL     1       8.588  10.359  18.145  0.00  0.00    +0.000 C 
BRANCH  15  16
ATOM     16  C   UNL     1       9.252  11.179  19.215  0.00  0.00    +0.000 A 
ATOM     17  C   UNL     1       9.412  10.822  20.541  0.00  0.00    +0.000 A 
ATOM     18  N   UNL     1      10.063  11.835  21.188  0.00  0.00    +0.000 N 
ATOM     19  C   UNL     1      10.337  12.858  20.314  0.00  0.00    +0.000 A 
ATOM     20  C   UNL     1      10.980  14.080  20.542  0.00  0.00    +0.000 A 
ATOM     21  C   UNL     1      11.122  14.949  19.458  0.00  0.00    +0.000 A 
ATOM     22  C   UNL     1      10.640  14.597  18.201  0.00  0.00    +0.000 A 
ATOM     23 BR   UNL     1      10.852  15.803  16.758  0.00  0.00    +0.000 Br
ATOM     24  C   UNL     1      10.001  13.369  17.982  0.00  0.00    +0.000 A 
ATOM     25  C   UNL     1       9.841  12.478  19.065  0.00  0.00    +0.000 A 
ATOM     26  H   UNL     1      10.307  11.838  22.169  0.00  0.00    +0.000 HD
ENDBRANCH  15  16
ENDBRANCH  14  15
ENDBRANCH   3  14
TORSDOF 5
ENDMDL
MODEL 8
REMARK VINA RESULT:      -7.5      5.799      8.634
REMARK  Name = 
REMARK  6 active torsions:
REMARK  status: ('A' for Active; 'I' for Inactive)
REMARK    1  A    between atoms: C_1  and  C_2
REMARK    2  A    between atoms: C_6  and  C_7
REMARK    3  A    between atoms: N_9  and  C_10
REMARK    4  A    between atoms: C_10  and  C_11
REMARK    5  A    between atoms: C_11  and  C_12
REMARK    6  A    between atoms: C_22  and  O_23
REMARK                            x       y       z     vdW  Elec       q    Type
REMARK                         _______ _______ _______ _____ _____    ______ ____
ROOT
ATOM      1  C   UNL     1       5.076   3.379  18.418  0.00  0.00    +0.000 C 
ATOM      2  O   UNL     1       5.182   3.154  19.628  0.00  0.00    +0.000 OA
ATOM      3  N   UNL     1       4.230   2.650  17.609  0.00  0.00    +0.000 N 
ATOM      4  H   UNL     1       4.113   2.863  16.630  0.00  0.00    +0.000 HD
ENDROOT
BRANCH   1  10
ATOM      5  C   UNL     1       7.484   5.266  14.408  0.00  0.00    +0.000 C 
ATOM      6  C   UNL     1       7.063   5.372  15.846  0.00  0.00    +0.000 A 
ATOM      7  C   UNL     1       7.439   6.489  16.603  0.00  0.00    +0.000 A 
ATOM      8  C   UNL     1       7.060   6.597  17.938  0.00  0.00    +0.000 A 
ATOM      9  C   UNL     1       6.298   5.594  18.537  0.00  0.00    +0.000 A 
ATOM     10  C   UNL     1       5.900   4.465  17.805  0.00  0.00    +0.000 A 
ATOM     11  C   UNL     1       6.290   4.368  16.453  0.00  0.00    +0.000 A 
BRANCH  11  12
ATOM     12  O   UNL     1       5.944   3.300  15.659  0.00  0.00    +0.000 OA
ATOM     13  H   UNL     1       5.790   2.524  16.244  0.00  0.00    +0.000 HD
ENDBRANCH  11  12
ENDBRANCH   1  10
BRANCH   3  14
ATOM     14  C   UNL     1       3.401   1.597  18.168  0.00  0.00    +0.000 C 
BRANCH  14  15
ATOM     15  C   UNL     1       1.933   2.002  18.350  0.00  0.00    +0.000 C 
BRANCH  15  16
ATOM     16  C   UNL     1       1.717   2.960  19.486  0.00  0.00    +0.000 A 
ATOM     17  C   UNL     1       1.303   2.637  20.765  0.00  0.00    +0.000 A 
ATOM     18  N   UNL     1       1.228   3.787  21.501  0.00  0.00    +0.000 N 
ATOM     19  C   UNL     1       1.583   4.867  20.732  0.00  0.00    +0.000 A 
ATOM     20  C   UNL     1       1.644   6.223  21.071  0.00  0.00    +0.000 A 
ATOM     21  C   UNL     1       2.040   7.122  20.077  0.00  0.00    +0.000 A 
ATOM     22  C   UNL     1       2.361   6.669  18.801  0.00  0.00    +0.000 A 
ATOM     23 BR   UNL     1       2.891   7.919  17.482  0.00  0.00    +0.000 Br
ATOM     24  C   UNL     1       2.300   5.308  18.473  0.00  0.00    +0.000 A 
ATOM     25  C   UNL     1       1.897   4.384  19.460  0.00  0.00    +0.000 A 
ATOM     26  H   UNL     1       0.947   3.840  22.471  0.00  0.00    +0.000 HD
ENDBRANCH  15  16
ENDBRANCH  14  15
ENDBRANCH   3  14
TORSDOF 5
ENDMDL
MODEL 9
REMARK VINA RESULT:      -7.5      6.925      9.518
REMARK  Name = 
REMARK  6 active torsions:
REMARK  status: ('A' for Active; 'I' for Inactive)
REMARK    1  A    between atoms: C_1  and  C_2
REMARK    2  A    between atoms: C_6  and  C_7
REMARK    3  A    between atoms: N_9  and  C_10
REMARK    4  A    between atoms: C_10  and  C_11
REMARK    5  A    between atoms: C_11  and  C_12
REMARK    6  A    between atoms: C_22  and  O_23
REMARK                            x       y       z     vdW  Elec       q    Type
REMARK                         _______ _______ _______ _____ _____    ______ ____
ROOT
ATOM      1  C   UNL     1       8.525  10.223  18.138  0.00  0.00    +0.000 C 
ATOM      2  O   UNL     1       7.661  10.630  17.356  0.00  0.00    +0.000 OA
ATOM      3  N   UNL     1       8.672   8.885  18.437  0.00  0.00    +0.000 N 
ATOM      4  H   UNL     1       9.405   8.550  19.043  0.00  0.00    +0.000 HD
ENDROOT
BRANCH   1  10
ATOM      5  C   UNL     1      10.687  14.780  18.180  0.00  0.00    +0.000 C 
ATOM      6  C   UNL     1      10.476  13.430  18.806  0.00  0.00    +0.000 A 
ATOM      7  C   UNL     1      11.127  13.106  20.002  0.00  0.00    +0.000 A 
ATOM      8  C   UNL     1      10.944  11.857  20.589  0.00  0.00    +0.000 A 
ATOM      9  C   UNL     1      10.106  10.914  19.992  0.00  0.00    +0.000 A 
ATOM     10  C   UNL     1       9.435  11.210  18.795  0.00  0.00    +0.000 A 
ATOM     11  C   UNL     1       9.629  12.479  18.212  0.00  0.00    +0.000 A 
BRANCH  11  12
ATOM     12  O   UNL     1       9.011  12.857  17.043  0.00  0.00    +0.000 OA
ATOM     13  H   UNL     1       8.166  12.360  16.972  0.00  0.00    +0.000 HD
ENDBRANCH  11  12
ENDBRANCH   1  10
BRANCH   3  14
ATOM     14  C   UNL     1       7.819   7.891  17.809  0.00  0.00    +0.000 C 
BRANCH  14  15
ATOM     15  C   UNL     1       7.789   6.550  18.550  0.00  0.00    +0.000 C 
BRANCH  15  16
ATOM     16  C   UNL     1       6.967   5.503  17.853  0.00  0.00    +0.000 A 
ATOM     17  C   UNL     1       7.376   4.705  16.800  0.00  0.00    +0.000 A 
ATOM     18  N   UNL     1       6.341   3.884  16.449  0.00  0.00    +0.000 N 
ATOM     19  C   UNL     1       5.252   4.125  17.250  0.00  0.00    +0.000 A 
ATOM     20  C   UNL     1       3.988   3.524  17.243  0.00  0.00    +0.000 A 
ATOM     21  C   UNL     1       3.054   3.971  18.180  0.00  0.00    +0.000 A 
ATOM     22  C   UNL     1       3.384   4.976  19.084  0.00  0.00    +0.000 A 
ATOM     23 BR   UNL     1       2.088   5.555  20.337  0.00  0.00    +0.000 Br
ATOM     24  C   UNL     1       4.653   5.568  19.086  0.00  0.00    +0.000 A 
ATOM     25  C   UNL     1       5.611   5.136  18.144  0.00  0.00    +0.000 A 
ATOM     26  H   UNL     1       6.367   3.199  15.706  0.00  0.00    +0.000 HD
ENDBRANCH  15  16
ENDBRANCH  14  15
ENDBRANCH   3  14
TORSDOF 5
ENDMDL
