MODEL 1
REMARK VINA RESULT:      -7.6      0.000      0.000
REMARK  Name = 
REMARK  6 active torsions:
REMARK  status: ('A' for Active; 'I' for Inactive)
REMARK    1  A    between atoms: C_1  and  N_2
REMARK    2  A    between atoms: N_2  and  C_3
REMARK    3  A    between atoms: C_4  and  C_6
REMARK    4  A    between atoms: C_8  and  C_9
REMARK    5  A    between atoms: C_8  and  C_10
REMARK    6  A    between atoms: C_15  and  N_16
REMARK                            x       y       z     vdW  Elec       q    Type
REMARK                         _______ _______ _______ _____ _____    ______ ____
ROOT
ATOM      1  C   UNL     1       2.572   6.493  18.655  0.00  0.00    +0.000 C 
ATOM      2  C   UNL     1       1.637   5.581  18.967  0.00  0.00    +0.000 C 
ATOM      3  C   UNL     1       1.919   4.150  19.335  0.00  0.00    +0.000 C 
ATOM      4  C   UNL     1       1.447   3.238  18.199  0.00  0.00    +0.000 C 
ATOM      5  C   UNL     1       1.169   3.803  20.628  0.00  0.00    +0.000 C 
ATOM      6  O   UNL     1       3.297   3.875  19.615  0.00  0.00    +0.000 OA
ATOM      7  C   UNL     1       4.218   4.636  18.946  0.00  0.00    +0.000 A 
ATOM      8  C   UNL     1       5.470   4.028  18.795  0.00  0.00    +0.000 A 
ATOM      9  C   UNL     1       6.473   4.671  18.082  0.00  0.00    +0.000 A 
ATOM     10  C   UNL     1       6.212   5.933  17.540  0.00  0.00    +0.000 A 
ATOM     11  C   UNL     1       4.966   6.561  17.734  0.00  0.00    +0.000 A 
ATOM     12  C   UNL     1       3.936   5.920  18.446  0.00  0.00    +0.000 A 
ENDROOT
BRANCH   1  16
ATOM     13  C   UNL     1       1.266  10.108  18.819  0.00  0.00    +0.000 C 
ATOM     14  N   UNL     1       1.593   8.764  19.273  0.00  0.00    +0.000 N 
ATOM     15  C   UNL     1       1.339   8.491  20.679  0.00  0.00    +0.000 C 
ATOM     16  C   UNL     1       2.180   7.922  18.323  0.00  0.00    +0.000 C 
ATOM     17  O   UNL     1       2.404   8.353  17.190  0.00  0.00    +0.000 OA
ENDBRANCH   1  16
BRANCH  10  18
ATOM     18  N   UNL     1       7.253   6.593  16.736  0.00  0.00    +0.000 N 
ATOM     19  O   UNL     1       7.718   7.661  17.161  0.00  0.00    +0.000 OA
ATOM     20  O   UNL     1       7.613   6.041  15.688  0.00  0.00    +0.000 OA
ENDBRANCH  10  18
TORSDOF 2
ENDMDL
MODEL 2
REMARK VINA RESULT:      -6.9      3.628      5.537
REMARK  Name = 
REMARK  6 active torsions:
REMARK  status: ('A' for Active; 'I' for Inactive)
REMARK    1  A    between atoms: C_1  and  N_2
REMARK    2  A    between atoms: N_2  and  C_3
REMARK    3  A    between atoms: C_4  and  C_6
REMARK    4  A    between atoms: C_8  and  C_9
REMARK    5  A    between atoms: C_8  and  C_10
REMARK    6  A    between atoms: C_15  and  N_16
REMARK                            x       y       z     vdW  Elec       q    Type
REMARK                         _______ _______ _______ _____ _____    ______ ____
ROOT
ATOM      1  C   UNL     1       5.027   4.473  16.709  0.00  0.00    +0.000 C 
ATOM      2  C   UNL     1       5.890   4.841  17.670  0.00  0.00    +0.000 C 
ATOM      3  C   UNL     1       7.259   5.413  17.425  0.00  0.00    +0.000 C 
ATOM      4  C   UNL     1       8.315   4.381  17.828  0.00  0.00    +0.000 C 
ATOM      5  C   UNL     1       7.432   6.690  18.260  0.00  0.00    +0.000 C 
ATOM      6  O   UNL     1       7.494   5.818  16.070  0.00  0.00    +0.000 OA
ATOM      7  C   UNL     1       6.828   5.115  15.100  0.00  0.00    +0.000 A 
ATOM      8  C   UNL     1       7.451   5.130  13.846  0.00  0.00    +0.000 A 
ATOM      9  C   UNL     1       6.908   4.404  12.794  0.00  0.00    +0.000 A 
ATOM     10  C   UNL     1       5.729   3.684  13.008  0.00  0.00    +0.000 A 
ATOM     11  C   UNL     1       5.082   3.710  14.260  0.00  0.00    +0.000 A 
ATOM     12  C   UNL     1       5.623   4.432  15.339  0.00  0.00    +0.000 A 
ENDROOT
BRANCH   1  16
ATOM     13  C   UNL     1       1.408   4.081  17.953  0.00  0.00    +0.000 C 
ATOM     14  N   UNL     1       2.677   4.732  17.662  0.00  0.00    +0.000 N 
ATOM     15  C   UNL     1       2.742   6.156  17.955  0.00  0.00    +0.000 C 
ATOM     16  C   UNL     1       3.656   3.929  17.067  0.00  0.00    +0.000 C 
ATOM     17  O   UNL     1       3.395   2.752  16.807  0.00  0.00    +0.000 OA
ENDBRANCH   1  16
BRANCH  10  18
ATOM     18  N   UNL     1       5.182   2.869  11.912  0.00  0.00    +0.000 N 
ATOM     19  O   UNL     1       4.091   3.211  11.431  0.00  0.00    +0.000 OA
ATOM     20  O   UNL     1       5.844   1.898  11.525  0.00  0.00    +0.000 OA
ENDBRANCH  10  18
TORSDOF 2
ENDMDL
MODEL 3
REMARK VINA RESULT:      -6.8      0.866      1.032
REMARK  Name = 
REMARK  6 active torsions:
REMARK  status: ('A' for Active; 'I' for Inactive)
REMARK    1  A    between atoms: C_1  and  N_2
REMARK    2  A    between atoms: N_2  and  C_3
REMARK    3  A    between atoms: C_4  and  C_6
REMARK    4  A    between atoms: C_8  and  C_9
REMARK    5  A    between atoms: C_8  and  C_10
REMARK    6  A    between atoms: C_15  and  N_16
REMARK                            x       y       z     vdW  Elec       q    Type
REMARK                         _______ _______ _______ _____ _____    ______ ____
ROOT
ATOM      1  C   UNL     1       2.443   6.158  19.258  0.00  0.00    +0.000 C 
ATOM      2  C   UNL     1       1.634   5.253  19.832  0.00  0.00    +0.000 C 
ATOM      3  C   UNL     1       2.029   3.846  20.184  0.00  0.00    +0.000 C 
ATOM      4  C   UNL     1       1.314   2.873  19.242  0.00  0.00    +0.000 C 
ATOM      5  C   UNL     1       1.627   3.556  21.637  0.00  0.00    +0.000 C 
ATOM      6  O   UNL     1       3.439   3.599  20.130  0.00  0.00    +0.000 OA
ATOM      7  C   UNL     1       4.152   4.335  19.220  0.00  0.00    +0.000 A 
ATOM      8  C   UNL     1       5.342   3.733  18.794  0.00  0.00    +0.000 A 
ATOM      9  C   UNL     1       6.124   4.350  17.827  0.00  0.00    +0.000 A 
ATOM     10  C   UNL     1       5.711   5.581  17.309  0.00  0.00    +0.000 A 
ATOM     11  C   UNL     1       4.537   6.205  17.775  0.00  0.00    +0.000 A 
ATOM     12  C   UNL     1       3.727   5.589  18.747  0.00  0.00    +0.000 A 
ENDROOT
BRANCH   1  16
ATOM     13  C   UNL     1       1.061   9.735  19.566  0.00  0.00    +0.000 C 
ATOM     14  N   UNL     1       1.508   8.415  19.985  0.00  0.00    +0.000 N 
ATOM     15  C   UNL     1       1.512   8.174  21.421  0.00  0.00    +0.000 C 
ATOM     16  C   UNL     1       1.950   7.565  18.967  0.00  0.00    +0.000 C 
ATOM     17  O   UNL     1       1.959   7.970  17.803  0.00  0.00    +0.000 OA
ENDBRANCH   1  16
BRANCH  10  18
ATOM     18  N   UNL     1       6.508   6.210  16.244  0.00  0.00    +0.000 N 
ATOM     19  O   UNL     1       6.033   6.215  15.098  0.00  0.00    +0.000 OA
ATOM     20  O   UNL     1       7.600   6.706  16.552  0.00  0.00    +0.000 OA
ENDBRANCH  10  18
TORSDOF 2
ENDMDL
MODEL 4
REMARK VINA RESULT:      -6.8      1.444      1.777
REMARK  Name = 
REMARK  6 active torsions:
REMARK  status: ('A' for Active; 'I' for Inactive)
REMARK    1  A    between atoms: C_1  and  N_2
REMARK    2  A    between atoms: N_2  and  C_3
REMARK    3  A    between atoms: C_4  and  C_6
REMARK    4  A    between atoms: C_8  and  C_9
REMARK    5  A    between atoms: C_8  and  C_10
REMARK    6  A    between atoms: C_15  and  N_16
REMARK                            x       y       z     vdW  Elec       q    Type
REMARK                         _______ _______ _______ _____ _____    ______ ____
ROOT
ATOM      1  C   UNL     1       2.250   6.039  20.044  0.00  0.00    +0.000 C 
ATOM      2  C   UNL     1       1.440   5.049  20.454  0.00  0.00    +0.000 C 
ATOM      3  C   UNL     1       1.738   3.581  20.320  0.00  0.00    +0.000 C 
ATOM      4  C   UNL     1       0.811   2.974  19.263  0.00  0.00    +0.000 C 
ATOM      5  C   UNL     1       1.509   2.892  21.672  0.00  0.00    +0.000 C 
ATOM      6  O   UNL     1       3.097   3.286  19.975  0.00  0.00    +0.000 OA
ATOM      7  C   UNL     1       3.750   4.221  19.215  0.00  0.00    +0.000 A 
ATOM      8  C   UNL     1       4.807   3.710  18.452  0.00  0.00    +0.000 A 
ATOM      9  C   UNL     1       5.509   4.544  17.592  0.00  0.00    +0.000 A 
ATOM     10  C   UNL     1       5.153   5.894  17.522  0.00  0.00    +0.000 A 
ATOM     11  C   UNL     1       4.119   6.413  18.326  0.00  0.00    +0.000 A 
ATOM     12  C   UNL     1       3.391   5.580  19.195  0.00  0.00    +0.000 A 
ENDROOT
BRANCH   1  16
ATOM     13  C   UNL     1       1.265   9.721  19.520  0.00  0.00    +0.000 C 
ATOM     14  N   UNL     1       1.627   8.354  19.176  0.00  0.00    +0.000 N 
ATOM     15  C   UNL     1       1.622   8.034  17.756  0.00  0.00    +0.000 C 
ATOM     16  C   UNL     1       1.863   7.493  20.252  0.00  0.00    +0.000 C 
ATOM     17  O   UNL     1       1.736   7.916  21.403  0.00  0.00    +0.000 OA
ENDBRANCH   1  16
BRANCH  10  18
ATOM     18  N   UNL     1       5.857   6.769  16.571  0.00  0.00    +0.000 N 
ATOM     19  O   UNL     1       5.447   6.793  15.400  0.00  0.00    +0.000 OA
ATOM     20  O   UNL     1       6.809   7.438  16.993  0.00  0.00    +0.000 OA
ENDBRANCH  10  18
TORSDOF 2
ENDMDL
MODEL 5
REMARK VINA RESULT:      -6.8      2.149      4.704
REMARK  Name = 
REMARK  6 active torsions:
REMARK  status: ('A' for Active; 'I' for Inactive)
REMARK    1  A    between atoms: C_1  and  N_2
REMARK    2  A    between atoms: N_2  and  C_3
REMARK    3  A    between atoms: C_4  and  C_6
REMARK    4  A    between atoms: C_8  and  C_9
REMARK    5  A    between atoms: C_8  and  C_10
REMARK    6  A    between atoms: C_15  and  N_16
REMARK                            x       y       z     vdW  Elec       q    Type
REMARK                         _______ _______ _______ _____ _____    ______ ____
ROOT
ATOM      1  C   UNL     1       3.784   6.630  17.824  0.00  0.00    +0.000 C 
ATOM      2  C   UNL     1       5.102   6.888  17.774  0.00  0.00    +0.000 C 
ATOM      3  C   UNL     1       6.174   5.854  17.565  0.00  0.00    +0.000 C 
ATOM      4  C   UNL     1       6.956   5.671  18.869  0.00  0.00    +0.000 C 
ATOM      5  C   UNL     1       7.119   6.323  16.451  0.00  0.00    +0.000 C 
ATOM      6  O   UNL     1       5.686   4.579  17.130  0.00  0.00    +0.000 OA
ATOM      7  C   UNL     1       4.429   4.231  17.552  0.00  0.00    +0.000 A 
ATOM      8  C   UNL     1       4.198   2.851  17.602  0.00  0.00    +0.000 A 
ATOM      9  C   UNL     1       2.985   2.368  18.072  0.00  0.00    +0.000 A 
ATOM     10  C   UNL     1       2.003   3.280  18.470  0.00  0.00    +0.000 A 
ATOM     11  C   UNL     1       2.224   4.669  18.374  0.00  0.00    +0.000 A 
ATOM     12  C   UNL     1       3.452   5.175  17.910  0.00  0.00    +0.000 A 
ENDROOT
BRANCH   1  16
ATOM     13  C   UNL     1       1.159   9.048  19.259  0.00  0.00    +0.000 C 
ATOM     14  N   UNL     1       2.091   7.931  19.216  0.00  0.00    +0.000 N 
ATOM     15  C   UNL     1       2.246   7.186  20.456  0.00  0.00    +0.000 C 
ATOM     16  C   UNL     1       2.782   7.754  18.013  0.00  0.00    +0.000 C 
ATOM     17  O   UNL     1       2.588   8.541  17.084  0.00  0.00    +0.000 OA
ENDBRANCH   1  16
BRANCH  10  18
ATOM     18  N   UNL     1       0.738   2.771  19.022  0.00  0.00    +0.000 N 
ATOM     19  O   UNL     1       0.387   3.188  20.137  0.00  0.00    +0.000 OA
ATOM     20  O   UNL     1       0.090   1.966  18.340  0.00  0.00    +0.000 OA
ENDBRANCH  10  18
TORSDOF 2
ENDMDL
MODEL 6
REMARK VINA RESULT:      -6.7      2.040      4.978
REMARK  Name = 
REMARK  6 active torsions:
REMARK  status: ('A' for Active; 'I' for Inactive)
REMARK    1  A    between atoms: C_1  and  N_2
REMARK    2  A    between atoms: N_2  and  C_3
REMARK    3  A    between atoms: C_4  and  C_6
REMARK    4  A    between atoms: C_8  and  C_9
REMARK    5  A    between atoms: C_8  and  C_10
REMARK    6  A    between atoms: C_15  and  N_16
REMARK                            x       y       z     vdW  Elec       q    Type
REMARK                         _______ _______ _______ _____ _____    ______ ____
ROOT
ATOM      1  C   UNL     1       4.382   4.864  18.255  0.00  0.00    +0.000 C 
ATOM      2  C   UNL     1       4.714   3.569  18.382  0.00  0.00    +0.000 C 
ATOM      3  C   UNL     1       3.873   2.527  19.067  0.00  0.00    +0.000 C 
ATOM      4  C   UNL     1       4.549   2.120  20.380  0.00  0.00    +0.000 C 
ATOM      5  C   UNL     1       3.736   1.304  18.150  0.00  0.00    +0.000 C 
ATOM      6  O   UNL     1       2.530   2.942  19.342  0.00  0.00    +0.000 OA
ATOM      7  C   UNL     1       2.341   4.280  19.572  0.00  0.00    +0.000 A 
ATOM      8  C   UNL     1       1.214   4.579  20.348  0.00  0.00    +0.000 A 
ATOM      9  C   UNL     1       0.946   5.893  20.704  0.00  0.00    +0.000 A 
ATOM     10  C   UNL     1       1.805   6.902  20.259  0.00  0.00    +0.000 A 
ATOM     11  C   UNL     1       2.912   6.601  19.440  0.00  0.00    +0.000 A 
ATOM     12  C   UNL     1       3.203   5.273  19.078  0.00  0.00    +0.000 A 
ENDROOT
BRANCH   1  16
ATOM     13  C   UNL     1       7.315   7.128  17.219  0.00  0.00    +0.000 C 
ATOM     14  N   UNL     1       6.545   6.193  18.027  0.00  0.00    +0.000 N 
ATOM     15  C   UNL     1       7.206   5.695  19.224  0.00  0.00    +0.000 C 
ATOM     16  C   UNL     1       5.294   5.829  17.519  0.00  0.00    +0.000 C 
ATOM     17  O   UNL     1       4.926   6.287  16.435  0.00  0.00    +0.000 OA
ENDBRANCH   1  16
BRANCH  10  18
ATOM     18  N   UNL     1       1.556   8.290  20.681  0.00  0.00    +0.000 N 
ATOM     19  O   UNL     1       1.394   9.140  19.793  0.00  0.00    +0.000 OA
ATOM     20  O   UNL     1       1.512   8.528  21.895  0.00  0.00    +0.000 OA
ENDBRANCH  10  18
TORSDOF 2
ENDMDL
MODEL 7
REMARK VINA RESULT:      -6.5      2.476      4.706
REMARK  Name = 
REMARK  6 active torsions:
REMARK  status: ('A' for Active; 'I' for Inactive)
REMARK    1  A    between atoms: C_1  and  N_2
REMARK    2  A    between atoms: N_2  and  C_3
REMARK    3  A    between atoms: C_4  and  C_6
REMARK    4  A    between atoms: C_8  and  C_9
REMARK    5  A    between atoms: C_8  and  C_10
REMARK    6  A    between atoms: C_15  and  N_16
REMARK                            x       y       z     vdW  Elec       q    Type
REMARK                         _______ _______ _______ _____ _____    ______ ____
ROOT
ATOM      1  C   UNL     1       3.018   6.775  18.660  0.00  0.00    +0.000 C 
ATOM      2  C   UNL     1       3.939   7.256  17.809  0.00  0.00    +0.000 C 
ATOM      3  C   UNL     1       4.844   6.412  16.954  0.00  0.00    +0.000 C 
ATOM      4  C   UNL     1       6.277   6.514  17.485  0.00  0.00    +0.000 C 
ATOM      5  C   UNL     1       4.787   6.916  15.505  0.00  0.00    +0.000 C 
ATOM      6  O   UNL     1       4.469   5.031  16.884  0.00  0.00    +0.000 OA
ATOM      7  C   UNL     1       3.840   4.514  17.987  0.00  0.00    +0.000 A 
ATOM      8  C   UNL     1       3.980   3.129  18.135  0.00  0.00    +0.000 A 
ATOM      9  C   UNL     1       3.441   2.492  19.245  0.00  0.00    +0.000 A 
ATOM     10  C   UNL     1       2.747   3.254  20.189  0.00  0.00    +0.000 A 
ATOM     11  C   UNL     1       2.569   4.641  20.012  0.00  0.00    +0.000 A 
ATOM     12  C   UNL     1       3.117   5.303  18.898  0.00  0.00    +0.000 A 
ENDROOT
BRANCH   1  16
ATOM     13  C   UNL     1       0.801   9.711  19.787  0.00  0.00    +0.000 C 
ATOM     14  N   UNL     1       1.632   8.901  18.908  0.00  0.00    +0.000 N 
ATOM     15  C   UNL     1       1.770   9.383  17.542  0.00  0.00    +0.000 C 
ATOM     16  C   UNL     1       2.136   7.718  19.459  0.00  0.00    +0.000 C 
ATOM     17  O   UNL     1       1.843   7.420  20.619  0.00  0.00    +0.000 OA
ENDBRANCH   1  16
BRANCH  10  18
ATOM     18  N   UNL     1       2.223   2.592  21.395  0.00  0.00    +0.000 N 
ATOM     19  O   UNL     1       3.040   2.034  22.144  0.00  0.00    +0.000 OA
ATOM     20  O   UNL     1       1.003   2.638  21.599  0.00  0.00    +0.000 OA
ENDBRANCH  10  18
TORSDOF 2
ENDMDL
MODEL 8
REMARK VINA RESULT:      -6.5      3.586      5.632
REMARK  Name = 
REMARK  6 active torsions:
REMARK  status: ('A' for Active; 'I' for Inactive)
REMARK    1  A    between atoms: C_1  and  N_2
REMARK    2  A    between atoms: N_2  and  C_3
REMARK    3  A    between atoms: C_4  and  C_6
REMARK    4  A    between atoms: C_8  and  C_9
REMARK    5  A    between atoms: C_8  and  C_10
REMARK    6  A    between atoms: C_15  and  N_16
REMARK                            x       y       z     vdW  Elec       q    Type
REMARK                         _______ _______ _______ _____ _____    ______ ____
ROOT
ATOM      1  C   UNL     1       4.999   4.902  16.888  0.00  0.00    +0.000 C 
ATOM      2  C   UNL     1       5.895   5.201  17.842  0.00  0.00    +0.000 C 
ATOM      3  C   UNL     1       7.328   5.581  17.589  0.00  0.00    +0.000 C 
ATOM      4  C   UNL     1       8.240   4.441  18.051  0.00  0.00    +0.000 C 
ATOM      5  C   UNL     1       7.657   6.862  18.368  0.00  0.00    +0.000 C 
ATOM      6  O   UNL     1       7.622   5.889  16.220  0.00  0.00    +0.000 OA
ATOM      7  C   UNL     1       6.878   5.233  15.275  0.00  0.00    +0.000 A 
ATOM      8  C   UNL     1       7.505   5.110  14.029  0.00  0.00    +0.000 A 
ATOM      9  C   UNL     1       6.881   4.412  13.004  0.00  0.00    +0.000 A 
ATOM     10  C   UNL     1       5.618   3.860  13.236  0.00  0.00    +0.000 A 
ATOM     11  C   UNL     1       4.971   4.026  14.476  0.00  0.00    +0.000 A 
ATOM     12  C   UNL     1       5.593   4.722  15.529  0.00  0.00    +0.000 A 
ENDROOT
BRANCH   1  16
ATOM     13  C   UNL     1       1.775   3.057  17.892  0.00  0.00    +0.000 C 
ATOM     14  N   UNL     1       3.180   3.247  17.561  0.00  0.00    +0.000 N 
ATOM     15  C   UNL     1       4.023   2.065  17.669  0.00  0.00    +0.000 C 
ATOM     16  C   UNL     1       3.566   4.555  17.253  0.00  0.00    +0.000 C 
ATOM     17  O   UNL     1       2.728   5.458  17.295  0.00  0.00    +0.000 OA
ENDBRANCH   1  16
BRANCH  10  18
ATOM     18  N   UNL     1       4.978   3.071  12.170  0.00  0.00    +0.000 N 
ATOM     19  O   UNL     1       3.883   3.467  11.742  0.00  0.00    +0.000 OA
ATOM     20  O   UNL     1       5.571   2.068  11.755  0.00  0.00    +0.000 OA
ENDBRANCH  10  18
TORSDOF 2
ENDMDL
MODEL 9
REMARK VINA RESULT:      -6.3      3.020      4.520
REMARK  Name = 
REMARK  6 active torsions:
REMARK  status: ('A' for Active; 'I' for Inactive)
REMARK    1  A    between atoms: C_1  and  N_2
REMARK    2  A    between atoms: N_2  and  C_3
REMARK    3  A    between atoms: C_4  and  C_6
REMARK    4  A    between atoms: C_8  and  C_9
REMARK    5  A    between atoms: C_8  and  C_10
REMARK    6  A    between atoms: C_15  and  N_16
REMARK                            x       y       z     vdW  Elec       q    Type
REMARK                         _______ _______ _______ _____ _____    ______ ____
ROOT
ATOM      1  C   UNL     1       6.390   5.352  17.968  0.00  0.00    +0.000 C 
ATOM      2  C   UNL     1       5.263   5.159  18.672  0.00  0.00    +0.000 C 
ATOM      3  C   UNL     1       4.113   4.293  18.236  0.00  0.00    +0.000 C 
ATOM      4  C   UNL     1       2.921   5.184  17.876  0.00  0.00    +0.000 C 
ATOM      5  C   UNL     1       3.730   3.346  19.381  0.00  0.00    +0.000 C 
ATOM      6  O   UNL     1       4.409   3.436  17.126  0.00  0.00    +0.000 OA
ATOM      7  C   UNL     1       5.336   3.900  16.229  0.00  0.00    +0.000 A 
ATOM      8  C   UNL     1       5.211   3.366  14.941  0.00  0.00    +0.000 A 
ATOM      9  C   UNL     1       6.051   3.801  13.925  0.00  0.00    +0.000 A 
ATOM     10  C   UNL     1       7.026   4.759  14.219  0.00  0.00    +0.000 A 
ATOM     11  C   UNL     1       7.178   5.259  15.527  0.00  0.00    +0.000 A 
ATOM     12  C   UNL     1       6.329   4.836  16.566  0.00  0.00    +0.000 A 
ENDROOT
BRANCH   1  16
ATOM     13  C   UNL     1       8.751   8.291  18.736  0.00  0.00    +0.000 C 
ATOM     14  N   UNL     1       7.638   7.568  18.138  0.00  0.00    +0.000 N 
ATOM     15  C   UNL     1       6.759   8.353  17.284  0.00  0.00    +0.000 C 
ATOM     16  C   UNL     1       7.504   6.228  18.514  0.00  0.00    +0.000 C 
ATOM     17  O   UNL     1       8.298   5.746  19.324  0.00  0.00    +0.000 OA
ENDBRANCH   1  16
BRANCH  10  18
ATOM     18  N   UNL     1       7.880   5.264  13.133  0.00  0.00    +0.000 N 
ATOM     19  O   UNL     1       7.606   4.912  11.975  0.00  0.00    +0.000 OA
ATOM     20  O   UNL     1       8.816   6.017  13.432  0.00  0.00    +0.000 OA
ENDBRANCH  10  18
TORSDOF 2
ENDMDL
