MODEL 1
REMARK VINA RESULT:      -8.3      0.000      0.000
REMARK  Name = 
REMARK  4 active torsions:
REMARK  status: ('A' for Active; 'I' for Inactive)
REMARK    1  A    between atoms: C_2  and  C_3
REMARK    2  A    between atoms: C_3  and  N_4
REMARK    3  A    between atoms: N_15  and  C_16
REMARK    4  A    between atoms: C_20  and  O_21
REMARK                            x       y       z     vdW  Elec       q    Type
REMARK                         _______ _______ _______ _____ _____    ______ ____
ROOT
ATOM      1  O   UNL     1       1.215   4.607  20.119  0.00  0.00    +0.000 OA
ATOM      2  C   UNL     1       2.405   4.879  19.986  0.00  0.00    +0.000 C 
ATOM      3  N   UNL     1       2.925   6.144  19.738  0.00  0.00    +0.000 N 
ATOM      4  H   UNL     1       3.846   6.175  19.302  0.00  0.00    +0.000 HD
ENDROOT
BRANCH   3   5
ATOM      5  C   UNL     1       2.214   7.364  19.770  0.00  0.00    +0.000 A 
ATOM      6  C   UNL     1       1.510   7.811  20.891  0.00  0.00    +0.000 A 
ATOM      7  C   UNL     1       0.786   9.009  20.849  0.00  0.00    +0.000 A 
ATOM      8  C   UNL     1       0.767   9.776  19.688  0.00  0.00    +0.000 A 
ATOM      9  C   UNL     1       1.498   9.351  18.585  0.00  0.00    +0.000 A 
ATOM     10  C   UNL     1       2.228   8.163  18.620  0.00  0.00    +0.000 A 
BRANCH   9  11
ATOM     11  O   UNL     1       1.515  10.076  17.429  0.00  0.00    +0.000 OA
ATOM     12  H   UNL     1       1.214   9.507  16.703  0.00  0.00    +0.000 HD
ENDBRANCH   9  11
ENDBRANCH   3   5
BRANCH   2  13
ATOM     13  C   UNL     1       3.468   3.780  19.983  0.00  0.00    +0.000 C 
BRANCH  13  14
ATOM     14  N   UNL     1       4.325   3.918  18.825  0.00  0.00    +0.000 N 
ATOM     15  C   UNL     1       5.542   4.543  18.827  0.00  0.00    +0.000 C 
ATOM     16  O   UNL     1       6.139   5.066  19.750  0.00  0.00    +0.000 OA
ATOM     17  C   UNL     1       6.004   4.556  17.439  0.00  0.00    +0.000 A 
ATOM     18  C   UNL     1       7.163   5.061  16.882  0.00  0.00    +0.000 A 
ATOM     19  C   UNL     1       7.312   4.942  15.496  0.00  0.00    +0.000 A 
ATOM     20  C   UNL     1       6.312   4.335  14.710  0.00  0.00    +0.000 A 
ATOM     21  C   UNL     1       5.139   3.843  15.296  0.00  0.00    +0.000 A 
ATOM     22  C   UNL     1       5.015   3.972  16.664  0.00  0.00    +0.000 A 
ATOM     23  C   UNL     1       3.919   3.606  17.559  0.00  0.00    +0.000 C 
ATOM     24  O   UNL     1       2.845   3.148  17.213  0.00  0.00    +0.000 OA
ENDBRANCH  13  14
ENDBRANCH   2  13
TORSDOF 4
ENDMDL
MODEL 2
REMARK VINA RESULT:      -8.2      2.544      6.889
REMARK  Name = 
REMARK  4 active torsions:
REMARK  status: ('A' for Active; 'I' for Inactive)
REMARK    1  A    between atoms: C_2  and  C_3
REMARK    2  A    between atoms: C_3  and  N_4
REMARK    3  A    between atoms: N_15  and  C_16
REMARK    4  A    between atoms: C_20  and  O_21
REMARK                            x       y       z     vdW  Elec       q    Type
REMARK                         _______ _______ _______ _____ _____    ______ ____
ROOT
ATOM      1  O   UNL     1       4.917   6.960  15.549  0.00  0.00    +0.000 OA
ATOM      2  C   UNL     1       5.646   6.288  16.275  0.00  0.00    +0.000 C 
ATOM      3  N   UNL     1       6.454   5.236  15.862  0.00  0.00    +0.000 N 
ATOM      4  H   UNL     1       6.711   4.558  16.578  0.00  0.00    +0.000 HD
ENDROOT
BRANCH   3   5
ATOM      5  C   UNL     1       6.726   4.861  14.527  0.00  0.00    +0.000 A 
ATOM      6  C   UNL     1       7.664   5.515  13.724  0.00  0.00    +0.000 A 
ATOM      7  C   UNL     1       7.859   5.127  12.393  0.00  0.00    +0.000 A 
ATOM      8  C   UNL     1       7.124   4.073  11.856  0.00  0.00    +0.000 A 
ATOM      9  C   UNL     1       6.219   3.398  12.665  0.00  0.00    +0.000 A 
ATOM     10  C   UNL     1       6.024   3.774  13.994  0.00  0.00    +0.000 A 
BRANCH   9  11
ATOM     11  O   UNL     1       5.485   2.354  12.183  0.00  0.00    +0.000 OA
ATOM     12  H   UNL     1       4.599   2.678  11.958  0.00  0.00    +0.000 HD
ENDBRANCH   9  11
ENDBRANCH   3   5
BRANCH   2  13
ATOM     13  C   UNL     1       5.654   6.495  17.789  0.00  0.00    +0.000 C 
BRANCH  13  14
ATOM     14  N   UNL     1       4.644   5.667  18.412  0.00  0.00    +0.000 N 
ATOM     15  C   UNL     1       3.375   6.080  18.714  0.00  0.00    +0.000 C 
ATOM     16  O   UNL     1       2.848   7.159  18.516  0.00  0.00    +0.000 OA
ATOM     17  C   UNL     1       2.739   4.975  19.432  0.00  0.00    +0.000 A 
ATOM     18  C   UNL     1       1.468   4.861  19.963  0.00  0.00    +0.000 A 
ATOM     19  C   UNL     1       1.156   3.669  20.625  0.00  0.00    +0.000 A 
ATOM     20  C   UNL     1       2.108   2.636  20.744  0.00  0.00    +0.000 A 
ATOM     21  C   UNL     1       3.394   2.781  20.211  0.00  0.00    +0.000 A 
ATOM     22  C   UNL     1       3.679   3.965  19.562  0.00  0.00    +0.000 A 
ATOM     23  C   UNL     1       4.916   4.438  18.943  0.00  0.00    +0.000 C 
ATOM     24  O   UNL     1       5.981   3.847  18.947  0.00  0.00    +0.000 OA
ENDBRANCH  13  14
ENDBRANCH   2  13
TORSDOF 4
ENDMDL
MODEL 3
REMARK VINA RESULT:      -8.2      3.107      6.683
REMARK  Name = 
REMARK  4 active torsions:
REMARK  status: ('A' for Active; 'I' for Inactive)
REMARK    1  A    between atoms: C_2  and  C_3
REMARK    2  A    between atoms: C_3  and  N_4
REMARK    3  A    between atoms: N_15  and  C_16
REMARK    4  A    between atoms: C_20  and  O_21
REMARK                            x       y       z     vdW  Elec       q    Type
REMARK                         _______ _______ _______ _____ _____    ______ ____
ROOT
ATOM      1  O   UNL     1       8.050   4.191  17.141  0.00  0.00    +0.000 OA
ATOM      2  C   UNL     1       7.023   4.864  17.096  0.00  0.00    +0.000 C 
ATOM      3  N   UNL     1       6.394   5.309  15.939  0.00  0.00    +0.000 N 
ATOM      4  H   UNL     1       5.793   6.126  16.039  0.00  0.00    +0.000 HD
ENDROOT
BRANCH   3   5
ATOM      5  C   UNL     1       6.709   4.929  14.615  0.00  0.00    +0.000 A 
ATOM      6  C   UNL     1       7.678   5.574  13.842  0.00  0.00    +0.000 A 
ATOM      7  C   UNL     1       7.915   5.182  12.520  0.00  0.00    +0.000 A 
ATOM      8  C   UNL     1       7.191   4.133  11.960  0.00  0.00    +0.000 A 
ATOM      9  C   UNL     1       6.253   3.467  12.739  0.00  0.00    +0.000 A 
ATOM     10  C   UNL     1       6.016   3.847  14.060  0.00  0.00    +0.000 A 
BRANCH   9  11
ATOM     11  O   UNL     1       5.527   2.428  12.234  0.00  0.00    +0.000 OA
ATOM     12  H   UNL     1       6.075   1.953  11.589  0.00  0.00    +0.000 HD
ENDBRANCH   9  11
ENDBRANCH   3   5
BRANCH   2  13
ATOM     13  C   UNL     1       6.365   5.382  18.375  0.00  0.00    +0.000 C 
BRANCH  13  14
ATOM     14  N   UNL     1       5.044   4.810  18.524  0.00  0.00    +0.000 N 
ATOM     15  C   UNL     1       4.772   3.638  19.175  0.00  0.00    +0.000 C 
ATOM     16  O   UNL     1       5.531   2.882  19.751  0.00  0.00    +0.000 OA
ATOM     17  C   UNL     1       3.344   3.381  18.984  0.00  0.00    +0.000 A 
ATOM     18  C   UNL     1       2.552   2.339  19.428  0.00  0.00    +0.000 A 
ATOM     19  C   UNL     1       1.203   2.358  19.057  0.00  0.00    +0.000 A 
ATOM     20  C   UNL     1       0.686   3.400  18.259  0.00  0.00    +0.000 A 
ATOM     21  C   UNL     1       1.512   4.436  17.810  0.00  0.00    +0.000 A 
ATOM     22  C   UNL     1       2.839   4.396  18.188  0.00  0.00    +0.000 A 
ATOM     23  C   UNL     1       3.950   5.286  17.859  0.00  0.00    +0.000 C 
ATOM     24  O   UNL     1       3.894   6.240  17.104  0.00  0.00    +0.000 OA
ENDBRANCH  13  14
ENDBRANCH   2  13
TORSDOF 4
ENDMDL
MODEL 4
REMARK VINA RESULT:      -8.2      0.379      1.896
REMARK  Name = 
REMARK  4 active torsions:
REMARK  status: ('A' for Active; 'I' for Inactive)
REMARK    1  A    between atoms: C_2  and  C_3
REMARK    2  A    between atoms: C_3  and  N_4
REMARK    3  A    between atoms: N_15  and  C_16
REMARK    4  A    between atoms: C_20  and  O_21
REMARK                            x       y       z     vdW  Elec       q    Type
REMARK                         _______ _______ _______ _____ _____    ______ ____
ROOT
ATOM      1  O   UNL     1       1.163   4.803  20.108  0.00  0.00    +0.000 OA
ATOM      2  C   UNL     1       2.333   5.169  20.021  0.00  0.00    +0.000 C 
ATOM      3  N   UNL     1       2.763   6.483  19.876  0.00  0.00    +0.000 N 
ATOM      4  H   UNL     1       3.687   6.611  19.464  0.00  0.00    +0.000 HD
ENDROOT
BRANCH   3   5
ATOM      5  C   UNL     1       1.965   7.643  19.980  0.00  0.00    +0.000 A 
ATOM      6  C   UNL     1       1.300   8.013  21.152  0.00  0.00    +0.000 A 
ATOM      7  C   UNL     1       0.486   9.151  21.183  0.00  0.00    +0.000 A 
ATOM      8  C   UNL     1       0.336   9.937  20.043  0.00  0.00    +0.000 A 
ATOM      9  C   UNL     1       1.026   9.591  18.888  0.00  0.00    +0.000 A 
ATOM     10  C   UNL     1       1.845   8.462  18.851  0.00  0.00    +0.000 A 
BRANCH   9  11
ATOM     11  O   UNL     1       0.916  10.336  17.751  0.00  0.00    +0.000 OA
ATOM     12  H   UNL     1       0.262  11.037  17.903  0.00  0.00    +0.000 HD
ENDBRANCH   9  11
ENDBRANCH   3   5
BRANCH   2  13
ATOM     13  C   UNL     1       3.473   4.152  19.962  0.00  0.00    +0.000 C 
BRANCH  13  14
ATOM     14  N   UNL     1       4.244   4.336  18.752  0.00  0.00    +0.000 N 
ATOM     15  C   UNL     1       3.833   3.964  17.501  0.00  0.00    +0.000 C 
ATOM     16  O   UNL     1       2.785   3.451  17.156  0.00  0.00    +0.000 OA
ATOM     17  C   UNL     1       4.956   4.223  16.601  0.00  0.00    +0.000 A 
ATOM     18  C   UNL     1       5.079   4.030  15.238  0.00  0.00    +0.000 A 
ATOM     19  C   UNL     1       6.308   4.356  14.654  0.00  0.00    +0.000 A 
ATOM     20  C   UNL     1       7.371   4.855  15.434  0.00  0.00    +0.000 A 
ATOM     21  C   UNL     1       7.227   5.028  16.815  0.00  0.00    +0.000 A 
ATOM     22  C   UNL     1       6.007   4.700  17.369  0.00  0.00    +0.000 A 
ATOM     23  C   UNL     1       5.554   4.726  18.759  0.00  0.00    +0.000 C 
ATOM     24  O   UNL     1       6.242   5.008  19.723  0.00  0.00    +0.000 OA
ENDBRANCH  13  14
ENDBRANCH   2  13
TORSDOF 4
ENDMDL
MODEL 5
REMARK VINA RESULT:      -7.9      2.622      6.765
REMARK  Name = 
REMARK  4 active torsions:
REMARK  status: ('A' for Active; 'I' for Inactive)
REMARK    1  A    between atoms: C_2  and  C_3
REMARK    2  A    between atoms: C_3  and  N_4
REMARK    3  A    between atoms: N_15  and  C_16
REMARK    4  A    between atoms: C_20  and  O_21
REMARK                            x       y       z     vdW  Elec       q    Type
REMARK                         _______ _______ _______ _____ _____    ______ ____
ROOT
ATOM      1  O   UNL     1       4.927   7.000  15.513  0.00  0.00    +0.000 OA
ATOM      2  C   UNL     1       5.646   6.327  16.248  0.00  0.00    +0.000 C 
ATOM      3  N   UNL     1       6.449   5.266  15.848  0.00  0.00    +0.000 N 
ATOM      4  H   UNL     1       6.696   4.590  16.570  0.00  0.00    +0.000 HD
ENDROOT
BRANCH   3   5
ATOM      5  C   UNL     1       6.727   4.879  14.518  0.00  0.00    +0.000 A 
ATOM      6  C   UNL     1       7.673   5.523  13.715  0.00  0.00    +0.000 A 
ATOM      7  C   UNL     1       7.873   5.124  12.388  0.00  0.00    +0.000 A 
ATOM      8  C   UNL     1       7.137   4.070  11.854  0.00  0.00    +0.000 A 
ATOM      9  C   UNL     1       6.223   3.406  12.663  0.00  0.00    +0.000 A 
ATOM     10  C   UNL     1       6.022   3.792  13.989  0.00  0.00    +0.000 A 
BRANCH   9  11
ATOM     11  O   UNL     1       5.486   2.362  12.184  0.00  0.00    +0.000 OA
ATOM     12  H   UNL     1       4.900   2.693  11.486  0.00  0.00    +0.000 HD
ENDBRANCH   9  11
ENDBRANCH   3   5
BRANCH   2  13
ATOM     13  C   UNL     1       5.646   6.544  17.761  0.00  0.00    +0.000 C 
BRANCH  13  14
ATOM     14  N   UNL     1       4.675   5.675  18.391  0.00  0.00    +0.000 N 
ATOM     15  C   UNL     1       4.928   4.395  18.803  0.00  0.00    +0.000 C 
ATOM     16  O   UNL     1       5.964   3.759  18.753  0.00  0.00    +0.000 OA
ATOM     17  C   UNL     1       3.652   3.850  19.268  0.00  0.00    +0.000 A 
ATOM     18  C   UNL     1       3.340   2.607  19.784  0.00  0.00    +0.000 A 
ATOM     19  C   UNL     1       2.003   2.371  20.123  0.00  0.00    +0.000 A 
ATOM     20  C   UNL     1       1.022   3.366  19.934  0.00  0.00    +0.000 A 
ATOM     21  C   UNL     1       1.360   4.613  19.395  0.00  0.00    +0.000 A 
ATOM     22  C   UNL     1       2.684   4.823  19.069  0.00  0.00    +0.000 A 
ATOM     23  C   UNL     1       3.345   5.976  18.461  0.00  0.00    +0.000 C 
ATOM     24  O   UNL     1       2.787   6.985  18.069  0.00  0.00    +0.000 OA
ENDBRANCH  13  14
ENDBRANCH   2  13
TORSDOF 4
ENDMDL
MODEL 6
REMARK VINA RESULT:      -7.8      3.144      6.659
REMARK  Name = 
REMARK  4 active torsions:
REMARK  status: ('A' for Active; 'I' for Inactive)
REMARK    1  A    between atoms: C_2  and  C_3
REMARK    2  A    between atoms: C_3  and  N_4
REMARK    3  A    between atoms: N_15  and  C_16
REMARK    4  A    between atoms: C_20  and  O_21
REMARK                            x       y       z     vdW  Elec       q    Type
REMARK                         _______ _______ _______ _____ _____    ______ ____
ROOT
ATOM      1  O   UNL     1       8.127   4.240  17.214  0.00  0.00    +0.000 OA
ATOM      2  C   UNL     1       6.945   4.571  17.273  0.00  0.00    +0.000 C 
ATOM      3  N   UNL     1       6.129   4.864  16.187  0.00  0.00    +0.000 N 
ATOM      4  H   UNL     1       5.319   5.453  16.379  0.00  0.00    +0.000 HD
ENDROOT
BRANCH   3   5
ATOM      5  C   UNL     1       6.444   4.669  14.824  0.00  0.00    +0.000 A 
ATOM      6  C   UNL     1       5.840   3.689  14.032  0.00  0.00    +0.000 A 
ATOM      7  C   UNL     1       6.226   3.512  12.697  0.00  0.00    +0.000 A 
ATOM      8  C   UNL     1       7.212   4.320  12.140  0.00  0.00    +0.000 A 
ATOM      9  C   UNL     1       7.787   5.319  12.917  0.00  0.00    +0.000 A 
ATOM     10  C   UNL     1       7.403   5.507  14.245  0.00  0.00    +0.000 A 
BRANCH   9  11
ATOM     11  O   UNL     1       8.751   6.140  12.409  0.00  0.00    +0.000 OA
ATOM     12  H   UNL     1       8.796   6.939  12.957  0.00  0.00    +0.000 HD
ENDBRANCH   9  11
ENDBRANCH   3   5
BRANCH   2  13
ATOM     13  C   UNL     1       6.258   4.796  18.621  0.00  0.00    +0.000 C 
BRANCH  13  14
ATOM     14  N   UNL     1       4.912   4.268  18.589  0.00  0.00    +0.000 N 
ATOM     15  C   UNL     1       3.841   4.899  18.016  0.00  0.00    +0.000 C 
ATOM     16  O   UNL     1       3.798   5.963  17.427  0.00  0.00    +0.000 OA
ATOM     17  C   UNL     1       2.668   4.078  18.315  0.00  0.00    +0.000 A 
ATOM     18  C   UNL     1       1.339   4.252  17.977  0.00  0.00    +0.000 A 
ATOM     19  C   UNL     1       0.431   3.293  18.437  0.00  0.00    +0.000 A 
ATOM     20  C   UNL     1       0.864   2.201  19.217  0.00  0.00    +0.000 A 
ATOM     21  C   UNL     1       2.213   2.054  19.559  0.00  0.00    +0.000 A 
ATOM     22  C   UNL     1       3.090   3.012  19.094  0.00  0.00    +0.000 A 
ATOM     23  C   UNL     1       4.528   3.169  19.303  0.00  0.00    +0.000 C 
ATOM     24  O   UNL     1       5.222   2.462  20.013  0.00  0.00    +0.000 OA
ENDBRANCH  13  14
ENDBRANCH   2  13
TORSDOF 4
ENDMDL
MODEL 7
REMARK VINA RESULT:      -7.8      1.071      1.480
REMARK  Name = 
REMARK  4 active torsions:
REMARK  status: ('A' for Active; 'I' for Inactive)
REMARK    1  A    between atoms: C_2  and  C_3
REMARK    2  A    between atoms: C_3  and  N_4
REMARK    3  A    between atoms: N_15  and  C_16
REMARK    4  A    between atoms: C_20  and  O_21
REMARK                            x       y       z     vdW  Elec       q    Type
REMARK                         _______ _______ _______ _____ _____    ______ ____
ROOT
ATOM      1  O   UNL     1       1.234   4.619  20.122  0.00  0.00    +0.000 OA
ATOM      2  C   UNL     1       2.420   4.909  19.986  0.00  0.00    +0.000 C 
ATOM      3  N   UNL     1       2.921   6.179  19.726  0.00  0.00    +0.000 N 
ATOM      4  H   UNL     1       3.841   6.219  19.290  0.00  0.00    +0.000 HD
ENDROOT
BRANCH   3   5
ATOM      5  C   UNL     1       2.190   7.388  19.745  0.00  0.00    +0.000 A 
ATOM      6  C   UNL     1       2.046   8.214  18.627  0.00  0.00    +0.000 A 
ATOM      7  C   UNL     1       1.348   9.423  18.718  0.00  0.00    +0.000 A 
ATOM      8  C   UNL     1       0.778   9.814  19.926  0.00  0.00    +0.000 A 
ATOM      9  C   UNL     1       0.888   8.976  21.028  0.00  0.00    +0.000 A 
ATOM     10  C   UNL     1       1.576   7.765  20.945  0.00  0.00    +0.000 A 
BRANCH   9  11
ATOM     11  O   UNL     1       0.337   9.315  22.230  0.00  0.00    +0.000 OA
ATOM     12  H   UNL     1      -0.568   8.967  22.263  0.00  0.00    +0.000 HD
ENDBRANCH   9  11
ENDBRANCH   3   5
BRANCH   2  13
ATOM     13  C   UNL     1       3.500   3.826  19.995  0.00  0.00    +0.000 C 
BRANCH  13  14
ATOM     14  N   UNL     1       4.348   3.958  18.830  0.00  0.00    +0.000 N 
ATOM     15  C   UNL     1       5.565   4.584  18.819  0.00  0.00    +0.000 C 
ATOM     16  O   UNL     1       6.169   5.112  19.734  0.00  0.00    +0.000 OA
ATOM     17  C   UNL     1       6.016   4.589  17.427  0.00  0.00    +0.000 A 
ATOM     18  C   UNL     1       7.170   5.092  16.858  0.00  0.00    +0.000 A 
ATOM     19  C   UNL     1       7.308   4.965  15.472  0.00  0.00    +0.000 A 
ATOM     20  C   UNL     1       6.302   4.354  14.697  0.00  0.00    +0.000 A 
ATOM     21  C   UNL     1       5.134   3.865  15.294  0.00  0.00    +0.000 A 
ATOM     22  C   UNL     1       5.020   4.001  16.663  0.00  0.00    +0.000 A 
ATOM     23  C   UNL     1       3.931   3.640  17.568  0.00  0.00    +0.000 C 
ATOM     24  O   UNL     1       2.855   3.180  17.234  0.00  0.00    +0.000 OA
ENDBRANCH  13  14
ENDBRANCH   2  13
TORSDOF 4
ENDMDL
MODEL 8
REMARK VINA RESULT:      -7.8      1.219      2.445
REMARK  Name = 
REMARK  4 active torsions:
REMARK  status: ('A' for Active; 'I' for Inactive)
REMARK    1  A    between atoms: C_2  and  C_3
REMARK    2  A    between atoms: C_3  and  N_4
REMARK    3  A    between atoms: N_15  and  C_16
REMARK    4  A    between atoms: C_20  and  O_21
REMARK                            x       y       z     vdW  Elec       q    Type
REMARK                         _______ _______ _______ _____ _____    ______ ____
ROOT
ATOM      1  O   UNL     1       1.170   4.830  20.120  0.00  0.00    +0.000 OA
ATOM      2  C   UNL     1       2.336   5.206  20.029  0.00  0.00    +0.000 C 
ATOM      3  N   UNL     1       2.755   6.522  19.870  0.00  0.00    +0.000 N 
ATOM      4  H   UNL     1       3.677   6.654  19.457  0.00  0.00    +0.000 HD
ENDROOT
BRANCH   3   5
ATOM      5  C   UNL     1       1.945   7.676  19.961  0.00  0.00    +0.000 A 
ATOM      6  C   UNL     1       1.746   8.558  18.895  0.00  0.00    +0.000 A 
ATOM      7  C   UNL     1       0.968   9.710  19.058  0.00  0.00    +0.000 A 
ATOM      8  C   UNL     1       0.373   9.986  20.286  0.00  0.00    +0.000 A 
ATOM      9  C   UNL     1       0.539   9.090  21.335  0.00  0.00    +0.000 A 
ATOM     10  C   UNL     1       1.307   7.936  21.179  0.00  0.00    +0.000 A 
BRANCH   9  11
ATOM     11  O   UNL     1      -0.033   9.316  22.553  0.00  0.00    +0.000 OA
ATOM     12  H   UNL     1       0.668   9.344  23.223  0.00  0.00    +0.000 HD
ENDBRANCH   9  11
ENDBRANCH   3   5
BRANCH   2  13
ATOM     13  C   UNL     1       3.486   4.199  19.981  0.00  0.00    +0.000 C 
BRANCH  13  14
ATOM     14  N   UNL     1       4.253   4.374  18.767  0.00  0.00    +0.000 N 
ATOM     15  C   UNL     1       3.833   3.999  17.520  0.00  0.00    +0.000 C 
ATOM     16  O   UNL     1       2.781   3.491  17.181  0.00  0.00    +0.000 OA
ATOM     17  C   UNL     1       4.954   4.248  16.613  0.00  0.00    +0.000 A 
ATOM     18  C   UNL     1       5.069   4.049  15.251  0.00  0.00    +0.000 A 
ATOM     19  C   UNL     1       6.297   4.365  14.659  0.00  0.00    +0.000 A 
ATOM     20  C   UNL     1       7.367   4.861  15.432  0.00  0.00    +0.000 A 
ATOM     21  C   UNL     1       7.230   5.041  16.813  0.00  0.00    +0.000 A 
ATOM     22  C   UNL     1       6.011   4.722  17.375  0.00  0.00    +0.000 A 
ATOM     23  C   UNL     1       5.565   4.756  18.766  0.00  0.00    +0.000 C 
ATOM     24  O   UNL     1       6.259   5.038  19.726  0.00  0.00    +0.000 OA
ENDBRANCH  13  14
ENDBRANCH   2  13
TORSDOF 4
ENDMDL
MODEL 9
REMARK VINA RESULT:      -7.6      2.825      6.779
REMARK  Name = 
REMARK  4 active torsions:
REMARK  status: ('A' for Active; 'I' for Inactive)
REMARK    1  A    between atoms: C_2  and  C_3
REMARK    2  A    between atoms: C_3  and  N_4
REMARK    3  A    between atoms: N_15  and  C_16
REMARK    4  A    between atoms: C_20  and  O_21
REMARK                            x       y       z     vdW  Elec       q    Type
REMARK                         _______ _______ _______ _____ _____    ______ ____
ROOT
ATOM      1  O   UNL     1       7.665   6.487  16.594  0.00  0.00    +0.000 OA
ATOM      2  C   UNL     1       6.498   6.109  16.666  0.00  0.00    +0.000 C 
ATOM      3  N   UNL     1       5.787   5.473  15.655  0.00  0.00    +0.000 N 
ATOM      4  H   UNL     1       4.771   5.542  15.707  0.00  0.00    +0.000 HD
ENDROOT
BRANCH   3   5
ATOM      5  C   UNL     1       6.314   4.986  14.438  0.00  0.00    +0.000 A 
ATOM      6  C   UNL     1       7.428   5.547  13.807  0.00  0.00    +0.000 A 
ATOM      7  C   UNL     1       7.878   5.050  12.578  0.00  0.00    +0.000 A 
ATOM      8  C   UNL     1       7.224   3.980  11.973  0.00  0.00    +0.000 A 
ATOM      9  C   UNL     1       6.140   3.398  12.618  0.00  0.00    +0.000 A 
ATOM     10  C   UNL     1       5.689   3.883  13.846  0.00  0.00    +0.000 A 
BRANCH   9  11
ATOM     11  O   UNL     1       5.475   2.342  12.066  0.00  0.00    +0.000 OA
ATOM     12  H   UNL     1       5.108   1.800  12.782  0.00  0.00    +0.000 HD
ENDBRANCH   9  11
ENDBRANCH   3   5
BRANCH   2  13
ATOM     13  C   UNL     1       5.649   6.409  17.902  0.00  0.00    +0.000 C 
BRANCH  13  14
ATOM     14  N   UNL     1       4.636   5.389  18.071  0.00  0.00    +0.000 N 
ATOM     15  C   UNL     1       3.296   5.584  17.881  0.00  0.00    +0.000 C 
ATOM     16  O   UNL     1       2.704   6.587  17.529  0.00  0.00    +0.000 OA
ATOM     17  C   UNL     1       2.637   4.338  18.272  0.00  0.00    +0.000 A 
ATOM     18  C   UNL     1       1.299   3.992  18.278  0.00  0.00    +0.000 A 
ATOM     19  C   UNL     1       0.971   2.712  18.738  0.00  0.00    +0.000 A 
ATOM     20  C   UNL     1       1.972   1.823  19.181  0.00  0.00    +0.000 A 
ATOM     21  C   UNL     1       3.319   2.201  19.179  0.00  0.00    +0.000 A 
ATOM     22  C   UNL     1       3.619   3.468  18.721  0.00  0.00    +0.000 A 
ATOM     23  C   UNL     1       4.897   4.171  18.631  0.00  0.00    +0.000 C 
ATOM     24  O   UNL     1       5.969   3.744  19.021  0.00  0.00    +0.000 OA
ENDBRANCH  13  14
ENDBRANCH   2  13
TORSDOF 4
ENDMDL
