MODEL 1
REMARK VINA RESULT:      -8.4      0.000      0.000
REMARK  Name = 
REMARK  6 active torsions:
REMARK  status: ('A' for Active; 'I' for Inactive)
REMARK    1  A    between atoms: C_1  and  C_2
REMARK    2  A    between atoms: C_4  and  C_5
REMARK    3  A    between atoms: N_10  and  C_11
REMARK    4  A    between atoms: C_11  and  C_12
REMARK    5  A    between atoms: C_12  and  C_13
REMARK    6  A    between atoms: C_12  and  C_14
REMARK                            x       y       z     vdW  Elec       q    Type
REMARK                         _______ _______ _______ _____ _____    ______ ____
ROOT
ATOM      1  C   UNL     1       6.233   5.930  18.096  0.00  0.00    +0.000 C 
ATOM      2  C   UNL     1       7.615   6.509  18.418  0.00  0.00    +0.000 C 
ENDROOT
BRANCH   1   3
ATOM      3  C   UNL     1       6.245   5.034  16.849  0.00  0.00    +0.000 C 
ATOM      4  O   UNL     1       6.037   3.823  16.931  0.00  0.00    +0.000 OA
ATOM      5  N   UNL     1       6.485   5.705  15.670  0.00  0.00    +0.000 N 
ATOM      6  C   UNL     1       6.612   5.068  14.433  0.00  0.00    +0.000 A 
ATOM      7  C   UNL     1       5.733   4.084  14.002  0.00  0.00    +0.000 A 
ATOM      8  C   UNL     1       5.943   3.505  12.753  0.00  0.00    +0.000 A 
ATOM      9  C   UNL     1       7.041   3.900  11.999  0.00  0.00    +0.000 A 
ATOM     10  C   UNL     1       7.856   4.897  12.504  0.00  0.00    +0.000 A 
ATOM     11  N   UNL     1       7.641   5.520  13.686  0.00  0.00    +0.000 NA
ATOM     12  H   UNL     1       7.044   6.544  15.702  0.00  0.00    +0.000 HD
ENDBRANCH   1   3
BRANCH   1  13
ATOM     13  C   UNL     1       5.677   5.129  19.289  0.00  0.00    +0.000 C 
BRANCH  13  19
ATOM     14  C   UNL     1       3.483   7.047  18.148  0.00  0.00    +0.000 C 
ATOM     15  C   UNL     1       3.254   5.703  18.731  0.00  0.00    +0.000 A 
ATOM     16  C   UNL     1       2.077   5.014  18.921  0.00  0.00    +0.000 A 
ATOM     17  C   UNL     1       2.439   3.769  19.493  0.00  0.00    +0.000 A 
ATOM     18  N   UNL     1       3.774   3.701  19.667  0.00  0.00    +0.000 NA
ATOM     19  N   UNL     1       4.243   4.880  19.211  0.00  0.00    +0.000 N 
BRANCH  17  20
ATOM     20  C   UNL     1       1.509   2.644  19.863  0.00  0.00    +0.000 C 
ATOM     21  F   UNL     1       0.230   2.891  19.450  0.00  0.00    +0.000 F 
ATOM     22  F   UNL     1       1.868   1.465  19.289  0.00  0.00    +0.000 F 
ATOM     23  F   UNL     1       1.441   2.434  21.203  0.00  0.00    +0.000 F 
ENDBRANCH  17  20
ENDBRANCH  13  19
ENDBRANCH   1  13
TORSDOF 4
ENDMDL
MODEL 2
REMARK VINA RESULT:      -8.3      0.525      1.017
REMARK  Name = 
REMARK  6 active torsions:
REMARK  status: ('A' for Active; 'I' for Inactive)
REMARK    1  A    between atoms: C_1  and  C_2
REMARK    2  A    between atoms: C_4  and  C_5
REMARK    3  A    between atoms: N_10  and  C_11
REMARK    4  A    between atoms: C_11  and  C_12
REMARK    5  A    between atoms: C_12  and  C_13
REMARK    6  A    between atoms: C_12  and  C_14
REMARK                            x       y       z     vdW  Elec       q    Type
REMARK                         _______ _______ _______ _____ _____    ______ ____
ROOT
ATOM      1  C   UNL     1       6.384   6.063  18.026  0.00  0.00    +0.000 C 
ATOM      2  C   UNL     1       7.797   6.492  18.433  0.00  0.00    +0.000 C 
ENDROOT
BRANCH   1   3
ATOM      3  C   UNL     1       6.378   5.121  16.813  0.00  0.00    +0.000 C 
ATOM      4  O   UNL     1       6.234   3.906  16.947  0.00  0.00    +0.000 OA
ATOM      5  N   UNL     1       6.528   5.758  15.600  0.00  0.00    +0.000 N 
ATOM      6  C   UNL     1       6.626   5.082  14.381  0.00  0.00    +0.000 A 
ATOM      7  C   UNL     1       5.776   4.043  14.030  0.00  0.00    +0.000 A 
ATOM      8  C   UNL     1       5.953   3.428  12.793  0.00  0.00    +0.000 A 
ATOM      9  C   UNL     1       6.993   3.845  11.972  0.00  0.00    +0.000 A 
ATOM     10  C   UNL     1       7.782   4.898  12.400  0.00  0.00    +0.000 A 
ATOM     11  N   UNL     1       7.594   5.553  13.568  0.00  0.00    +0.000 NA
ATOM     12  H   UNL     1       7.047   6.623  15.575  0.00  0.00    +0.000 HD
ENDBRANCH   1   3
BRANCH   1  13
ATOM     13  C   UNL     1       5.655   5.378  19.199  0.00  0.00    +0.000 C 
BRANCH  13  19
ATOM     14  C   UNL     1       3.699   7.318  17.711  0.00  0.00    +0.000 C 
ATOM     15  C   UNL     1       3.341   6.022  18.337  0.00  0.00    +0.000 A 
ATOM     16  C   UNL     1       2.117   5.397  18.429  0.00  0.00    +0.000 A 
ATOM     17  C   UNL     1       2.350   4.174  19.105  0.00  0.00    +0.000 A 
ATOM     18  N   UNL     1       3.652   4.059  19.434  0.00  0.00    +0.000 NA
ATOM     19  N   UNL     1       4.227   5.187  18.971  0.00  0.00    +0.000 N 
BRANCH  17  20
ATOM     20  C   UNL     1       1.330   3.115  19.428  0.00  0.00    +0.000 C 
ATOM     21  F   UNL     1       1.895   2.050  20.071  0.00  0.00    +0.000 F 
ATOM     22  F   UNL     1       0.349   3.573  20.251  0.00  0.00    +0.000 F 
ATOM     23  F   UNL     1       0.723   2.611  18.322  0.00  0.00    +0.000 F 
ENDBRANCH  17  20
ENDBRANCH  13  19
ENDBRANCH   1  13
TORSDOF 4
ENDMDL
MODEL 3
REMARK VINA RESULT:      -8.1      0.991      1.514
REMARK  Name = 
REMARK  6 active torsions:
REMARK  status: ('A' for Active; 'I' for Inactive)
REMARK    1  A    between atoms: C_1  and  C_2
REMARK    2  A    between atoms: C_4  and  C_5
REMARK    3  A    between atoms: N_10  and  C_11
REMARK    4  A    between atoms: C_11  and  C_12
REMARK    5  A    between atoms: C_12  and  C_13
REMARK    6  A    between atoms: C_12  and  C_14
REMARK                            x       y       z     vdW  Elec       q    Type
REMARK                         _______ _______ _______ _____ _____    ______ ____
ROOT
ATOM      1  C   UNL     1       5.206   5.913  17.889  0.00  0.00    +0.000 C 
ATOM      2  C   UNL     1       5.518   5.226  19.223  0.00  0.00    +0.000 C 
ENDROOT
BRANCH   1   3
ATOM      3  C   UNL     1       5.467   5.002  16.681  0.00  0.00    +0.000 C 
ATOM      4  O   UNL     1       5.297   3.785  16.749  0.00  0.00    +0.000 OA
ATOM      5  N   UNL     1       5.880   5.668  15.547  0.00  0.00    +0.000 N 
ATOM      6  C   UNL     1       6.244   5.022  14.363  0.00  0.00    +0.000 A 
ATOM      7  C   UNL     1       5.491   3.996  13.807  0.00  0.00    +0.000 A 
ATOM      8  C   UNL     1       5.936   3.412  12.624  0.00  0.00    +0.000 A 
ATOM      9  C   UNL     1       7.132   3.843  12.062  0.00  0.00    +0.000 A 
ATOM     10  C   UNL     1       7.807   4.881  12.680  0.00  0.00    +0.000 A 
ATOM     11  N   UNL     1       7.367   5.508  13.795  0.00  0.00    +0.000 NA
ATOM     12  H   UNL     1       6.392   6.531  15.659  0.00  0.00    +0.000 HD
ENDBRANCH   1   3
BRANCH   1  13
ATOM     13  C   UNL     1       3.745   6.402  17.847  0.00  0.00    +0.000 C 
BRANCH  13  19
ATOM     14  C   UNL     1       2.092   7.578  20.231  0.00  0.00    +0.000 C 
ATOM     15  C   UNL     1       2.131   6.157  19.809  0.00  0.00    +0.000 A 
ATOM     16  C   UNL     1       1.497   5.059  20.349  0.00  0.00    +0.000 A 
ATOM     17  C   UNL     1       1.866   3.956  19.540  0.00  0.00    +0.000 A 
ATOM     18  N   UNL     1       2.704   4.349  18.560  0.00  0.00    +0.000 NA
ATOM     19  N   UNL     1       2.858   5.675  18.748  0.00  0.00    +0.000 N 
BRANCH  17  20
ATOM     20  C   UNL     1       1.409   2.530  19.700  0.00  0.00    +0.000 C 
ATOM     21  F   UNL     1       2.303   1.650  19.158  0.00  0.00    +0.000 F 
ATOM     22  F   UNL     1       1.276   2.172  21.006  0.00  0.00    +0.000 F 
ATOM     23  F   UNL     1       0.220   2.285  19.094  0.00  0.00    +0.000 F 
ENDBRANCH  17  20
ENDBRANCH  13  19
ENDBRANCH   1  13
TORSDOF 4
ENDMDL
MODEL 4
REMARK VINA RESULT:      -8.1      3.860      6.900
REMARK  Name = 
REMARK  6 active torsions:
REMARK  status: ('A' for Active; 'I' for Inactive)
REMARK    1  A    between atoms: C_1  and  C_2
REMARK    2  A    between atoms: C_4  and  C_5
REMARK    3  A    between atoms: N_10  and  C_11
REMARK    4  A    between atoms: C_11  and  C_12
REMARK    5  A    between atoms: C_12  and  C_13
REMARK    6  A    between atoms: C_12  and  C_14
REMARK                            x       y       z     vdW  Elec       q    Type
REMARK                         _______ _______ _______ _____ _____    ______ ____
ROOT
ATOM      1  C   UNL     1       3.493   3.789  17.264  0.00  0.00    +0.000 C 
ATOM      2  C   UNL     1       3.146   2.372  17.731  0.00  0.00    +0.000 C 
ENDROOT
BRANCH   1   3
ATOM      3  C   UNL     1       2.699   4.870  18.013  0.00  0.00    +0.000 C 
ATOM      4  O   UNL     1       1.742   4.577  18.729  0.00  0.00    +0.000 OA
ATOM      5  N   UNL     1       3.165   6.152  17.822  0.00  0.00    +0.000 N 
ATOM      6  C   UNL     1       2.542   7.285  18.350  0.00  0.00    +0.000 A 
ATOM      7  C   UNL     1       2.107   7.356  19.667  0.00  0.00    +0.000 A 
ATOM      8  C   UNL     1       1.495   8.529  20.102  0.00  0.00    +0.000 A 
ATOM      9  C   UNL     1       1.304   9.569  19.200  0.00  0.00    +0.000 A 
ATOM     10  C   UNL     1       1.783   9.413  17.912  0.00  0.00    +0.000 A 
ATOM     11  N   UNL     1       2.436   8.310  17.479  0.00  0.00    +0.000 NA
ATOM     12  H   UNL     1       3.628   6.368  16.952  0.00  0.00    +0.000 HD
ENDBRANCH   1   3
BRANCH   1  13
ATOM     13  C   UNL     1       5.000   4.070  17.421  0.00  0.00    +0.000 C 
BRANCH  13  19
ATOM     14  C   UNL     1       7.290   6.142  16.909  0.00  0.00    +0.000 C 
ATOM     15  C   UNL     1       6.676   5.247  15.898  0.00  0.00    +0.000 A 
ATOM     16  C   UNL     1       6.937   5.130  14.551  0.00  0.00    +0.000 A 
ATOM     17  C   UNL     1       6.081   4.107  14.072  0.00  0.00    +0.000 A 
ATOM     18  N   UNL     1       5.313   3.631  15.072  0.00  0.00    +0.000 NA
ATOM     19  N   UNL     1       5.681   4.339  16.159  0.00  0.00    +0.000 N 
BRANCH  17  20
ATOM     20  C   UNL     1       6.005   3.583  12.663  0.00  0.00    +0.000 C 
ATOM     21  F   UNL     1       6.920   4.189  11.849  0.00  0.00    +0.000 F 
ATOM     22  F   UNL     1       6.266   2.249  12.592  0.00  0.00    +0.000 F 
ATOM     23  F   UNL     1       4.793   3.786  12.088  0.00  0.00    +0.000 F 
ENDBRANCH  17  20
ENDBRANCH  13  19
ENDBRANCH   1  13
TORSDOF 4
ENDMDL
MODEL 5
REMARK VINA RESULT:      -8.0      3.598      6.661
REMARK  Name = 
REMARK  6 active torsions:
REMARK  status: ('A' for Active; 'I' for Inactive)
REMARK    1  A    between atoms: C_1  and  C_2
REMARK    2  A    between atoms: C_4  and  C_5
REMARK    3  A    between atoms: N_10  and  C_11
REMARK    4  A    between atoms: C_11  and  C_12
REMARK    5  A    between atoms: C_12  and  C_13
REMARK    6  A    between atoms: C_12  and  C_14
REMARK                            x       y       z     vdW  Elec       q    Type
REMARK                         _______ _______ _______ _____ _____    ______ ____
ROOT
ATOM      1  C   UNL     1       3.576   3.787  18.843  0.00  0.00    +0.000 C 
ATOM      2  C   UNL     1       3.151   2.481  19.522  0.00  0.00    +0.000 C 
ENDROOT
BRANCH   1   3
ATOM      3  C   UNL     1       2.673   4.971  19.223  0.00  0.00    +0.000 C 
ATOM      4  O   UNL     1       1.647   4.806  19.883  0.00  0.00    +0.000 OA
ATOM      5  N   UNL     1       3.126   6.195  18.780  0.00  0.00    +0.000 N 
ATOM      6  C   UNL     1       2.417   7.386  18.952  0.00  0.00    +0.000 A 
ATOM      7  C   UNL     1       1.832   7.742  20.159  0.00  0.00    +0.000 A 
ATOM      8  C   UNL     1       1.144   8.951  20.233  0.00  0.00    +0.000 A 
ATOM      9  C   UNL     1       1.032   9.738  19.093  0.00  0.00    +0.000 A 
ATOM     10  C   UNL     1       1.660   9.308  17.938  0.00  0.00    +0.000 A 
ATOM     11  N   UNL     1       2.386   8.170  17.854  0.00  0.00    +0.000 NA
ATOM     12  H   UNL     1       3.680   6.223  17.937  0.00  0.00    +0.000 HD
ENDBRANCH   1   3
BRANCH   1  13
ATOM     13  C   UNL     1       5.038   4.138  19.181  0.00  0.00    +0.000 C 
BRANCH  13  19
ATOM     14  C   UNL     1       7.732   5.731  19.163  0.00  0.00    +0.000 C 
ATOM     15  C   UNL     1       7.012   5.214  17.974  0.00  0.00    +0.000 A 
ATOM     16  C   UNL     1       7.327   5.321  16.638  0.00  0.00    +0.000 A 
ATOM     17  C   UNL     1       6.310   4.626  15.937  0.00  0.00    +0.000 A 
ATOM     18  N   UNL     1       5.399   4.130  16.799  0.00  0.00    +0.000 NA
ATOM     19  N   UNL     1       5.837   4.506  18.018  0.00  0.00    +0.000 N 
BRANCH  17  20
ATOM     20  C   UNL     1       6.217   4.428  14.448  0.00  0.00    +0.000 C 
ATOM     21  F   UNL     1       6.493   3.139  14.091  0.00  0.00    +0.000 F 
ATOM     22  F   UNL     1       4.971   4.692  13.968  0.00  0.00    +0.000 F 
ATOM     23  F   UNL     1       7.087   5.208  13.756  0.00  0.00    +0.000 F 
ENDBRANCH  17  20
ENDBRANCH  13  19
ENDBRANCH   1  13
TORSDOF 4
ENDMDL
MODEL 6
REMARK VINA RESULT:      -7.8      3.891      7.188
REMARK  Name = 
REMARK  6 active torsions:
REMARK  status: ('A' for Active; 'I' for Inactive)
REMARK    1  A    between atoms: C_1  and  C_2
REMARK    2  A    between atoms: C_4  and  C_5
REMARK    3  A    between atoms: N_10  and  C_11
REMARK    4  A    between atoms: C_11  and  C_12
REMARK    5  A    between atoms: C_12  and  C_13
REMARK    6  A    between atoms: C_12  and  C_14
REMARK                            x       y       z     vdW  Elec       q    Type
REMARK                         _______ _______ _______ _____ _____    ______ ____
ROOT
ATOM      1  C   UNL     1       3.452   4.628  19.273  0.00  0.00    +0.000 C 
ATOM      2  C   UNL     1       3.368   3.203  19.828  0.00  0.00    +0.000 C 
ENDROOT
BRANCH   1   3
ATOM      3  C   UNL     1       2.376   5.555  19.859  0.00  0.00    +0.000 C 
ATOM      4  O   UNL     1       1.396   5.103  20.449  0.00  0.00    +0.000 OA
ATOM      5  N   UNL     1       2.625   6.898  19.679  0.00  0.00    +0.000 N 
ATOM      6  C   UNL     1       1.738   7.905  20.067  0.00  0.00    +0.000 A 
ATOM      7  C   UNL     1       1.114   7.917  21.307  0.00  0.00    +0.000 A 
ATOM      8  C   UNL     1       0.244   8.963  21.603  0.00  0.00    +0.000 A 
ATOM      9  C   UNL     1      -0.002   9.934  20.640  0.00  0.00    +0.000 A 
ATOM     10  C   UNL     1       0.676   9.847  19.437  0.00  0.00    +0.000 A 
ATOM     11  N   UNL     1       1.573   8.877  19.146  0.00  0.00    +0.000 NA
ATOM     12  H   UNL     1       3.160   7.181  18.871  0.00  0.00    +0.000 HD
ENDBRANCH   1   3
BRANCH   1  13
ATOM     13  C   UNL     1       4.842   5.242  19.530  0.00  0.00    +0.000 C 
BRANCH  13  19
ATOM     14  C   UNL     1       7.943   5.664  19.540  0.00  0.00    +0.000 C 
ATOM     15  C   UNL     1       7.109   5.323  18.362  0.00  0.00    +0.000 A 
ATOM     16  C   UNL     1       7.476   5.138  17.047  0.00  0.00    +0.000 A 
ATOM     17  C   UNL     1       6.287   4.806  16.351  0.00  0.00    +0.000 A 
ATOM     18  N   UNL     1       5.233   4.807  17.192  0.00  0.00    +0.000 NA
ATOM     19  N   UNL     1       5.751   5.131  18.395  0.00  0.00    +0.000 N 
BRANCH  17  20
ATOM     20  C   UNL     1       6.162   4.481  14.887  0.00  0.00    +0.000 C 
ATOM     21  F   UNL     1       5.020   5.005  14.349  0.00  0.00    +0.000 F 
ATOM     22  F   UNL     1       7.189   4.989  14.153  0.00  0.00    +0.000 F 
ATOM     23  F   UNL     1       6.117   3.146  14.644  0.00  0.00    +0.000 F 
ENDBRANCH  17  20
ENDBRANCH  13  19
ENDBRANCH   1  13
TORSDOF 4
ENDMDL
MODEL 7
REMARK VINA RESULT:      -7.8      4.023      7.320
REMARK  Name = 
REMARK  6 active torsions:
REMARK  status: ('A' for Active; 'I' for Inactive)
REMARK    1  A    between atoms: C_1  and  C_2
REMARK    2  A    between atoms: C_4  and  C_5
REMARK    3  A    between atoms: N_10  and  C_11
REMARK    4  A    between atoms: C_11  and  C_12
REMARK    5  A    between atoms: C_12  and  C_13
REMARK    6  A    between atoms: C_12  and  C_14
REMARK                            x       y       z     vdW  Elec       q    Type
REMARK                         _______ _______ _______ _____ _____    ______ ____
ROOT
ATOM      1  C   UNL     1       3.435   4.595  17.440  0.00  0.00    +0.000 C 
ATOM      2  C   UNL     1       4.043   3.328  18.052  0.00  0.00    +0.000 C 
ENDROOT
BRANCH   1   3
ATOM      3  C   UNL     1       2.559   5.370  18.435  0.00  0.00    +0.000 C 
ATOM      4  O   UNL     1       1.711   4.798  19.120  0.00  0.00    +0.000 OA
ATOM      5  N   UNL     1       2.826   6.721  18.493  0.00  0.00    +0.000 N 
ATOM      6  C   UNL     1       2.093   7.618  19.275  0.00  0.00    +0.000 A 
ATOM      7  C   UNL     1       1.756   7.358  20.596  0.00  0.00    +0.000 A 
ATOM      8  C   UNL     1       1.022   8.314  21.295  0.00  0.00    +0.000 A 
ATOM      9  C   UNL     1       0.619   9.471  20.640  0.00  0.00    +0.000 A 
ATOM     10  C   UNL     1       1.013   9.649  19.325  0.00  0.00    +0.000 A 
ATOM     11  N   UNL     1       1.778   8.767  18.642  0.00  0.00    +0.000 NA
ATOM     12  H   UNL     1       3.184   7.173  17.666  0.00  0.00    +0.000 HD
ENDBRANCH   1   3
BRANCH   1  13
ATOM     13  C   UNL     1       4.534   5.530  16.899  0.00  0.00    +0.000 C 
BRANCH  13  19
ATOM     14  C   UNL     1       7.528   4.709  17.301  0.00  0.00    +0.000 C 
ATOM     15  C   UNL     1       6.732   4.540  16.061  0.00  0.00    +0.000 A 
ATOM     16  C   UNL     1       7.103   4.023  14.839  0.00  0.00    +0.000 A 
ATOM     17  C   UNL     1       5.946   4.075  14.023  0.00  0.00    +0.000 A 
ATOM     18  N   UNL     1       4.915   4.617  14.702  0.00  0.00    +0.000 NA
ATOM     19  N   UNL     1       5.414   4.898  15.923  0.00  0.00    +0.000 N 
BRANCH  17  20
ATOM     20  C   UNL     1       5.826   3.599  12.600  0.00  0.00    +0.000 C 
ATOM     21  F   UNL     1       6.743   4.203  11.787  0.00  0.00    +0.000 F 
ATOM     22  F   UNL     1       6.042   2.261  12.481  0.00  0.00    +0.000 F 
ATOM     23  F   UNL     1       4.609   3.858  12.057  0.00  0.00    +0.000 F 
ENDBRANCH  17  20
ENDBRANCH  13  19
ENDBRANCH   1  13
TORSDOF 4
ENDMDL
MODEL 8
REMARK VINA RESULT:      -7.8      4.242      7.111
REMARK  Name = 
REMARK  6 active torsions:
REMARK  status: ('A' for Active; 'I' for Inactive)
REMARK    1  A    between atoms: C_1  and  C_2
REMARK    2  A    between atoms: C_4  and  C_5
REMARK    3  A    between atoms: N_10  and  C_11
REMARK    4  A    between atoms: C_11  and  C_12
REMARK    5  A    between atoms: C_12  and  C_13
REMARK    6  A    between atoms: C_12  and  C_14
REMARK                            x       y       z     vdW  Elec       q    Type
REMARK                         _______ _______ _______ _____ _____    ______ ____
ROOT
ATOM      1  C   UNL     1       3.238   4.173  17.567  0.00  0.00    +0.000 C 
ATOM      2  C   UNL     1       2.523   2.826  17.412  0.00  0.00    +0.000 C 
ENDROOT
BRANCH   1   3
ATOM      3  C   UNL     1       2.462   5.154  18.457  0.00  0.00    +0.000 C 
ATOM      4  O   UNL     1       1.632   4.757  19.274  0.00  0.00    +0.000 OA
ATOM      5  N   UNL     1       2.794   6.478  18.266  0.00  0.00    +0.000 N 
ATOM      6  C   UNL     1       2.154   7.535  18.917  0.00  0.00    +0.000 A 
ATOM      7  C   UNL     1       1.887   7.524  20.280  0.00  0.00    +0.000 A 
ATOM      8  C   UNL     1       1.243   8.625  20.839  0.00  0.00    +0.000 A 
ATOM      9  C   UNL     1       0.853   9.674  20.015  0.00  0.00    +0.000 A 
ATOM     10  C   UNL     1       1.174   9.602  18.671  0.00  0.00    +0.000 A 
ATOM     11  N   UNL     1       1.853   8.575  18.112  0.00  0.00    +0.000 NA
ATOM     12  H   UNL     1       3.121   6.762  17.354  0.00  0.00    +0.000 HD
ENDBRANCH   1   3
BRANCH   1  13
ATOM     13  C   UNL     1       4.656   3.983  18.141  0.00  0.00    +0.000 C 
BRANCH  13  19
ATOM     14  C   UNL     1       5.968   3.605  15.324  0.00  0.00    +0.000 C 
ATOM     15  C   UNL     1       6.265   4.690  16.290  0.00  0.00    +0.000 A 
ATOM     16  C   UNL     1       7.161   5.732  16.197  0.00  0.00    +0.000 A 
ATOM     17  C   UNL     1       7.017   6.482  17.390  0.00  0.00    +0.000 A 
ATOM     18  N   UNL     1       6.092   5.917  18.192  0.00  0.00    +0.000 NA
ATOM     19  N   UNL     1       5.661   4.835  17.514  0.00  0.00    +0.000 N 
BRANCH  17  20
ATOM     20  C   UNL     1       7.758   7.740  17.758  0.00  0.00    +0.000 C 
ATOM     21  F   UNL     1       8.571   8.161  16.744  0.00  0.00    +0.000 F 
ATOM     22  F   UNL     1       6.918   8.777  18.021  0.00  0.00    +0.000 F 
ATOM     23  F   UNL     1       8.557   7.585  18.845  0.00  0.00    +0.000 F 
ENDBRANCH  17  20
ENDBRANCH  13  19
ENDBRANCH   1  13
TORSDOF 4
ENDMDL
MODEL 9
REMARK VINA RESULT:      -7.7      2.648      3.263
REMARK  Name = 
REMARK  6 active torsions:
REMARK  status: ('A' for Active; 'I' for Inactive)
REMARK    1  A    between atoms: C_1  and  C_2
REMARK    2  A    between atoms: C_4  and  C_5
REMARK    3  A    between atoms: N_10  and  C_11
REMARK    4  A    between atoms: C_11  and  C_12
REMARK    5  A    between atoms: C_12  and  C_13
REMARK    6  A    between atoms: C_12  and  C_14
REMARK                            x       y       z     vdW  Elec       q    Type
REMARK                         _______ _______ _______ _____ _____    ______ ____
ROOT
ATOM      1  C   UNL     1       6.499   5.677  18.254  0.00  0.00    +0.000 C 
ATOM      2  C   UNL     1       7.852   5.568  18.964  0.00  0.00    +0.000 C 
ENDROOT
BRANCH   1   3
ATOM      3  C   UNL     1       6.448   4.864  16.952  0.00  0.00    +0.000 C 
ATOM      4  O   UNL     1       6.212   3.656  16.962  0.00  0.00    +0.000 OA
ATOM      5  N   UNL     1       6.669   5.604  15.811  0.00  0.00    +0.000 N 
ATOM      6  C   UNL     1       6.742   5.046  14.532  0.00  0.00    +0.000 A 
ATOM      7  C   UNL     1       5.824   4.114  14.068  0.00  0.00    +0.000 A 
ATOM      8  C   UNL     1       5.980   3.614  12.778  0.00  0.00    +0.000 A 
ATOM      9  C   UNL     1       7.065   4.030  12.016  0.00  0.00    +0.000 A 
ATOM     10  C   UNL     1       7.920   4.972  12.557  0.00  0.00    +0.000 A 
ATOM     11  N   UNL     1       7.758   5.521  13.783  0.00  0.00    +0.000 NA
ATOM     12  H   UNL     1       7.251   6.426  15.880  0.00  0.00    +0.000 HD
ENDBRANCH   1   3
BRANCH   1  13
ATOM     13  C   UNL     1       5.351   5.224  19.177  0.00  0.00    +0.000 C 
BRANCH  13  19
ATOM     14  C   UNL     1       2.904   3.508  18.248  0.00  0.00    +0.000 C 
ATOM     15  C   UNL     1       2.953   4.987  18.337  0.00  0.00    +0.000 A 
ATOM     16  C   UNL     1       1.988   5.921  18.030  0.00  0.00    +0.000 A 
ATOM     17  C   UNL     1       2.556   7.185  18.325  0.00  0.00    +0.000 A 
ATOM     18  N   UNL     1       3.819   7.040  18.774  0.00  0.00    +0.000 NA
ATOM     19  N   UNL     1       4.040   5.709  18.763  0.00  0.00    +0.000 N 
BRANCH  17  20
ATOM     20  C   UNL     1       1.888   8.526  18.186  0.00  0.00    +0.000 C 
ATOM     21  F   UNL     1       2.714   9.443  17.599  0.00  0.00    +0.000 F 
ATOM     22  F   UNL     1       0.774   8.472  17.408  0.00  0.00    +0.000 F 
ATOM     23  F   UNL     1       1.519   9.059  19.379  0.00  0.00    +0.000 F 
ENDBRANCH  17  20
ENDBRANCH  13  19
ENDBRANCH   1  13
TORSDOF 4
ENDMDL
