MODEL 1
REMARK VINA RESULT:      -7.6      0.000      0.000
REMARK  Name = 
REMARK  5 active torsions:
REMARK  status: ('A' for Active; 'I' for Inactive)
REMARK    1  A    between atoms: C_1  and  C_2
REMARK    2  A    between atoms: C_5  and  C_6
REMARK    3  A    between atoms: C_7  and  S_8
REMARK    4  A    between atoms: S_8  and  N_11
REMARK    5  A    between atoms: C_14  and  C_15
REMARK                            x       y       z     vdW  Elec       q    Type
REMARK                         _______ _______ _______ _____ _____    ______ ____
ROOT
ATOM      1  S   UNL     1       5.219   4.978  18.073  0.00  0.00    +0.000 S 
ATOM      2  O   UNL     1       6.108   4.463  19.089  0.00  0.00    +0.000 OA
ATOM      3  O   UNL     1       4.353   6.108  18.311  0.00  0.00    +0.000 OA
ENDROOT
BRANCH   1  10
ATOM      4  C   UNL     1       6.021   3.632  15.074  0.00  0.00    +0.000 C 
ATOM      5  C   UNL     1       6.576   4.886  15.632  0.00  0.00    +0.000 A 
ATOM      6  N   UNL     1       7.511   5.555  14.943  0.00  0.00    +0.000 NA
ATOM      7  O   UNL     1       7.947   6.563  15.779  0.00  0.00    +0.000 OA
ATOM      8  C   UNL     1       7.267   6.508  16.959  0.00  0.00    +0.000 A 
ATOM      9  C   UNL     1       7.738   7.449  17.993  0.00  0.00    +0.000 C 
ATOM     10  C   UNL     1       6.319   5.512  16.874  0.00  0.00    +0.000 A 
ENDBRANCH   1  10
BRANCH   1  11
ATOM     11  N   UNL     1       4.280   3.679  17.442  0.00  0.00    +0.000 NA
ATOM     12  C   UNL     1       2.967   4.058  16.847  0.00  0.00    +0.000 C 
ATOM     13  C   UNL     1       1.983   3.902  18.001  0.00  0.00    +0.000 C 
ATOM     14  C   UNL     1       2.459   2.627  18.693  0.00  0.00    +0.000 C 
ATOM     15  C   UNL     1       3.967   2.567  18.402  0.00  0.00    +0.000 C 
BRANCH  14  16
ATOM     16  C   UNL     1       2.191   2.540  20.153  0.00  0.00    +0.000 A 
ATOM     17  N   UNL     1       0.953   2.722  20.712  0.00  0.00    +0.000 NA
ATOM     18  C   UNL     1       1.225   2.700  21.993  0.00  0.00    +0.000 A 
ATOM     19  O   UNL     1       2.541   2.510  22.272  0.00  0.00    +0.000 OA
ATOM     20  N   UNL     1       3.190   2.405  21.040  0.00  0.00    +0.000 NA
ENDBRANCH  14  16
ENDBRANCH   1  11
TORSDOF 3
ENDMDL
MODEL 2
REMARK VINA RESULT:      -7.6      1.937      6.234
REMARK  Name = 
REMARK  5 active torsions:
REMARK  status: ('A' for Active; 'I' for Inactive)
REMARK    1  A    between atoms: C_1  and  C_2
REMARK    2  A    between atoms: C_5  and  C_6
REMARK    3  A    between atoms: C_7  and  S_8
REMARK    4  A    between atoms: S_8  and  N_11
REMARK    5  A    between atoms: C_14  and  C_15
REMARK                            x       y       z     vdW  Elec       q    Type
REMARK                         _______ _______ _______ _____ _____    ______ ____
ROOT
ATOM      1  S   UNL     1       4.420   3.076  19.314  0.00  0.00    +0.000 S 
ATOM      2  O   UNL     1       4.858   2.302  20.453  0.00  0.00    +0.000 OA
ATOM      3  O   UNL     1       4.722   2.686  17.957  0.00  0.00    +0.000 OA
ENDROOT
BRANCH   1  10
ATOM      4  C   UNL     1       2.029   3.292  16.930  0.00  0.00    +0.000 C 
ATOM      5  C   UNL     1       1.791   3.044  18.370  0.00  0.00    +0.000 A 
ATOM      6  N   UNL     1       0.532   2.932  18.818  0.00  0.00    +0.000 NA
ATOM      7  O   UNL     1       0.625   2.879  20.194  0.00  0.00    +0.000 OA
ATOM      8  C   UNL     1       1.933   2.944  20.569  0.00  0.00    +0.000 A 
ATOM      9  C   UNL     1       2.160   3.036  22.025  0.00  0.00    +0.000 C 
ATOM     10  C   UNL     1       2.716   2.957  19.436  0.00  0.00    +0.000 A 
ENDBRANCH   1  10
BRANCH   1  11
ATOM     11  N   UNL     1       4.891   4.718  19.541  0.00  0.00    +0.000 NA
ATOM     12  C   UNL     1       3.851   5.739  19.230  0.00  0.00    +0.000 C 
ATOM     13  C   UNL     1       4.120   6.106  17.775  0.00  0.00    +0.000 C 
ATOM     14  C   UNL     1       5.645   6.148  17.705  0.00  0.00    +0.000 C 
ATOM     15  C   UNL     1       6.112   5.161  18.786  0.00  0.00    +0.000 C 
BRANCH  14  16
ATOM     16  C   UNL     1       6.245   5.819  16.384  0.00  0.00    +0.000 A 
ATOM     17  N   UNL     1       5.636   5.021  15.449  0.00  0.00    +0.000 NA
ATOM     18  C   UNL     1       6.574   4.901  14.542  0.00  0.00    +0.000 A 
ATOM     19  O   UNL     1       7.717   5.570  14.841  0.00  0.00    +0.000 OA
ATOM     20  N   UNL     1       7.499   6.185  16.076  0.00  0.00    +0.000 NA
ENDBRANCH  14  16
ENDBRANCH   1  11
TORSDOF 3
ENDMDL
MODEL 3
REMARK VINA RESULT:      -7.5      2.093      6.535
REMARK  Name = 
REMARK  5 active torsions:
REMARK  status: ('A' for Active; 'I' for Inactive)
REMARK    1  A    between atoms: C_1  and  C_2
REMARK    2  A    between atoms: C_5  and  C_6
REMARK    3  A    between atoms: C_7  and  S_8
REMARK    4  A    between atoms: S_8  and  N_11
REMARK    5  A    between atoms: C_14  and  C_15
REMARK                            x       y       z     vdW  Elec       q    Type
REMARK                         _______ _______ _______ _____ _____    ______ ____
ROOT
ATOM      1  S   UNL     1       3.341   4.257  18.236  0.00  0.00    +0.000 S 
ATOM      2  O   UNL     1       3.813   3.080  17.544  0.00  0.00    +0.000 OA
ATOM      3  O   UNL     1       2.134   4.947  17.845  0.00  0.00    +0.000 OA
ENDROOT
BRANCH   1  10
ATOM      4  C   UNL     1       1.480   5.545  20.751  0.00  0.00    +0.000 C 
ATOM      5  C   UNL     1       2.196   4.250  20.785  0.00  0.00    +0.000 A 
ATOM      6  N   UNL     1       2.167   3.512  21.903  0.00  0.00    +0.000 NA
ATOM      7  O   UNL     1       3.048   2.470  21.691  0.00  0.00    +0.000 OA
ATOM      8  C   UNL     1       3.591   2.575  20.446  0.00  0.00    +0.000 A 
ATOM      9  C   UNL     1       4.655   1.596  20.147  0.00  0.00    +0.000 C 
ATOM     10  C   UNL     1       3.008   3.642  19.799  0.00  0.00    +0.000 A 
ENDBRANCH   1  10
BRANCH   1  11
ATOM     11  N   UNL     1       4.627   5.399  18.338  0.00  0.00    +0.000 NA
ATOM     12  C   UNL     1       4.330   6.759  17.807  0.00  0.00    +0.000 C 
ATOM     13  C   UNL     1       4.808   6.700  16.361  0.00  0.00    +0.000 C 
ATOM     14  C   UNL     1       6.107   5.903  16.457  0.00  0.00    +0.000 C 
ATOM     15  C   UNL     1       5.917   4.995  17.682  0.00  0.00    +0.000 C 
BRANCH  14  16
ATOM     16  C   UNL     1       6.473   5.110  15.254  0.00  0.00    +0.000 A 
ATOM     17  N   UNL     1       7.446   5.484  14.362  0.00  0.00    +0.000 NA
ATOM     18  C   UNL     1       7.314   4.582  13.420  0.00  0.00    +0.000 A 
ATOM     19  O   UNL     1       6.337   3.671  13.665  0.00  0.00    +0.000 OA
ATOM     20  N   UNL     1       5.771   4.024  14.892  0.00  0.00    +0.000 NA
ENDBRANCH  14  16
ENDBRANCH   1  11
TORSDOF 3
ENDMDL
MODEL 4
REMARK VINA RESULT:      -7.5      1.873      6.442
REMARK  Name = 
REMARK  5 active torsions:
REMARK  status: ('A' for Active; 'I' for Inactive)
REMARK    1  A    between atoms: C_1  and  C_2
REMARK    2  A    between atoms: C_5  and  C_6
REMARK    3  A    between atoms: C_7  and  S_8
REMARK    4  A    between atoms: S_8  and  N_11
REMARK    5  A    between atoms: C_14  and  C_15
REMARK                            x       y       z     vdW  Elec       q    Type
REMARK                         _______ _______ _______ _____ _____    ______ ____
ROOT
ATOM      1  S   UNL     1       4.084   5.141  18.364  0.00  0.00    +0.000 S 
ATOM      2  O   UNL     1       3.560   4.375  17.256  0.00  0.00    +0.000 OA
ATOM      3  O   UNL     1       3.807   6.549  18.524  0.00  0.00    +0.000 OA
ENDROOT
BRANCH   1  10
ATOM      4  C   UNL     1       4.128   1.916  19.385  0.00  0.00    +0.000 C 
ATOM      5  C   UNL     1       3.422   3.026  20.064  0.00  0.00    +0.000 A 
ATOM      6  N   UNL     1       2.690   2.767  21.156  0.00  0.00    +0.000 NA
ATOM      7  O   UNL     1       2.029   3.942  21.455  0.00  0.00    +0.000 OA
ATOM      8  C   UNL     1       2.375   4.905  20.554  0.00  0.00    +0.000 A 
ATOM      9  C   UNL     1       1.630   6.172  20.681  0.00  0.00    +0.000 C 
ATOM     10  C   UNL     1       3.330   4.390  19.706  0.00  0.00    +0.000 A 
ENDBRANCH   1  10
BRANCH   1  11
ATOM     11  N   UNL     1       5.787   4.894  18.459  0.00  0.00    +0.000 NA
ATOM     12  C   UNL     1       6.620   6.128  18.486  0.00  0.00    +0.000 C 
ATOM     13  C   UNL     1       6.971   6.367  17.022  0.00  0.00    +0.000 C 
ATOM     14  C   UNL     1       7.249   4.959  16.499  0.00  0.00    +0.000 C 
ATOM     15  C   UNL     1       6.388   4.040  17.379  0.00  0.00    +0.000 C 
BRANCH  14  16
ATOM     16  C   UNL     1       6.970   4.735  15.055  0.00  0.00    +0.000 A 
ATOM     17  N   UNL     1       6.123   3.764  14.586  0.00  0.00    +0.000 NA
ATOM     18  C   UNL     1       6.303   3.847  13.290  0.00  0.00    +0.000 A 
ATOM     19  O   UNL     1       7.194   4.803  12.920  0.00  0.00    +0.000 OA
ATOM     20  N   UNL     1       7.643   5.398  14.102  0.00  0.00    +0.000 NA
ENDBRANCH  14  16
ENDBRANCH   1  11
TORSDOF 3
ENDMDL
MODEL 5
REMARK VINA RESULT:      -7.4      1.967      6.503
REMARK  Name = 
REMARK  5 active torsions:
REMARK  status: ('A' for Active; 'I' for Inactive)
REMARK    1  A    between atoms: C_1  and  C_2
REMARK    2  A    between atoms: C_5  and  C_6
REMARK    3  A    between atoms: C_7  and  S_8
REMARK    4  A    between atoms: S_8  and  N_11
REMARK    5  A    between atoms: C_14  and  C_15
REMARK                            x       y       z     vdW  Elec       q    Type
REMARK                         _______ _______ _______ _____ _____    ______ ____
ROOT
ATOM      1  S   UNL     1       3.279   3.992  18.500  0.00  0.00    +0.000 S 
ATOM      2  O   UNL     1       4.190   3.014  17.952  0.00  0.00    +0.000 OA
ATOM      3  O   UNL     1       2.008   4.290  17.882  0.00  0.00    +0.000 OA
ENDROOT
BRANCH   1  10
ATOM      4  C   UNL     1       0.788   4.735  20.666  0.00  0.00    +0.000 C 
ATOM      5  C   UNL     1       1.798   3.667  20.847  0.00  0.00    +0.000 A 
ATOM      6  N   UNL     1       1.787   2.937  21.970  0.00  0.00    +0.000 NA
ATOM      7  O   UNL     1       2.926   2.158  21.925  0.00  0.00    +0.000 OA
ATOM      8  C   UNL     1       3.609   2.410  20.773  0.00  0.00    +0.000 A 
ATOM      9  C   UNL     1       4.920   1.741  20.667  0.00  0.00    +0.000 C 
ATOM     10  C   UNL     1       2.879   3.298  20.014  0.00  0.00    +0.000 A 
ENDBRANCH   1  10
BRANCH   1  11
ATOM     11  N   UNL     1       4.132   5.466  18.761  0.00  0.00    +0.000 NA
ATOM     12  C   UNL     1       3.484   6.694  18.218  0.00  0.00    +0.000 C 
ATOM     13  C   UNL     1       4.101   6.853  16.833  0.00  0.00    +0.000 C 
ATOM     14  C   UNL     1       5.566   6.488  17.062  0.00  0.00    +0.000 C 
ATOM     15  C   UNL     1       5.543   5.508  18.246  0.00  0.00    +0.000 C 
BRANCH  14  16
ATOM     16  C   UNL     1       6.281   5.902  15.897  0.00  0.00    +0.000 A 
ATOM     17  N   UNL     1       5.678   5.110  14.954  0.00  0.00    +0.000 NA
ATOM     18  C   UNL     1       6.699   4.722  14.231  0.00  0.00    +0.000 A 
ATOM     19  O   UNL     1       7.891   5.220  14.650  0.00  0.00    +0.000 OA
ATOM     20  N   UNL     1       7.612   6.010  15.768  0.00  0.00    +0.000 NA
ENDBRANCH  14  16
ENDBRANCH   1  11
TORSDOF 3
ENDMDL
MODEL 6
REMARK VINA RESULT:      -7.4      2.176      6.315
REMARK  Name = 
REMARK  5 active torsions:
REMARK  status: ('A' for Active; 'I' for Inactive)
REMARK    1  A    between atoms: C_1  and  C_2
REMARK    2  A    between atoms: C_5  and  C_6
REMARK    3  A    between atoms: C_7  and  S_8
REMARK    4  A    between atoms: S_8  and  N_11
REMARK    5  A    between atoms: C_14  and  C_15
REMARK                            x       y       z     vdW  Elec       q    Type
REMARK                         _______ _______ _______ _____ _____    ______ ____
ROOT
ATOM      1  S   UNL     1       4.421   4.348  19.142  0.00  0.00    +0.000 S 
ATOM      2  O   UNL     1       4.475   5.550  19.942  0.00  0.00    +0.000 OA
ATOM      3  O   UNL     1       5.185   3.169  19.473  0.00  0.00    +0.000 OA
ENDROOT
BRANCH   1  10
ATOM      4  C   UNL     1       2.666   1.895  17.608  0.00  0.00    +0.000 C 
ATOM      5  C   UNL     1       2.139   2.816  18.641  0.00  0.00    +0.000 A 
ATOM      6  N   UNL     1       0.850   2.733  18.998  0.00  0.00    +0.000 NA
ATOM      7  O   UNL     1       0.620   3.808  19.833  0.00  0.00    +0.000 OA
ATOM      8  C   UNL     1       1.770   4.523  19.988  0.00  0.00    +0.000 A 
ATOM      9  C   UNL     1       1.623   5.779  20.750  0.00  0.00    +0.000 C 
ATOM     10  C   UNL     1       2.785   3.875  19.320  0.00  0.00    +0.000 A 
ENDBRANCH   1  10
BRANCH   1  11
ATOM     11  N   UNL     1       4.716   4.760  17.495  0.00  0.00    +0.000 NA
ATOM     12  C   UNL     1       5.766   3.959  16.805  0.00  0.00    +0.000 C 
ATOM     13  C   UNL     1       7.037   4.778  16.995  0.00  0.00    +0.000 C 
ATOM     14  C   UNL     1       6.556   6.214  16.800  0.00  0.00    +0.000 C 
ATOM     15  C   UNL     1       5.081   6.193  17.231  0.00  0.00    +0.000 C 
BRANCH  14  16
ATOM     16  C   UNL     1       7.315   7.260  17.535  0.00  0.00    +0.000 A 
ATOM     17  N   UNL     1       7.369   8.575  17.150  0.00  0.00    +0.000 NA
ATOM     18  C   UNL     1       8.246   9.070  17.988  0.00  0.00    +0.000 A 
ATOM     19  O   UNL     1       8.735   8.161  18.871  0.00  0.00    +0.000 OA
ATOM     20  N   UNL     1       8.114   6.947  18.568  0.00  0.00    +0.000 NA
ENDBRANCH  14  16
ENDBRANCH   1  11
TORSDOF 3
ENDMDL
MODEL 7
REMARK VINA RESULT:      -7.4      0.525      1.830
REMARK  Name = 
REMARK  5 active torsions:
REMARK  status: ('A' for Active; 'I' for Inactive)
REMARK    1  A    between atoms: C_1  and  C_2
REMARK    2  A    between atoms: C_5  and  C_6
REMARK    3  A    between atoms: C_7  and  S_8
REMARK    4  A    between atoms: S_8  and  N_11
REMARK    5  A    between atoms: C_14  and  C_15
REMARK                            x       y       z     vdW  Elec       q    Type
REMARK                         _______ _______ _______ _____ _____    ______ ____
ROOT
ATOM      1  S   UNL     1       5.145   4.809  17.863  0.00  0.00    +0.000 S 
ATOM      2  O   UNL     1       5.985   4.360  18.950  0.00  0.00    +0.000 OA
ATOM      3  O   UNL     1       4.309   5.981  17.971  0.00  0.00    +0.000 OA
ENDROOT
BRANCH   1  10
ATOM      4  C   UNL     1       7.490   7.246  17.782  0.00  0.00    +0.000 C 
ATOM      5  C   UNL     1       7.258   6.238  16.724  0.00  0.00    +0.000 A 
ATOM      6  N   UNL     1       7.989   6.284  15.601  0.00  0.00    +0.000 NA
ATOM      7  O   UNL     1       7.437   5.345  14.753  0.00  0.00    +0.000 OA
ATOM      8  C   UNL     1       6.390   4.728  15.369  0.00  0.00    +0.000 A 
ATOM      9  C   UNL     1       5.626   3.797  14.516  0.00  0.00    +0.000 C 
ATOM     10  C   UNL     1       6.298   5.201  16.659  0.00  0.00    +0.000 A 
ENDBRANCH   1  10
BRANCH   1  11
ATOM     11  N   UNL     1       4.183   3.487  17.317  0.00  0.00    +0.000 NA
ATOM     12  C   UNL     1       2.856   3.846  16.743  0.00  0.00    +0.000 C 
ATOM     13  C   UNL     1       1.904   3.746  17.930  0.00  0.00    +0.000 C 
ATOM     14  C   UNL     1       2.396   2.501  18.665  0.00  0.00    +0.000 C 
ATOM     15  C   UNL     1       3.895   2.421  18.335  0.00  0.00    +0.000 C 
BRANCH  14  16
ATOM     16  C   UNL     1       2.169   2.481  20.135  0.00  0.00    +0.000 A 
ATOM     17  N   UNL     1       0.948   2.698  20.720  0.00  0.00    +0.000 NA
ATOM     18  C   UNL     1       1.257   2.730  21.993  0.00  0.00    +0.000 A 
ATOM     19  O   UNL     1       2.578   2.541  22.242  0.00  0.00    +0.000 OA
ATOM     20  N   UNL     1       3.191   2.376  20.998  0.00  0.00    +0.000 NA
ENDBRANCH  14  16
ENDBRANCH   1  11
TORSDOF 3
ENDMDL
MODEL 8
REMARK VINA RESULT:      -7.3      1.983      6.325
REMARK  Name = 
REMARK  5 active torsions:
REMARK  status: ('A' for Active; 'I' for Inactive)
REMARK    1  A    between atoms: C_1  and  C_2
REMARK    2  A    between atoms: C_5  and  C_6
REMARK    3  A    between atoms: C_7  and  S_8
REMARK    4  A    between atoms: S_8  and  N_11
REMARK    5  A    between atoms: C_14  and  C_15
REMARK                            x       y       z     vdW  Elec       q    Type
REMARK                         _______ _______ _______ _____ _____    ______ ____
ROOT
ATOM      1  S   UNL     1       4.177   5.151  18.617  0.00  0.00    +0.000 S 
ATOM      2  O   UNL     1       3.897   5.640  17.286  0.00  0.00    +0.000 OA
ATOM      3  O   UNL     1       3.788   5.881  19.801  0.00  0.00    +0.000 OA
ENDROOT
BRANCH   1  10
ATOM      4  C   UNL     1       1.079   4.482  17.434  0.00  0.00    +0.000 C 
ATOM      5  C   UNL     1       1.964   3.518  18.126  0.00  0.00    +0.000 A 
ATOM      6  N   UNL     1       1.523   2.275  18.362  0.00  0.00    +0.000 NA
ATOM      7  O   UNL     1       2.483   1.679  19.156  0.00  0.00    +0.000 OA
ATOM      8  C   UNL     1       3.502   2.556  19.381  0.00  0.00    +0.000 A 
ATOM      9  C   UNL     1       4.528   2.086  20.332  0.00  0.00    +0.000 C 
ATOM     10  C   UNL     1       3.256   3.708  18.668  0.00  0.00    +0.000 A 
ENDBRANCH   1  10
BRANCH   1  11
ATOM     11  N   UNL     1       5.851   4.760  18.728  0.00  0.00    +0.000 NA
ATOM     12  C   UNL     1       6.777   5.915  18.889  0.00  0.00    +0.000 C 
ATOM     13  C   UNL     1       7.190   6.257  17.462  0.00  0.00    +0.000 C 
ATOM     14  C   UNL     1       7.373   4.885  16.817  0.00  0.00    +0.000 C 
ATOM     15  C   UNL     1       6.416   3.962  17.587  0.00  0.00    +0.000 C 
BRANCH  14  16
ATOM     16  C   UNL     1       7.121   4.815  15.353  0.00  0.00    +0.000 A 
ATOM     17  N   UNL     1       6.242   3.938  14.772  0.00  0.00    +0.000 NA
ATOM     18  C   UNL     1       6.460   4.137  13.495  0.00  0.00    +0.000 A 
ATOM     19  O   UNL     1       7.404   5.079  13.240  0.00  0.00    +0.000 OA
ATOM     20  N   UNL     1       7.849   5.534  14.484  0.00  0.00    +0.000 NA
ENDBRANCH  14  16
ENDBRANCH   1  11
TORSDOF 3
ENDMDL
MODEL 9
REMARK VINA RESULT:      -7.3      1.416      2.184
REMARK  Name = 
REMARK  5 active torsions:
REMARK  status: ('A' for Active; 'I' for Inactive)
REMARK    1  A    between atoms: C_1  and  C_2
REMARK    2  A    between atoms: C_5  and  C_6
REMARK    3  A    between atoms: C_7  and  S_8
REMARK    4  A    between atoms: S_8  and  N_11
REMARK    5  A    between atoms: C_14  and  C_15
REMARK                            x       y       z     vdW  Elec       q    Type
REMARK                         _______ _______ _______ _____ _____    ______ ____
ROOT
ATOM      1  S   UNL     1       4.714   5.734  18.015  0.00  0.00    +0.000 S 
ATOM      2  O   UNL     1       4.800   5.522  19.443  0.00  0.00    +0.000 OA
ATOM      3  O   UNL     1       4.718   7.054  17.432  0.00  0.00    +0.000 OA
ENDROOT
BRANCH   1  10
ATOM      4  C   UNL     1       7.812   5.688  19.373  0.00  0.00    +0.000 C 
ATOM      5  C   UNL     1       7.414   5.024  18.111  0.00  0.00    +0.000 A 
ATOM      6  N   UNL     1       8.339   4.374  17.391  0.00  0.00    +0.000 NA
ATOM      7  O   UNL     1       7.716   4.018  16.211  0.00  0.00    +0.000 OA
ATOM      8  C   UNL     1       6.420   4.439  16.230  0.00  0.00    +0.000 A 
ATOM      9  C   UNL     1       5.683   4.240  14.968  0.00  0.00    +0.000 C 
ATOM     10  C   UNL     1       6.159   5.003  17.459  0.00  0.00    +0.000 A 
ENDBRANCH   1  10
BRANCH   1  11
ATOM     11  N   UNL     1       3.363   4.857  17.401  0.00  0.00    +0.000 NA
ATOM     12  C   UNL     1       2.046   5.548  17.494  0.00  0.00    +0.000 C 
ATOM     13  C   UNL     1       1.467   5.058  18.816  0.00  0.00    +0.000 C 
ATOM     14  C   UNL     1       1.848   3.579  18.834  0.00  0.00    +0.000 C 
ATOM     15  C   UNL     1       3.135   3.498  17.999  0.00  0.00    +0.000 C 
BRANCH  14  16
ATOM     16  C   UNL     1       2.042   2.974  20.179  0.00  0.00    +0.000 A 
ATOM     17  N   UNL     1       1.044   2.854  21.112  0.00  0.00    +0.000 NA
ATOM     18  C   UNL     1       1.699   2.413  22.157  0.00  0.00    +0.000 A 
ATOM     19  O   UNL     1       3.029   2.242  21.941  0.00  0.00    +0.000 OA
ATOM     20  N   UNL     1       3.261   2.619  20.616  0.00  0.00    +0.000 NA
ENDBRANCH  14  16
ENDBRANCH   1  11
TORSDOF 3
ENDMDL
