MODEL 1
REMARK VINA RESULT:      -6.2      0.000      0.000
REMARK  Name = 
REMARK  8 active torsions:
REMARK  status: ('A' for Active; 'I' for Inactive)
REMARK    1  A    between atoms: C_1  and  O_2
REMARK    2  A    between atoms: O_2  and  C_3
REMARK    3  A    between atoms: C_3  and  C_4
REMARK    4  A    between atoms: C_4  and  N_5
REMARK    5  A    between atoms: C_6  and  S_7
REMARK    6  A    between atoms: C_14  and  C_15
REMARK    7  A    between atoms: C_19  and  O_20
REMARK    8  A    between atoms: O_20  and  C_21
REMARK                            x       y       z     vdW  Elec       q    Type
REMARK                         _______ _______ _______ _____ _____    ______ ____
ROOT
ATOM      1  N   UNL     1      -1.110  12.857  22.998  0.00  0.00    +0.000 NA
ATOM      2  C   UNL     1      -1.537  12.433  21.854  0.00  0.00    +0.000 C 
ATOM      3  N   UNL     1      -1.036  11.275  21.288  0.00  0.00    +0.000 N 
ATOM      4  C   UNL     1      -1.002  10.981  19.845  0.00  0.00    +0.000 C 
ATOM      5  C   UNL     1       0.446  10.729  19.367  0.00  0.00    +0.000 C 
ATOM      6  N   UNL     1       1.074   9.685  20.178  0.00  0.00    +0.000 N 
ATOM      7  C   UNL     1       1.613   8.550  19.659  0.00  0.00    +0.000 A 
ATOM      8  N   UNL     1       1.696   7.407  20.312  0.00  0.00    +0.000 NA
ATOM      9  C   UNL     1       2.302   6.428  19.535  0.00  0.00    +0.000 A 
ATOM     10  C   UNL     1       2.705   6.848  18.286  0.00  0.00    +0.000 A 
ATOM     11  S   UNL     1       2.289   8.486  18.061  0.00  0.00    +0.000 S 
ATOM     12  C   UNL     1       1.033   9.911  21.628  0.00  0.00    +0.000 C 
ATOM     13  C   UNL     1      -0.400  10.220  22.106  0.00  0.00    +0.000 C 
ENDROOT
BRANCH   9  14
ATOM     14  C   UNL     1       2.437   5.048  19.993  0.00  0.00    +0.000 A 
ATOM     15  C   UNL     1       1.474   4.458  20.826  0.00  0.00    +0.000 A 
ATOM     16  C   UNL     1       1.656   3.162  21.308  0.00  0.00    +0.000 A 
ATOM     17  C   UNL     1       2.801   2.448  20.962  0.00  0.00    +0.000 A 
ATOM     18  C   UNL     1       3.765   3.012  20.125  0.00  0.00    +0.000 A 
ATOM     19  C   UNL     1       3.575   4.307  19.632  0.00  0.00    +0.000 A 
BRANCH  18  20
ATOM     20  O   UNL     1       4.843   2.206  19.876  0.00  0.00    +0.000 OA
ATOM     21  C   UNL     1       5.221   1.305  20.909  0.00  0.00    +0.000 C 
ENDBRANCH  18  20
ENDBRANCH   9  14
BRANCH   2  22
ATOM     22  S   UNL     1      -2.806  13.253  20.925  0.00  0.00    +0.000 S 
ATOM     23  H   UNL     1      -2.901  14.379  21.634  0.00  0.00    +0.000 HD
ENDBRANCH   2  22
BRANCH   1  24
ATOM     24  C   UNL     1      -1.600  14.093  23.601  0.00  0.00    +0.000 C 
BRANCH  24  25
ATOM     25  C   UNL     1      -0.657  15.255  23.291  0.00  0.00    +0.000 C 
BRANCH  25  27
ATOM     26  C   UNL     1      -0.858  17.513  22.622  0.00  0.00    +0.000 C 
ATOM     27  O   UNL     1      -1.387  16.479  23.440  0.00  0.00    +0.000 OA
ENDBRANCH  25  27
ENDBRANCH  24  25
ENDBRANCH   1  24
TORSDOF 6
ENDMDL
MODEL 2
REMARK VINA RESULT:      -6.2      1.287      1.549
REMARK  Name = 
REMARK  8 active torsions:
REMARK  status: ('A' for Active; 'I' for Inactive)
REMARK    1  A    between atoms: C_1  and  O_2
REMARK    2  A    between atoms: O_2  and  C_3
REMARK    3  A    between atoms: C_3  and  C_4
REMARK    4  A    between atoms: C_4  and  N_5
REMARK    5  A    between atoms: C_6  and  S_7
REMARK    6  A    between atoms: C_14  and  C_15
REMARK    7  A    between atoms: C_19  and  O_20
REMARK    8  A    between atoms: O_20  and  C_21
REMARK                            x       y       z     vdW  Elec       q    Type
REMARK                         _______ _______ _______ _____ _____    ______ ____
ROOT
ATOM      1  N   UNL     1      -1.484  13.368  23.384  0.00  0.00    +0.000 NA
ATOM      2  C   UNL     1      -1.984  12.954  22.266  0.00  0.00    +0.000 C 
ATOM      3  N   UNL     1      -1.432  11.882  21.589  0.00  0.00    +0.000 N 
ATOM      4  C   UNL     1      -1.521  11.659  20.136  0.00  0.00    +0.000 C 
ATOM      5  C   UNL     1      -0.113  11.583  19.503  0.00  0.00    +0.000 C 
ATOM      6  N   UNL     1       0.698  10.575  20.187  0.00  0.00    +0.000 N 
ATOM      7  C   UNL     1       1.290   9.528  19.554  0.00  0.00    +0.000 A 
ATOM      8  N   UNL     1       1.555   8.372  20.130  0.00  0.00    +0.000 NA
ATOM      9  C   UNL     1       2.170   7.498  19.243  0.00  0.00    +0.000 A 
ATOM     10  C   UNL     1       2.397   8.015  17.986  0.00  0.00    +0.000 A 
ATOM     11  S   UNL     1       1.798   9.609  17.896  0.00  0.00    +0.000 S 
ATOM     12  C   UNL     1       0.787  10.729  21.645  0.00  0.00    +0.000 C 
ATOM     13  C   UNL     1      -0.611  10.864  22.279  0.00  0.00    +0.000 C 
ENDROOT
BRANCH   9  14
ATOM     14  C   UNL     1       2.491   6.120  19.607  0.00  0.00    +0.000 A 
ATOM     15  C   UNL     1       1.677   5.391  20.487  0.00  0.00    +0.000 A 
ATOM     16  C   UNL     1       2.037   4.100  20.876  0.00  0.00    +0.000 A 
ATOM     17  C   UNL     1       3.211   3.532  20.388  0.00  0.00    +0.000 A 
ATOM     18  C   UNL     1       4.027   4.236  19.501  0.00  0.00    +0.000 A 
ATOM     19  C   UNL     1       3.659   5.525  19.103  0.00  0.00    +0.000 A 
BRANCH  18  20
ATOM     20  O   UNL     1       5.153   3.563  19.111  0.00  0.00    +0.000 OA
ATOM     21  C   UNL     1       6.127   4.306  18.390  0.00  0.00    +0.000 C 
ENDBRANCH  18  20
ENDBRANCH   9  14
BRANCH   2  22
ATOM     22  S   UNL     1      -3.419  13.678  21.516  0.00  0.00    +0.000 S 
ATOM     23  H   UNL     1      -4.034  14.126  22.611  0.00  0.00    +0.000 HD
ENDBRANCH   2  22
BRANCH   1  24
ATOM     24  C   UNL     1      -2.029  14.517  24.102  0.00  0.00    +0.000 C 
BRANCH  24  25
ATOM     25  C   UNL     1      -1.035  15.677  24.096  0.00  0.00    +0.000 C 
BRANCH  25  27
ATOM     26  C   UNL     1      -0.977  15.978  26.440  0.00  0.00    +0.000 C 
ATOM     27  O   UNL     1      -1.349  16.545  25.191  0.00  0.00    +0.000 OA
ENDBRANCH  25  27
ENDBRANCH  24  25
ENDBRANCH   1  24
TORSDOF 6
ENDMDL
MODEL 3
REMARK VINA RESULT:      -6.2      4.020      9.881
REMARK  Name = 
REMARK  8 active torsions:
REMARK  status: ('A' for Active; 'I' for Inactive)
REMARK    1  A    between atoms: C_1  and  O_2
REMARK    2  A    between atoms: O_2  and  C_3
REMARK    3  A    between atoms: C_3  and  C_4
REMARK    4  A    between atoms: C_4  and  N_5
REMARK    5  A    between atoms: C_6  and  S_7
REMARK    6  A    between atoms: C_14  and  C_15
REMARK    7  A    between atoms: C_19  and  O_20
REMARK    8  A    between atoms: O_20  and  C_21
REMARK                            x       y       z     vdW  Elec       q    Type
REMARK                         _______ _______ _______ _____ _____    ______ ____
ROOT
ATOM      1  N   UNL     1       4.555   5.157  17.409  0.00  0.00    +0.000 NA
ATOM      2  C   UNL     1       3.806   5.024  18.453  0.00  0.00    +0.000 C 
ATOM      3  N   UNL     1       2.752   5.888  18.692  0.00  0.00    +0.000 N 
ATOM      4  C   UNL     1       2.197   6.203  20.020  0.00  0.00    +0.000 C 
ATOM      5  C   UNL     1       2.284   7.719  20.309  0.00  0.00    +0.000 C 
ATOM      6  N   UNL     1       1.651   8.478  19.230  0.00  0.00    +0.000 N 
ATOM      7  C   UNL     1       0.641   9.366  19.426  0.00  0.00    +0.000 A 
ATOM      8  N   UNL     1      -0.274   9.654  18.521  0.00  0.00    +0.000 NA
ATOM      9  C   UNL     1      -1.172  10.601  18.998  0.00  0.00    +0.000 A 
ATOM     10  C   UNL     1      -0.912  11.052  20.274  0.00  0.00    +0.000 A 
ATOM     11  S   UNL     1       0.455  10.254  20.906  0.00  0.00    +0.000 S 
ATOM     12  C   UNL     1       2.142   8.174  17.880  0.00  0.00    +0.000 C 
ATOM     13  C   UNL     1       2.113   6.657  17.603  0.00  0.00    +0.000 C 
ENDROOT
BRANCH   9  14
ATOM     14  C   UNL     1      -2.333  11.029  18.222  0.00  0.00    +0.000 A 
ATOM     15  C   UNL     1      -3.469  11.567  18.847  0.00  0.00    +0.000 A 
ATOM     16  C   UNL     1      -4.594  11.907  18.096  0.00  0.00    +0.000 A 
ATOM     17  C   UNL     1      -4.590  11.711  16.716  0.00  0.00    +0.000 A 
ATOM     18  C   UNL     1      -3.466  11.190  16.075  0.00  0.00    +0.000 A 
ATOM     19  C   UNL     1      -2.334  10.861  16.828  0.00  0.00    +0.000 A 
BRANCH  18  20
ATOM     20  O   UNL     1      -3.605  11.039  14.721  0.00  0.00    +0.000 OA
ATOM     21  C   UNL     1      -3.035   9.872  14.144  0.00  0.00    +0.000 C 
ENDBRANCH  18  20
ENDBRANCH   9  14
BRANCH   2  22
ATOM     22  S   UNL     1       4.020   3.729  19.646  0.00  0.00    +0.000 S 
ATOM     23  H   UNL     1       4.233   2.705  18.818  0.00  0.00    +0.000 HD
ENDBRANCH   2  22
BRANCH   1  24
ATOM     24  C   UNL     1       5.692   4.277  17.150  0.00  0.00    +0.000 C 
BRANCH  24  25
ATOM     25  C   UNL     1       6.928   5.092  16.771  0.00  0.00    +0.000 C 
BRANCH  25  27
ATOM     26  C   UNL     1       6.886   4.916  14.415  0.00  0.00    +0.000 C 
ATOM     27  O   UNL     1       6.663   5.762  15.534  0.00  0.00    +0.000 OA
ENDBRANCH  25  27
ENDBRANCH  24  25
ENDBRANCH   1  24
TORSDOF 6
ENDMDL
MODEL 4
REMARK VINA RESULT:      -6.2      1.411      1.772
REMARK  Name = 
REMARK  8 active torsions:
REMARK  status: ('A' for Active; 'I' for Inactive)
REMARK    1  A    between atoms: C_1  and  O_2
REMARK    2  A    between atoms: O_2  and  C_3
REMARK    3  A    between atoms: C_3  and  C_4
REMARK    4  A    between atoms: C_4  and  N_5
REMARK    5  A    between atoms: C_6  and  S_7
REMARK    6  A    between atoms: C_14  and  C_15
REMARK    7  A    between atoms: C_19  and  O_20
REMARK    8  A    between atoms: O_20  and  C_21
REMARK                            x       y       z     vdW  Elec       q    Type
REMARK                         _______ _______ _______ _____ _____    ______ ____
ROOT
ATOM      1  N   UNL     1      -1.693  13.133  23.281  0.00  0.00    +0.000 NA
ATOM      2  C   UNL     1      -2.073  12.871  22.073  0.00  0.00    +0.000 C 
ATOM      3  N   UNL     1      -1.493  11.846  21.348  0.00  0.00    +0.000 N 
ATOM      4  C   UNL     1      -1.415  11.785  19.878  0.00  0.00    +0.000 C 
ATOM      5  C   UNL     1       0.054  11.694  19.407  0.00  0.00    +0.000 C 
ATOM      6  N   UNL     1       0.728  10.573  20.062  0.00  0.00    +0.000 N 
ATOM      7  C   UNL     1       1.345   9.566  19.388  0.00  0.00    +0.000 A 
ATOM      8  N   UNL     1       1.484   8.341  19.856  0.00  0.00    +0.000 NA
ATOM      9  C   UNL     1       2.161   7.532  18.953  0.00  0.00    +0.000 A 
ATOM     10  C   UNL     1       2.562   8.166  17.796  0.00  0.00    +0.000 A 
ATOM     11  S   UNL     1       2.052   9.792  17.818  0.00  0.00    +0.000 S 
ATOM     12  C   UNL     1       0.648  10.565  21.528  0.00  0.00    +0.000 C 
ATOM     13  C   UNL     1      -0.809  10.714  22.008  0.00  0.00    +0.000 C 
ENDROOT
BRANCH   9  14
ATOM     14  C   UNL     1       2.371   6.107  19.194  0.00  0.00    +0.000 A 
ATOM     15  C   UNL     1       2.651   5.223  18.140  0.00  0.00    +0.000 A 
ATOM     16  C   UNL     1       2.780   3.855  18.381  0.00  0.00    +0.000 A 
ATOM     17  C   UNL     1       2.630   3.363  19.675  0.00  0.00    +0.000 A 
ATOM     18  C   UNL     1       2.365   4.227  20.739  0.00  0.00    +0.000 A 
ATOM     19  C   UNL     1       2.248   5.599  20.498  0.00  0.00    +0.000 A 
BRANCH  18  20
ATOM     20  O   UNL     1       2.231   3.608  21.952  0.00  0.00    +0.000 OA
ATOM     21  C   UNL     1       1.460   2.413  21.981  0.00  0.00    +0.000 C 
ENDBRANCH  18  20
ENDBRANCH   9  14
BRANCH   2  22
ATOM     22  S   UNL     1      -3.371  13.754  21.249  0.00  0.00    +0.000 S 
ATOM     23  H   UNL     1      -3.705  14.605  22.220  0.00  0.00    +0.000 HD
ENDBRANCH   2  22
BRANCH   1  24
ATOM     24  C   UNL     1      -2.267  14.230  24.056  0.00  0.00    +0.000 C 
BRANCH  24  25
ATOM     25  C   UNL     1      -1.165  15.108  24.645  0.00  0.00    +0.000 C 
BRANCH  25  27
ATOM     26  C   UNL     1      -0.629  16.490  22.804  0.00  0.00    +0.000 C 
ATOM     27  O   UNL     1      -0.217  15.395  23.610  0.00  0.00    +0.000 OA
ENDBRANCH  25  27
ENDBRANCH  24  25
ENDBRANCH   1  24
TORSDOF 6
ENDMDL
MODEL 5
REMARK VINA RESULT:      -6.1      1.504      1.766
REMARK  Name = 
REMARK  8 active torsions:
REMARK  status: ('A' for Active; 'I' for Inactive)
REMARK    1  A    between atoms: C_1  and  O_2
REMARK    2  A    between atoms: O_2  and  C_3
REMARK    3  A    between atoms: C_3  and  C_4
REMARK    4  A    between atoms: C_4  and  N_5
REMARK    5  A    between atoms: C_6  and  S_7
REMARK    6  A    between atoms: C_14  and  C_15
REMARK    7  A    between atoms: C_19  and  O_20
REMARK    8  A    between atoms: O_20  and  C_21
REMARK                            x       y       z     vdW  Elec       q    Type
REMARK                         _______ _______ _______ _____ _____    ______ ____
ROOT
ATOM      1  N   UNL     1      -1.592  13.454  23.195  0.00  0.00    +0.000 NA
ATOM      2  C   UNL     1      -2.029  13.080  22.038  0.00  0.00    +0.000 C 
ATOM      3  N   UNL     1      -1.476  11.995  21.381  0.00  0.00    +0.000 N 
ATOM      4  C   UNL     1      -1.471  11.800  19.921  0.00  0.00    +0.000 C 
ATOM      5  C   UNL     1      -0.026  11.672  19.387  0.00  0.00    +0.000 C 
ATOM      6  N   UNL     1       0.691  10.619  20.108  0.00  0.00    +0.000 N 
ATOM      7  C   UNL     1       1.282   9.557  19.499  0.00  0.00    +0.000 A 
ATOM      8  N   UNL     1       1.456   8.382  20.070  0.00  0.00    +0.000 NA
ATOM      9  C   UNL     1       2.095   7.496  19.212  0.00  0.00    +0.000 A 
ATOM     10  C   UNL     1       2.432   8.022  17.984  0.00  0.00    +0.000 A 
ATOM     11  S   UNL     1       1.909   9.642  17.882  0.00  0.00    +0.000 S 
ATOM     12  C   UNL     1       0.683  10.746  21.571  0.00  0.00    +0.000 C 
ATOM     13  C   UNL     1      -0.750  10.932  22.108  0.00  0.00    +0.000 C 
ENDROOT
BRANCH   9  14
ATOM     14  C   UNL     1       2.330   6.100  19.572  0.00  0.00    +0.000 A 
ATOM     15  C   UNL     1       1.775   5.543  20.734  0.00  0.00    +0.000 A 
ATOM     16  C   UNL     1       2.067   4.228  21.096  0.00  0.00    +0.000 A 
ATOM     17  C   UNL     1       2.916   3.462  20.300  0.00  0.00    +0.000 A 
ATOM     18  C   UNL     1       3.467   3.994  19.133  0.00  0.00    +0.000 A 
ATOM     19  C   UNL     1       3.164   5.308  18.765  0.00  0.00    +0.000 A 
BRANCH  18  20
ATOM     20  O   UNL     1       4.291   3.137  18.454  0.00  0.00    +0.000 OA
ATOM     21  C   UNL     1       4.604   3.478  17.110  0.00  0.00    +0.000 C 
ENDBRANCH  18  20
ENDBRANCH   9  14
BRANCH   2  22
ATOM     22  S   UNL     1      -3.375  13.877  21.202  0.00  0.00    +0.000 S 
ATOM     23  H   UNL     1      -3.642  14.837  22.089  0.00  0.00    +0.000 HD
ENDBRANCH   2  22
BRANCH   1  24
ATOM     24  C   UNL     1      -2.137  14.614  23.895  0.00  0.00    +0.000 C 
BRANCH  24  25
ATOM     25  C   UNL     1      -3.383  14.227  24.691  0.00  0.00    +0.000 C 
BRANCH  25  27
ATOM     26  C   UNL     1      -3.743  16.551  24.449  0.00  0.00    +0.000 C 
ATOM     27  O   UNL     1      -4.353  15.272  24.545  0.00  0.00    +0.000 OA
ENDBRANCH  25  27
ENDBRANCH  24  25
ENDBRANCH   1  24
TORSDOF 6
ENDMDL
MODEL 6
REMARK VINA RESULT:      -6.1      3.996      9.888
REMARK  Name = 
REMARK  8 active torsions:
REMARK  status: ('A' for Active; 'I' for Inactive)
REMARK    1  A    between atoms: C_1  and  O_2
REMARK    2  A    between atoms: O_2  and  C_3
REMARK    3  A    between atoms: C_3  and  C_4
REMARK    4  A    between atoms: C_4  and  N_5
REMARK    5  A    between atoms: C_6  and  S_7
REMARK    6  A    between atoms: C_14  and  C_15
REMARK    7  A    between atoms: C_19  and  O_20
REMARK    8  A    between atoms: O_20  and  C_21
REMARK                            x       y       z     vdW  Elec       q    Type
REMARK                         _______ _______ _______ _____ _____    ______ ____
ROOT
ATOM      1  N   UNL     1       5.088   6.427  17.367  0.00  0.00    +0.000 NA
ATOM      2  C   UNL     1       4.272   6.045  18.294  0.00  0.00    +0.000 C 
ATOM      3  N   UNL     1       3.069   6.697  18.501  0.00  0.00    +0.000 N 
ATOM      4  C   UNL     1       2.341   6.747  19.780  0.00  0.00    +0.000 C 
ATOM      5  C   UNL     1       2.140   8.208  20.244  0.00  0.00    +0.000 C 
ATOM      6  N   UNL     1       1.498   8.992  19.188  0.00  0.00    +0.000 N 
ATOM      7  C   UNL     1       0.338   9.679  19.360  0.00  0.00    +0.000 A 
ATOM      8  N   UNL     1      -0.519   9.935  18.390  0.00  0.00    +0.000 NA
ATOM      9  C   UNL     1      -1.607  10.660  18.859  0.00  0.00    +0.000 A 
ATOM     10  C   UNL     1      -1.555  10.978  20.200  0.00  0.00    +0.000 A 
ATOM     11  S   UNL     1      -0.141  10.329  20.897  0.00  0.00    +0.000 S 
ATOM     12  C   UNL     1       2.165   8.945  17.881  0.00  0.00    +0.000 C 
ATOM     13  C   UNL     1       2.420   7.491  17.436  0.00  0.00    +0.000 C 
ENDROOT
BRANCH   9  14
ATOM     14  C   UNL     1      -2.741  10.999  18.004  0.00  0.00    +0.000 A 
ATOM     15  C   UNL     1      -2.747  10.674  16.639  0.00  0.00    +0.000 A 
ATOM     16  C   UNL     1      -3.809  11.067  15.824  0.00  0.00    +0.000 A 
ATOM     17  C   UNL     1      -4.870  11.788  16.369  0.00  0.00    +0.000 A 
ATOM     18  C   UNL     1      -4.888  12.110  17.726  0.00  0.00    +0.000 A 
ATOM     19  C   UNL     1      -3.829  11.705  18.544  0.00  0.00    +0.000 A 
BRANCH  18  20
ATOM     20  O   UNL     1      -5.982  12.830  18.123  0.00  0.00    +0.000 OA
ATOM     21  C   UNL     1      -6.637  13.605  17.127  0.00  0.00    +0.000 C 
ENDBRANCH  18  20
ENDBRANCH   9  14
BRANCH   2  22
ATOM     22  S   UNL     1       4.584   4.657  19.352  0.00  0.00    +0.000 S 
ATOM     23  H   UNL     1       5.202   3.856  18.483  0.00  0.00    +0.000 HD
ENDBRANCH   2  22
BRANCH   1  24
ATOM     24  C   UNL     1       6.377   5.777  17.150  0.00  0.00    +0.000 C 
BRANCH  24  25
ATOM     25  C   UNL     1       7.503   6.581  17.798  0.00  0.00    +0.000 C 
BRANCH  25  27
ATOM     26  C   UNL     1       8.185   8.841  17.922  0.00  0.00    +0.000 C 
ATOM     27  O   UNL     1       7.626   7.826  17.100  0.00  0.00    +0.000 OA
ENDBRANCH  25  27
ENDBRANCH  24  25
ENDBRANCH   1  24
TORSDOF 6
ENDMDL
MODEL 7
REMARK VINA RESULT:      -6.1      1.253      1.768
REMARK  Name = 
REMARK  8 active torsions:
REMARK  status: ('A' for Active; 'I' for Inactive)
REMARK    1  A    between atoms: C_1  and  O_2
REMARK    2  A    between atoms: O_2  and  C_3
REMARK    3  A    between atoms: C_3  and  C_4
REMARK    4  A    between atoms: C_4  and  N_5
REMARK    5  A    between atoms: C_6  and  S_7
REMARK    6  A    between atoms: C_14  and  C_15
REMARK    7  A    between atoms: C_19  and  O_20
REMARK    8  A    between atoms: O_20  and  C_21
REMARK                            x       y       z     vdW  Elec       q    Type
REMARK                         _______ _______ _______ _____ _____    ______ ____
ROOT
ATOM      1  N   UNL     1      -1.159  13.072  22.740  0.00  0.00    +0.000 NA
ATOM      2  C   UNL     1      -1.567  12.624  21.599  0.00  0.00    +0.000 C 
ATOM      3  N   UNL     1      -1.058  11.453  21.067  0.00  0.00    +0.000 N 
ATOM      4  C   UNL     1      -1.001  11.127  19.631  0.00  0.00    +0.000 C 
ATOM      5  C   UNL     1       0.455  10.864  19.183  0.00  0.00    +0.000 C 
ATOM      6  N   UNL     1       1.069   9.838  20.027  0.00  0.00    +0.000 N 
ATOM      7  C   UNL     1       1.616   8.692  19.542  0.00  0.00    +0.000 A 
ATOM      8  N   UNL     1       1.686   7.564  20.221  0.00  0.00    +0.000 NA
ATOM      9  C   UNL     1       2.304   6.567  19.476  0.00  0.00    +0.000 A 
ATOM     10  C   UNL     1       2.729   6.960  18.225  0.00  0.00    +0.000 A 
ATOM     11  S   UNL     1       2.318   8.593  17.957  0.00  0.00    +0.000 S 
ATOM     12  C   UNL     1       1.005  10.096  21.471  0.00  0.00    +0.000 C 
ATOM     13  C   UNL     1      -0.436  10.416  21.918  0.00  0.00    +0.000 C 
ENDROOT
BRANCH   9  14
ATOM     14  C   UNL     1       2.431   5.197  19.966  0.00  0.00    +0.000 A 
ATOM     15  C   UNL     1       1.883   4.810  21.198  0.00  0.00    +0.000 A 
ATOM     16  C   UNL     1       2.073   3.515  21.681  0.00  0.00    +0.000 A 
ATOM     17  C   UNL     1       2.814   2.600  20.935  0.00  0.00    +0.000 A 
ATOM     18  C   UNL     1       3.356   2.962  19.701  0.00  0.00    +0.000 A 
ATOM     19  C   UNL     1       3.154   4.257  19.213  0.00  0.00    +0.000 A 
BRANCH  18  20
ATOM     20  O   UNL     1       4.069   1.970  19.083  0.00  0.00    +0.000 OA
ATOM     21  C   UNL     1       3.634   1.580  17.787  0.00  0.00    +0.000 C 
ENDBRANCH  18  20
ENDBRANCH   9  14
BRANCH   2  22
ATOM     22  S   UNL     1      -2.819  13.424  20.631  0.00  0.00    +0.000 S 
ATOM     23  H   UNL     1      -2.042  14.154  19.831  0.00  0.00    +0.000 HD
ENDBRANCH   2  22
BRANCH   1  24
ATOM     24  C   UNL     1      -1.657  14.322  23.309  0.00  0.00    +0.000 C 
BRANCH  24  25
ATOM     25  C   UNL     1      -3.141  14.203  23.652  0.00  0.00    +0.000 C 
BRANCH  25  27
ATOM     26  C   UNL     1      -4.405  12.440  24.592  0.00  0.00    +0.000 C 
ATOM     27  O   UNL     1      -3.278  13.290  24.748  0.00  0.00    +0.000 OA
ENDBRANCH  25  27
ENDBRANCH  24  25
ENDBRANCH   1  24
TORSDOF 6
ENDMDL
MODEL 8
REMARK VINA RESULT:      -6.0      1.878      2.547
REMARK  Name = 
REMARK  8 active torsions:
REMARK  status: ('A' for Active; 'I' for Inactive)
REMARK    1  A    between atoms: C_1  and  O_2
REMARK    2  A    between atoms: O_2  and  C_3
REMARK    3  A    between atoms: C_3  and  C_4
REMARK    4  A    between atoms: C_4  and  N_5
REMARK    5  A    between atoms: C_6  and  S_7
REMARK    6  A    between atoms: C_14  and  C_15
REMARK    7  A    between atoms: C_19  and  O_20
REMARK    8  A    between atoms: O_20  and  C_21
REMARK                            x       y       z     vdW  Elec       q    Type
REMARK                         _______ _______ _______ _____ _____    ______ ____
ROOT
ATOM      1  N   UNL     1      -1.962  13.242  23.108  0.00  0.00    +0.000 NA
ATOM      2  C   UNL     1      -2.276  13.004  21.877  0.00  0.00    +0.000 C 
ATOM      3  N   UNL     1      -1.649  12.001  21.160  0.00  0.00    +0.000 N 
ATOM      4  C   UNL     1      -1.495  11.974  19.695  0.00  0.00    +0.000 C 
ATOM      5  C   UNL     1      -0.002  11.906  19.298  0.00  0.00    +0.000 C 
ATOM      6  N   UNL     1       0.649  10.777  19.963  0.00  0.00    +0.000 N 
ATOM      7  C   UNL     1       1.310   9.792  19.300  0.00  0.00    +0.000 A 
ATOM      8  N   UNL     1       1.437   8.558  19.748  0.00  0.00    +0.000 NA
ATOM      9  C   UNL     1       2.169   7.775  18.863  0.00  0.00    +0.000 A 
ATOM     10  C   UNL     1       2.622   8.439  17.743  0.00  0.00    +0.000 A 
ATOM     11  S   UNL     1       2.095  10.060  17.775  0.00  0.00    +0.000 S 
ATOM     12  C   UNL     1       0.493  10.736  21.423  0.00  0.00    +0.000 C 
ATOM     13  C   UNL     1      -0.989  10.860  21.830  0.00  0.00    +0.000 C 
ENDROOT
BRANCH   9  14
ATOM     14  C   UNL     1       2.381   6.347  19.083  0.00  0.00    +0.000 A 
ATOM     15  C   UNL     1       2.769   5.498  18.035  0.00  0.00    +0.000 A 
ATOM     16  C   UNL     1       2.900   4.126  18.249  0.00  0.00    +0.000 A 
ATOM     17  C   UNL     1       2.642   3.594  19.511  0.00  0.00    +0.000 A 
ATOM     18  C   UNL     1       2.268   4.423  20.569  0.00  0.00    +0.000 A 
ATOM     19  C   UNL     1       2.149   5.801  20.356  0.00  0.00    +0.000 A 
BRANCH  18  20
ATOM     20  O   UNL     1       2.035   3.768  21.748  0.00  0.00    +0.000 OA
ATOM     21  C   UNL     1       1.618   2.412  21.657  0.00  0.00    +0.000 C 
ENDBRANCH  18  20
ENDBRANCH   9  14
BRANCH   2  22
ATOM     22  S   UNL     1      -3.539  13.893  21.006  0.00  0.00    +0.000 S 
ATOM     23  H   UNL     1      -2.797  14.432  20.038  0.00  0.00    +0.000 HD
ENDBRANCH   2  22
BRANCH   1  24
ATOM     24  C   UNL     1      -2.587  14.315  23.876  0.00  0.00    +0.000 C 
BRANCH  24  25
ATOM     25  C   UNL     1      -3.704  13.764  24.761  0.00  0.00    +0.000 C 
BRANCH  25  27
ATOM     26  C   UNL     1      -5.836  12.964  24.129  0.00  0.00    +0.000 C 
ATOM     27  O   UNL     1      -4.960  14.082  24.150  0.00  0.00    +0.000 OA
ENDBRANCH  25  27
ENDBRANCH  24  25
ENDBRANCH   1  24
TORSDOF 6
ENDMDL
MODEL 9
REMARK VINA RESULT:      -5.9      3.207      4.354
REMARK  Name = 
REMARK  8 active torsions:
REMARK  status: ('A' for Active; 'I' for Inactive)
REMARK    1  A    between atoms: C_1  and  O_2
REMARK    2  A    between atoms: O_2  and  C_3
REMARK    3  A    between atoms: C_3  and  C_4
REMARK    4  A    between atoms: C_4  and  N_5
REMARK    5  A    between atoms: C_6  and  S_7
REMARK    6  A    between atoms: C_14  and  C_15
REMARK    7  A    between atoms: C_19  and  O_20
REMARK    8  A    between atoms: O_20  and  C_21
REMARK                            x       y       z     vdW  Elec       q    Type
REMARK                         _______ _______ _______ _____ _____    ______ ____
ROOT
ATOM      1  N   UNL     1      -0.844  11.995  19.589  0.00  0.00    +0.000 NA
ATOM      2  C   UNL     1      -0.243  11.528  20.633  0.00  0.00    +0.000 C 
ATOM      3  N   UNL     1       0.665  10.489  20.530  0.00  0.00    +0.000 N 
ATOM      4  C   UNL     1       0.986   9.533  21.605  0.00  0.00    +0.000 C 
ATOM      5  C   UNL     1       0.694   8.082  21.156  0.00  0.00    +0.000 C 
ATOM      6  N   UNL     1       1.390   7.789  19.903  0.00  0.00    +0.000 N 
ATOM      7  C   UNL     1       2.259   6.755  19.748  0.00  0.00    +0.000 A 
ATOM      8  N   UNL     1       3.259   6.755  18.887  0.00  0.00    +0.000 NA
ATOM      9  C   UNL     1       3.971   5.563  18.945  0.00  0.00    +0.000 A 
ATOM     10  C   UNL     1       3.482   4.642  19.846  0.00  0.00    +0.000 A 
ATOM     11  S   UNL     1       2.132   5.286  20.664  0.00  0.00    +0.000 S 
ATOM     12  C   UNL     1       1.135   8.735  18.810  0.00  0.00    +0.000 C 
ATOM     13  C   UNL     1       1.368  10.190  19.264  0.00  0.00    +0.000 C 
ENDROOT
BRANCH   9  14
ATOM     14  C   UNL     1       5.177   5.341  18.154  0.00  0.00    +0.000 A 
ATOM     15  C   UNL     1       6.413   5.083  18.766  0.00  0.00    +0.000 A 
ATOM     16  C   UNL     1       7.568   4.941  17.996  0.00  0.00    +0.000 A 
ATOM     17  C   UNL     1       7.494   5.057  16.610  0.00  0.00    +0.000 A 
ATOM     18  C   UNL     1       6.272   5.301  15.981  0.00  0.00    +0.000 A 
ATOM     19  C   UNL     1       5.114   5.430  16.753  0.00  0.00    +0.000 A 
BRANCH  18  20
ATOM     20  O   UNL     1       6.346   5.403  14.618  0.00  0.00    +0.000 OA
ATOM     21  C   UNL     1       6.346   4.187  13.882  0.00  0.00    +0.000 C 
ENDBRANCH  18  20
ENDBRANCH   9  14
BRANCH   2  22
ATOM     22  S   UNL     1      -0.485  12.175  22.266  0.00  0.00    +0.000 S 
ATOM     23  H   UNL     1       0.662  11.789  22.825  0.00  0.00    +0.000 HD
ENDBRANCH   2  22
BRANCH   1  24
ATOM     24  C   UNL     1      -1.830  13.070  19.674  0.00  0.00    +0.000 C 
BRANCH  24  25
ATOM     25  C   UNL     1      -3.248  12.502  19.656  0.00  0.00    +0.000 C 
BRANCH  25  27
ATOM     26  C   UNL     1      -5.001  13.554  20.842  0.00  0.00    +0.000 C 
ATOM     27  O   UNL     1      -3.843  12.736  20.937  0.00  0.00    +0.000 OA
ENDBRANCH  25  27
ENDBRANCH  24  25
ENDBRANCH   1  24
TORSDOF 6
ENDMDL
