MODEL 1
REMARK VINA RESULT:      -6.7      0.000      0.000
REMARK  Name = 
REMARK  3 active torsions:
REMARK  status: ('A' for Active; 'I' for Inactive)
REMARK    1  A    between atoms: C_1  and  C_2
REMARK    2  A    between atoms: C_7  and  C_8
REMARK    3  A    between atoms: N_9  and  C_10
REMARK                            x       y       z     vdW  Elec       q    Type
REMARK                         _______ _______ _______ _____ _____    ______ ____
ROOT
ATOM      1  C   UNL     1       2.308   6.021  19.203  0.00  0.00    +0.000 C 
ATOM      2  C   UNL     1       2.609   4.707  19.893  0.00  0.00    +0.000 A 
ATOM      3  C   UNL     1       1.768   4.400  20.900  0.00  0.00    +0.000 A 
ATOM      4  C   UNL     1       1.871   3.113  21.593  0.00  0.00    +0.000 A 
ATOM      5  O   UNL     1       1.110   2.807  22.498  0.00  0.00    +0.000 OA
ATOM      6  C   UNL     1       2.936   2.206  21.141  0.00  0.00    +0.000 A 
ATOM      7  C   UNL     1       3.765   2.565  20.146  0.00  0.00    +0.000 A 
ATOM      8  C   UNL     1       4.877   1.571  19.870  0.00  0.00    +0.000 C 
ATOM      9  N   UNL     1       3.650   3.820  19.455  0.00  0.00    +0.000 N 
ENDROOT
BRANCH   9  10
ATOM     10  C   UNL     1       4.543   4.172  18.367  0.00  0.00    +0.000 A 
ATOM     11  C   UNL     1       4.351   3.686  17.060  0.00  0.00    +0.000 A 
ATOM     12  C   UNL     1       5.238   3.983  16.014  0.00  0.00    +0.000 A 
ATOM     13  C   UNL     1       6.289   4.871  16.217  0.00  0.00    +0.000 A 
ATOM     14 CL   UNL     1       7.309   5.246  14.876  0.00  0.00    +0.000 Cl
ATOM     15  C   UNL     1       6.471   5.422  17.484  0.00  0.00    +0.000 A 
ATOM     16 CL   UNL     1       7.679   6.618  17.803  0.00  0.00    +0.000 Cl
ATOM     17  C   UNL     1       5.646   5.026  18.549  0.00  0.00    +0.000 A 
ENDBRANCH   9  10
TORSDOF 1
ENDMDL
MODEL 2
REMARK VINA RESULT:      -6.6      0.053      2.145
REMARK  Name = 
REMARK  3 active torsions:
REMARK  status: ('A' for Active; 'I' for Inactive)
REMARK    1  A    between atoms: C_1  and  C_2
REMARK    2  A    between atoms: C_7  and  C_8
REMARK    3  A    between atoms: N_9  and  C_10
REMARK                            x       y       z     vdW  Elec       q    Type
REMARK                         _______ _______ _______ _____ _____    ______ ____
ROOT
ATOM      1  C   UNL     1       4.838   1.564  19.800  0.00  0.00    +0.000 C 
ATOM      2  C   UNL     1       3.739   2.562  20.100  0.00  0.00    +0.000 A 
ATOM      3  C   UNL     1       2.923   2.207  21.111  0.00  0.00    +0.000 A 
ATOM      4  C   UNL     1       1.878   3.118  21.583  0.00  0.00    +0.000 A 
ATOM      5  O   UNL     1       1.136   2.823  22.509  0.00  0.00    +0.000 OA
ATOM      6  C   UNL     1       1.768   4.409  20.889  0.00  0.00    +0.000 A 
ATOM      7  C   UNL     1       2.590   4.711  19.870  0.00  0.00    +0.000 A 
ATOM      8  C   UNL     1       2.281   6.029  19.186  0.00  0.00    +0.000 C 
ATOM      9  N   UNL     1       3.628   3.822  19.421  0.00  0.00    +0.000 N 
ENDROOT
BRANCH   9  10
ATOM     10  C   UNL     1       4.520   4.185  18.336  0.00  0.00    +0.000 A 
ATOM     11  C   UNL     1       4.303   3.749  17.016  0.00  0.00    +0.000 A 
ATOM     12  C   UNL     1       5.188   4.055  15.971  0.00  0.00    +0.000 A 
ATOM     13  C   UNL     1       6.265   4.906  16.193  0.00  0.00    +0.000 A 
ATOM     14 CL   UNL     1       7.283   5.297  14.855  0.00  0.00    +0.000 Cl
ATOM     15  C   UNL     1       6.475   5.409  17.475  0.00  0.00    +0.000 A 
ATOM     16 CL   UNL     1       7.719   6.560  17.821  0.00  0.00    +0.000 Cl
ATOM     17  C   UNL     1       5.648   5.002  18.535  0.00  0.00    +0.000 A 
ENDBRANCH   9  10
TORSDOF 1
ENDMDL
MODEL 3
REMARK VINA RESULT:      -6.4      2.178      2.465
REMARK  Name = 
REMARK  3 active torsions:
REMARK  status: ('A' for Active; 'I' for Inactive)
REMARK    1  A    between atoms: C_1  and  C_2
REMARK    2  A    between atoms: C_7  and  C_8
REMARK    3  A    between atoms: N_9  and  C_10
REMARK                            x       y       z     vdW  Elec       q    Type
REMARK                         _______ _______ _______ _____ _____    ______ ____
ROOT
ATOM      1  C   UNL     1       2.267   6.151  20.079  0.00  0.00    +0.000 C 
ATOM      2  C   UNL     1       2.288   4.818  19.360  0.00  0.00    +0.000 A 
ATOM      3  C   UNL     1       1.209   4.044  19.586  0.00  0.00    +0.000 A 
ATOM      4  C   UNL     1       1.039   2.773  18.879  0.00  0.00    +0.000 A 
ATOM      5  O   UNL     1       0.061   2.063  19.057  0.00  0.00    +0.000 OA
ATOM      6  C   UNL     1       2.105   2.396  17.939  0.00  0.00    +0.000 A 
ATOM      7  C   UNL     1       3.174   3.189  17.762  0.00  0.00    +0.000 A 
ATOM      8  C   UNL     1       4.236   2.612  16.846  0.00  0.00    +0.000 C 
ATOM      9  N   UNL     1       3.329   4.446  18.443  0.00  0.00    +0.000 N 
ENDROOT
BRANCH   9  10
ATOM     10  C   UNL     1       4.482   5.296  18.213  0.00  0.00    +0.000 A 
ATOM     11  C   UNL     1       4.450   6.363  17.296  0.00  0.00    +0.000 A 
ATOM     12  C   UNL     1       5.575   7.158  17.034  0.00  0.00    +0.000 A 
ATOM     13  C   UNL     1       6.744   6.982  17.767  0.00  0.00    +0.000 A 
ATOM     14 CL   UNL     1       8.075   8.033  17.442  0.00  0.00    +0.000 Cl
ATOM     15  C   UNL     1       6.791   5.976  18.730  0.00  0.00    +0.000 A 
ATOM     16 CL   UNL     1       8.159   5.756  19.766  0.00  0.00    +0.000 Cl
ATOM     17  C   UNL     1       5.696   5.113  18.901  0.00  0.00    +0.000 A 
ENDBRANCH   9  10
TORSDOF 1
ENDMDL
MODEL 4
REMARK VINA RESULT:      -6.4      2.186      3.046
REMARK  Name = 
REMARK  3 active torsions:
REMARK  status: ('A' for Active; 'I' for Inactive)
REMARK    1  A    between atoms: C_1  and  C_2
REMARK    2  A    between atoms: C_7  and  C_8
REMARK    3  A    between atoms: N_9  and  C_10
REMARK                            x       y       z     vdW  Elec       q    Type
REMARK                         _______ _______ _______ _____ _____    ______ ____
ROOT
ATOM      1  C   UNL     1       4.201   2.657  16.742  0.00  0.00    +0.000 C 
ATOM      2  C   UNL     1       3.156   3.206  17.692  0.00  0.00    +0.000 A 
ATOM      3  C   UNL     1       2.094   2.400  17.880  0.00  0.00    +0.000 A 
ATOM      4  C   UNL     1       1.053   2.749  18.850  0.00  0.00    +0.000 A 
ATOM      5  O   UNL     1       0.088   2.026  19.049  0.00  0.00    +0.000 OA
ATOM      6  C   UNL     1       1.230   4.015  19.577  0.00  0.00    +0.000 A 
ATOM      7  C   UNL     1       2.296   4.798  19.340  0.00  0.00    +0.000 A 
ATOM      8  C   UNL     1       2.280   6.119  20.085  0.00  0.00    +0.000 C 
ATOM      9  N   UNL     1       3.325   4.443  18.401  0.00  0.00    +0.000 N 
ENDROOT
BRANCH   9  10
ATOM     10  C   UNL     1       4.480   5.295  18.183  0.00  0.00    +0.000 A 
ATOM     11  C   UNL     1       4.450   6.375  17.282  0.00  0.00    +0.000 A 
ATOM     12  C   UNL     1       5.577   7.172  17.031  0.00  0.00    +0.000 A 
ATOM     13  C   UNL     1       6.745   6.982  17.761  0.00  0.00    +0.000 A 
ATOM     14 CL   UNL     1       8.078   8.034  17.452  0.00  0.00    +0.000 Cl
ATOM     15  C   UNL     1       6.791   5.962  18.709  0.00  0.00    +0.000 A 
ATOM     16 CL   UNL     1       8.158   5.724  19.741  0.00  0.00    +0.000 Cl
ATOM     17  C   UNL     1       5.694   5.099  18.867  0.00  0.00    +0.000 A 
ENDBRANCH   9  10
TORSDOF 1
ENDMDL
MODEL 5
REMARK VINA RESULT:      -6.3      3.517      4.952
REMARK  Name = 
REMARK  3 active torsions:
REMARK  status: ('A' for Active; 'I' for Inactive)
REMARK    1  A    between atoms: C_1  and  C_2
REMARK    2  A    between atoms: C_7  and  C_8
REMARK    3  A    between atoms: N_9  and  C_10
REMARK                            x       y       z     vdW  Elec       q    Type
REMARK                         _______ _______ _______ _____ _____    ______ ____
ROOT
ATOM      1  C   UNL     1       5.488   5.982  18.553  0.00  0.00    +0.000 C 
ATOM      2  C   UNL     1       4.552   4.921  19.094  0.00  0.00    +0.000 A 
ATOM      3  C   UNL     1       5.117   3.710  19.262  0.00  0.00    +0.000 A 
ATOM      4  C   UNL     1       4.365   2.612  19.873  0.00  0.00    +0.000 A 
ATOM      5  O   UNL     1       4.863   1.510  20.049  0.00  0.00    +0.000 OA
ATOM      6  C   UNL     1       2.979   2.904  20.269  0.00  0.00    +0.000 A 
ATOM      7  C   UNL     1       2.450   4.122  20.061  0.00  0.00    +0.000 A 
ATOM      8  C   UNL     1       0.981   4.234  20.421  0.00  0.00    +0.000 C 
ATOM      9  N   UNL     1       3.197   5.203  19.478  0.00  0.00    +0.000 N 
ENDROOT
BRANCH   9  10
ATOM     10  C   UNL     1       2.609   6.516  19.290  0.00  0.00    +0.000 A 
ATOM     11  C   UNL     1       2.499   7.108  18.018  0.00  0.00    +0.000 A 
ATOM     12  C   UNL     1       1.976   8.397  17.835  0.00  0.00    +0.000 A 
ATOM     13  C   UNL     1       1.441   9.095  18.912  0.00  0.00    +0.000 A 
ATOM     14 CL   UNL     1       0.755  10.650  18.614  0.00  0.00    +0.000 Cl
ATOM     15  C   UNL     1       1.474   8.513  20.177  0.00  0.00    +0.000 A 
ATOM     16 CL   UNL     1       0.733   9.254  21.553  0.00  0.00    +0.000 Cl
ATOM     17  C   UNL     1       2.104   7.271  20.365  0.00  0.00    +0.000 A 
ENDBRANCH   9  10
TORSDOF 1
ENDMDL
MODEL 6
REMARK VINA RESULT:      -6.2      3.545      4.950
REMARK  Name = 
REMARK  3 active torsions:
REMARK  status: ('A' for Active; 'I' for Inactive)
REMARK    1  A    between atoms: C_1  and  C_2
REMARK    2  A    between atoms: C_7  and  C_8
REMARK    3  A    between atoms: N_9  and  C_10
REMARK                            x       y       z     vdW  Elec       q    Type
REMARK                         _______ _______ _______ _____ _____    ______ ____
ROOT
ATOM      1  C   UNL     1       1.004   4.267  20.452  0.00  0.00    +0.000 C 
ATOM      2  C   UNL     1       2.466   4.164  20.071  0.00  0.00    +0.000 A 
ATOM      3  C   UNL     1       3.005   2.943  20.251  0.00  0.00    +0.000 A 
ATOM      4  C   UNL     1       4.380   2.664  19.830  0.00  0.00    +0.000 A 
ATOM      5  O   UNL     1       4.884   1.559  19.970  0.00  0.00    +0.000 OA
ATOM      6  C   UNL     1       5.122   3.780  19.226  0.00  0.00    +0.000 A 
ATOM      7  C   UNL     1       4.550   4.987  19.086  0.00  0.00    +0.000 A 
ATOM      8  C   UNL     1       5.477   6.060  18.549  0.00  0.00    +0.000 C 
ATOM      9  N   UNL     1       3.194   5.254  19.483  0.00  0.00    +0.000 N 
ENDROOT
BRANCH   9  10
ATOM     10  C   UNL     1       2.591   6.560  19.296  0.00  0.00    +0.000 A 
ATOM     11  C   UNL     1       2.461   7.146  18.024  0.00  0.00    +0.000 A 
ATOM     12  C   UNL     1       1.924   8.428  17.841  0.00  0.00    +0.000 A 
ATOM     13  C   UNL     1       1.394   9.126  18.922  0.00  0.00    +0.000 A 
ATOM     14 CL   UNL     1       0.690  10.673  18.625  0.00  0.00    +0.000 Cl
ATOM     15  C   UNL     1       1.447   8.549  20.188  0.00  0.00    +0.000 A 
ATOM     16 CL   UNL     1       0.714   9.290  21.569  0.00  0.00    +0.000 Cl
ATOM     17  C   UNL     1       2.091   7.315  20.374  0.00  0.00    +0.000 A 
ENDBRANCH   9  10
TORSDOF 1
ENDMDL
MODEL 7
REMARK VINA RESULT:      -6.2      3.845      5.940
REMARK  Name = 
REMARK  3 active torsions:
REMARK  status: ('A' for Active; 'I' for Inactive)
REMARK    1  A    between atoms: C_1  and  C_2
REMARK    2  A    between atoms: C_7  and  C_8
REMARK    3  A    between atoms: N_9  and  C_10
REMARK                            x       y       z     vdW  Elec       q    Type
REMARK                         _______ _______ _______ _____ _____    ______ ____
ROOT
ATOM      1  C   UNL     1       3.740   3.419  15.913  0.00  0.00    +0.000 C 
ATOM      2  C   UNL     1       5.018   4.098  16.358  0.00  0.00    +0.000 A 
ATOM      3  C   UNL     1       5.852   4.430  15.353  0.00  0.00    +0.000 A 
ATOM      4  C   UNL     1       7.079   5.185  15.619  0.00  0.00    +0.000 A 
ATOM      5  O   UNL     1       7.842   5.510  14.722  0.00  0.00    +0.000 OA
ATOM      6  C   UNL     1       7.344   5.536  17.022  0.00  0.00    +0.000 A 
ATOM      7  C   UNL     1       6.494   5.165  17.994  0.00  0.00    +0.000 A 
ATOM      8  C   UNL     1       6.960   5.504  19.396  0.00  0.00    +0.000 C 
ATOM      9  N   UNL     1       5.281   4.440  17.728  0.00  0.00    +0.000 N 
ENDROOT
BRANCH   9  10
ATOM     10  C   UNL     1       4.367   4.074  18.793  0.00  0.00    +0.000 A 
ATOM     11  C   UNL     1       4.455   2.838  19.459  0.00  0.00    +0.000 A 
ATOM     12  C   UNL     1       3.544   2.459  20.457  0.00  0.00    +0.000 A 
ATOM     13  C   UNL     1       2.577   3.355  20.900  0.00  0.00    +0.000 A 
ATOM     14 CL   UNL     1       1.526   2.853  22.173  0.00  0.00    +0.000 Cl
ATOM     15  C   UNL     1       2.501   4.612  20.306  0.00  0.00    +0.000 A 
ATOM     16 CL   UNL     1       1.408   5.830  20.867  0.00  0.00    +0.000 Cl
ATOM     17  C   UNL     1       3.344   4.936  19.231  0.00  0.00    +0.000 A 
ENDBRANCH   9  10
TORSDOF 1
ENDMDL
MODEL 8
REMARK VINA RESULT:      -6.2      3.846      5.951
REMARK  Name = 
REMARK  3 active torsions:
REMARK  status: ('A' for Active; 'I' for Inactive)
REMARK    1  A    between atoms: C_1  and  C_2
REMARK    2  A    between atoms: C_7  and  C_8
REMARK    3  A    between atoms: N_9  and  C_10
REMARK                            x       y       z     vdW  Elec       q    Type
REMARK                         _______ _______ _______ _____ _____    ______ ____
ROOT
ATOM      1  C   UNL     1       6.940   5.509  19.351  0.00  0.00    +0.000 C 
ATOM      2  C   UNL     1       6.472   5.171  17.951  0.00  0.00    +0.000 A 
ATOM      3  C   UNL     1       7.331   5.521  16.974  0.00  0.00    +0.000 A 
ATOM      4  C   UNL     1       7.062   5.166  15.579  0.00  0.00    +0.000 A 
ATOM      5  O   UNL     1       7.835   5.460  14.679  0.00  0.00    +0.000 OA
ATOM      6  C   UNL     1       5.815   4.433  15.315  0.00  0.00    +0.000 A 
ATOM      7  C   UNL     1       4.977   4.124  16.320  0.00  0.00    +0.000 A 
ATOM      8  C   UNL     1       3.684   3.467  15.875  0.00  0.00    +0.000 C 
ATOM      9  N   UNL     1       5.252   4.458  17.691  0.00  0.00    +0.000 N 
ENDROOT
BRANCH   9  10
ATOM     10  C   UNL     1       4.343   4.088  18.759  0.00  0.00    +0.000 A 
ATOM     11  C   UNL     1       4.423   2.843  19.408  0.00  0.00    +0.000 A 
ATOM     12  C   UNL     1       3.516   2.461  20.408  0.00  0.00    +0.000 A 
ATOM     13  C   UNL     1       2.563   3.362  20.871  0.00  0.00    +0.000 A 
ATOM     14 CL   UNL     1       1.516   2.856  22.147  0.00  0.00    +0.000 Cl
ATOM     15  C   UNL     1       2.496   4.628  20.295  0.00  0.00    +0.000 A 
ATOM     16 CL   UNL     1       1.422   5.851  20.880  0.00  0.00    +0.000 Cl
ATOM     17  C   UNL     1       3.334   4.956  19.217  0.00  0.00    +0.000 A 
ENDBRANCH   9  10
TORSDOF 1
ENDMDL
MODEL 9
REMARK VINA RESULT:      -6.1      1.308      2.854
REMARK  Name = 
REMARK  3 active torsions:
REMARK  status: ('A' for Active; 'I' for Inactive)
REMARK    1  A    between atoms: C_1  and  C_2
REMARK    2  A    between atoms: C_7  and  C_8
REMARK    3  A    between atoms: N_9  and  C_10
REMARK                            x       y       z     vdW  Elec       q    Type
REMARK                         _______ _______ _______ _____ _____    ______ ____
ROOT
ATOM      1  C   UNL     1       4.068   1.261  18.286  0.00  0.00    +0.000 C 
ATOM      2  C   UNL     1       3.391   2.451  18.934  0.00  0.00    +0.000 A 
ATOM      3  C   UNL     1       2.480   2.131  19.873  0.00  0.00    +0.000 A 
ATOM      4  C   UNL     1       1.818   3.175  20.658  0.00  0.00    +0.000 A 
ATOM      5  O   UNL     1       1.000   2.908  21.526  0.00  0.00    +0.000 OA
ATOM      6  C   UNL     1       2.191   4.565  20.352  0.00  0.00    +0.000 A 
ATOM      7  C   UNL     1       3.089   4.836  19.390  0.00  0.00    +0.000 A 
ATOM      8  C   UNL     1       3.285   6.315  19.118  0.00  0.00    +0.000 C 
ATOM      9  N   UNL     1       3.751   3.808  18.634  0.00  0.00    +0.000 N 
ENDROOT
BRANCH   9  10
ATOM     10  C   UNL     1       4.737   4.129  17.619  0.00  0.00    +0.000 A 
ATOM     11  C   UNL     1       6.047   4.521  17.950  0.00  0.00    +0.000 A 
ATOM     12  C   UNL     1       6.990   4.879  16.976  0.00  0.00    +0.000 A 
ATOM     13  C   UNL     1       6.686   4.748  15.625  0.00  0.00    +0.000 A 
ATOM     14 CL   UNL     1       7.909   5.144  14.473  0.00  0.00    +0.000 Cl
ATOM     15  C   UNL     1       5.418   4.301  15.260  0.00  0.00    +0.000 A 
ATOM     16 CL   UNL     1       4.987   4.000  13.612  0.00  0.00    +0.000 Cl
ATOM     17  C   UNL     1       4.447   4.056  16.244  0.00  0.00    +0.000 A 
ENDBRANCH   9  10
TORSDOF 1
ENDMDL
