MODEL 1
REMARK VINA RESULT:      -7.2      0.000      0.000
REMARK  Name = 
REMARK  11 active torsions:
REMARK  status: ('A' for Active; 'I' for Inactive)
REMARK    1  A    between atoms: C_1  and  O_2
REMARK    2  A    between atoms: O_2  and  C_3
REMARK    3  A    between atoms: C_5  and  O_6
REMARK    4  A    between atoms: O_6  and  C_7
REMARK    5  A    between atoms: C_8  and  C_9
REMARK    6  A    between atoms: C_9  and  O_11
REMARK    7  A    between atoms: O_11  and  C_12
REMARK    8  A    between atoms: C_12  and  C_13
REMARK    9  A    between atoms: N_15  and  C_16
REMARK   10  A    between atoms: C_24  and  O_25
REMARK   11  A    between atoms: O_25  and  C_26
REMARK                            x       y       z     vdW  Elec       q    Type
REMARK                         _______ _______ _______ _____ _____    ______ ____
ROOT
ATOM      1  C   UNL     1       2.581   7.278  18.506  0.00  0.00    +0.000 C 
ATOM      2  O   UNL     1       2.365   7.196  19.705  0.00  0.00    +0.000 OA
ENDROOT
BRANCH   1   6
ATOM      3  C   UNL     1       5.398   4.713  16.486  0.00  0.00    +0.000 A 
ATOM      4  C   UNL     1       4.184   4.172  16.939  0.00  0.00    +0.000 A 
ATOM      5  C   UNL     1       3.211   4.958  17.572  0.00  0.00    +0.000 A 
ATOM      6  C   UNL     1       3.480   6.327  17.775  0.00  0.00    +0.000 A 
ATOM      7  C   UNL     1       4.708   6.851  17.358  0.00  0.00    +0.000 A 
ATOM      8  C   UNL     1       5.677   6.063  16.724  0.00  0.00    +0.000 A 
BRANCH   3  10
ATOM      9  C   UNL     1       6.262   3.919  14.423  0.00  0.00    +0.000 C 
ATOM     10  O   UNL     1       6.326   3.934  15.847  0.00  0.00    +0.000 OA
ENDBRANCH   3  10
BRANCH   5  11
ATOM     11  O   UNL     1       2.016   4.443  18.003  0.00  0.00    +0.000 OA
ATOM     12  C   UNL     1       2.033   3.506  19.075  0.00  0.00    +0.000 C 
ENDBRANCH   5  11
BRANCH   8  13
ATOM     13  O   UNL     1       6.800   6.780  16.417  0.00  0.00    +0.000 OA
ATOM     14  C   UNL     1       7.585   7.317  17.468  0.00  0.00    +0.000 C 
ENDBRANCH   8  13
ENDBRANCH   1   6
BRANCH   1  15
ATOM     15  O   UNL     1       1.957   8.121  17.666  0.00  0.00    +0.000 OA
BRANCH  15  16
ATOM     16  C   UNL     1       1.882   9.491  18.074  0.00  0.00    +0.000 C 
BRANCH  16  17
ATOM     17  C   UNL     1       0.480   9.821  18.593  0.00  0.00    +0.000 C 
ATOM     18  O   UNL     1       0.189   9.694  19.780  0.00  0.00    +0.000 OA
ATOM     19  N   UNL     1      -0.379  10.272  17.602  0.00  0.00    +0.000 N 
ATOM     20  H   UNL     1      -0.121  10.021  16.652  0.00  0.00    +0.000 HD
BRANCH  19  21
ATOM     21  C   UNL     1      -1.728  10.616  17.816  0.00  0.00    +0.000 A 
ATOM     22  C   UNL     1      -2.755   9.751  17.432  0.00  0.00    +0.000 A 
ATOM     23  C   UNL     1      -4.088  10.094  17.672  0.00  0.00    +0.000 A 
ATOM     24  C   UNL     1      -4.403  11.313  18.270  0.00  0.00    +0.000 A 
ATOM     25  C   UNL     1      -3.382  12.183  18.656  0.00  0.00    +0.000 A 
ATOM     26  C   UNL     1      -2.048  11.825  18.453  0.00  0.00    +0.000 A 
ATOM     27 CL   UNL     1      -0.818  12.943  18.927  0.00  0.00    +0.000 Cl
ENDBRANCH  19  21
ENDBRANCH  16  17
ENDBRANCH  15  16
ENDBRANCH   1  15
TORSDOF 8
ENDMDL
MODEL 2
REMARK VINA RESULT:      -7.2      4.718      8.294
REMARK  Name = 
REMARK  11 active torsions:
REMARK  status: ('A' for Active; 'I' for Inactive)
REMARK    1  A    between atoms: C_1  and  O_2
REMARK    2  A    between atoms: O_2  and  C_3
REMARK    3  A    between atoms: C_5  and  O_6
REMARK    4  A    between atoms: O_6  and  C_7
REMARK    5  A    between atoms: C_8  and  C_9
REMARK    6  A    between atoms: C_9  and  O_11
REMARK    7  A    between atoms: O_11  and  C_12
REMARK    8  A    between atoms: C_12  and  C_13
REMARK    9  A    between atoms: N_15  and  C_16
REMARK   10  A    between atoms: C_24  and  O_25
REMARK   11  A    between atoms: O_25  and  C_26
REMARK                            x       y       z     vdW  Elec       q    Type
REMARK                         _______ _______ _______ _____ _____    ______ ____
ROOT
ATOM      1  C   UNL     1       5.776   5.803  18.765  0.00  0.00    +0.000 C 
ATOM      2  O   UNL     1       6.438   5.527  19.754  0.00  0.00    +0.000 OA
ENDROOT
BRANCH   1   6
ATOM      3  C   UNL     1       2.024   3.797  18.064  0.00  0.00    +0.000 A 
ATOM      4  C   UNL     1       2.019   5.165  18.385  0.00  0.00    +0.000 A 
ATOM      5  C   UNL     1       3.204   5.883  18.591  0.00  0.00    +0.000 A 
ATOM      6  C   UNL     1       4.432   5.198  18.493  0.00  0.00    +0.000 A 
ATOM      7  C   UNL     1       4.429   3.827  18.214  0.00  0.00    +0.000 A 
ATOM      8  C   UNL     1       3.242   3.112  18.007  0.00  0.00    +0.000 A 
BRANCH   3  10
ATOM      9  C   UNL     1       0.418   2.257  18.891  0.00  0.00    +0.000 C 
ATOM     10  O   UNL     1       0.855   3.118  17.842  0.00  0.00    +0.000 OA
ENDBRANCH   3  10
BRANCH   5  11
ATOM     11  O   UNL     1       3.211   7.221  18.888  0.00  0.00    +0.000 OA
ATOM     12  C   UNL     1       2.757   8.135  17.896  0.00  0.00    +0.000 C 
ENDBRANCH   5  11
BRANCH   8  13
ATOM     13  O   UNL     1       3.477   1.788  17.761  0.00  0.00    +0.000 OA
ATOM     14  C   UNL     1       4.089   0.998  18.766  0.00  0.00    +0.000 C 
ENDBRANCH   8  13
ENDBRANCH   1   6
BRANCH   1  15
ATOM     15  O   UNL     1       6.082   6.761  17.874  0.00  0.00    +0.000 OA
BRANCH  15  16
ATOM     16  C   UNL     1       7.350   6.644  17.220  0.00  0.00    +0.000 C 
BRANCH  16  17
ATOM     17  C   UNL     1       7.335   5.482  16.223  0.00  0.00    +0.000 C 
ATOM     18  O   UNL     1       7.884   4.412  16.475  0.00  0.00    +0.000 OA
ATOM     19  N   UNL     1       6.646   5.772  15.055  0.00  0.00    +0.000 N 
ATOM     20  H   UNL     1       6.535   6.760  14.846  0.00  0.00    +0.000 HD
BRANCH  19  21
ATOM     21  C   UNL     1       6.509   4.882  13.972  0.00  0.00    +0.000 A 
ATOM     22  C   UNL     1       5.420   4.010  13.897  0.00  0.00    +0.000 A 
ATOM     23  C   UNL     1       5.283   3.150  12.806  0.00  0.00    +0.000 A 
ATOM     24  C   UNL     1       6.247   3.135  11.798  0.00  0.00    +0.000 A 
ATOM     25  C   UNL     1       7.337   4.003  11.865  0.00  0.00    +0.000 A 
ATOM     26  C   UNL     1       7.455   4.891  12.935  0.00  0.00    +0.000 A 
ATOM     27 CL   UNL     1       8.833   5.933  12.987  0.00  0.00    +0.000 Cl
ENDBRANCH  19  21
ENDBRANCH  16  17
ENDBRANCH  15  16
ENDBRANCH   1  15
TORSDOF 8
ENDMDL
MODEL 3
REMARK VINA RESULT:      -7.2      2.137      2.495
REMARK  Name = 
REMARK  11 active torsions:
REMARK  status: ('A' for Active; 'I' for Inactive)
REMARK    1  A    between atoms: C_1  and  O_2
REMARK    2  A    between atoms: O_2  and  C_3
REMARK    3  A    between atoms: C_5  and  O_6
REMARK    4  A    between atoms: O_6  and  C_7
REMARK    5  A    between atoms: C_8  and  C_9
REMARK    6  A    between atoms: C_9  and  O_11
REMARK    7  A    between atoms: O_11  and  C_12
REMARK    8  A    between atoms: C_12  and  C_13
REMARK    9  A    between atoms: N_15  and  C_16
REMARK   10  A    between atoms: C_24  and  O_25
REMARK   11  A    between atoms: O_25  and  C_26
REMARK                            x       y       z     vdW  Elec       q    Type
REMARK                         _______ _______ _______ _____ _____    ______ ____
ROOT
ATOM      1  C   UNL     1       2.389   7.482  18.560  0.00  0.00    +0.000 C 
ATOM      2  O   UNL     1       2.195   7.483  19.766  0.00  0.00    +0.000 OA
ENDROOT
BRANCH   1   6
ATOM      3  C   UNL     1       5.197   4.798  16.686  0.00  0.00    +0.000 A 
ATOM      4  C   UNL     1       3.980   4.287  17.169  0.00  0.00    +0.000 A 
ATOM      5  C   UNL     1       3.011   5.110  17.757  0.00  0.00    +0.000 A 
ATOM      6  C   UNL     1       3.284   6.488  17.883  0.00  0.00    +0.000 A 
ATOM      7  C   UNL     1       4.514   6.984  17.437  0.00  0.00    +0.000 A 
ATOM      8  C   UNL     1       5.480   6.158  16.848  0.00  0.00    +0.000 A 
BRANCH   3  10
ATOM      9  C   UNL     1       6.178   4.025  14.668  0.00  0.00    +0.000 C 
ATOM     10  O   UNL     1       6.121   3.981  16.091  0.00  0.00    +0.000 OA
ENDBRANCH   3  10
BRANCH   5  11
ATOM     11  O   UNL     1       1.814   4.625  18.217  0.00  0.00    +0.000 OA
ATOM     12  C   UNL     1       1.657   3.215  18.328  0.00  0.00    +0.000 C 
ENDBRANCH   5  11
BRANCH   8  13
ATOM     13  O   UNL     1       6.605   6.853  16.501  0.00  0.00    +0.000 OA
ATOM     14  C   UNL     1       7.581   7.126  17.492  0.00  0.00    +0.000 C 
ENDBRANCH   8  13
ENDBRANCH   1   6
BRANCH   1  15
ATOM     15  O   UNL     1       1.743   8.257  17.673  0.00  0.00    +0.000 OA
BRANCH  15  16
ATOM     16  C   UNL     1       1.839   9.672  17.872  0.00  0.00    +0.000 C 
BRANCH  16  17
ATOM     17  C   UNL     1       0.709  10.164  18.781  0.00  0.00    +0.000 C 
ATOM     18  O   UNL     1      -0.455  10.208  18.392  0.00  0.00    +0.000 OA
ATOM     19  N   UNL     1       1.145  10.527  20.047  0.00  0.00    +0.000 N 
ATOM     20  H   UNL     1       2.133  10.750  20.123  0.00  0.00    +0.000 HD
BRANCH  19  21
ATOM     21  C   UNL     1       0.307  11.035  21.059  0.00  0.00    +0.000 A 
ATOM     22  C   UNL     1      -0.267  10.183  22.006  0.00  0.00    +0.000 A 
ATOM     23  C   UNL     1      -1.076  10.703  23.018  0.00  0.00    +0.000 A 
ATOM     24  C   UNL     1      -1.339  12.071  23.075  0.00  0.00    +0.000 A 
ATOM     25  C   UNL     1      -0.769  12.928  22.133  0.00  0.00    +0.000 A 
ATOM     26  C   UNL     1       0.072  12.416  21.144  0.00  0.00    +0.000 A 
ATOM     27 CL   UNL     1       0.738  13.513  19.986  0.00  0.00    +0.000 Cl
ENDBRANCH  19  21
ENDBRANCH  16  17
ENDBRANCH  15  16
ENDBRANCH   1  15
TORSDOF 8
ENDMDL
MODEL 4
REMARK VINA RESULT:      -7.0      5.511      8.175
REMARK  Name = 
REMARK  11 active torsions:
REMARK  status: ('A' for Active; 'I' for Inactive)
REMARK    1  A    between atoms: C_1  and  O_2
REMARK    2  A    between atoms: O_2  and  C_3
REMARK    3  A    between atoms: C_5  and  O_6
REMARK    4  A    between atoms: O_6  and  C_7
REMARK    5  A    between atoms: C_8  and  C_9
REMARK    6  A    between atoms: C_9  and  O_11
REMARK    7  A    between atoms: O_11  and  C_12
REMARK    8  A    between atoms: C_12  and  C_13
REMARK    9  A    between atoms: N_15  and  C_16
REMARK   10  A    between atoms: C_24  and  O_25
REMARK   11  A    between atoms: O_25  and  C_26
REMARK                            x       y       z     vdW  Elec       q    Type
REMARK                         _______ _______ _______ _____ _____    ______ ____
ROOT
ATOM      1  C   UNL     1       7.180   5.354  18.144  0.00  0.00    +0.000 C 
ATOM      2  O   UNL     1       8.066   4.600  18.518  0.00  0.00    +0.000 OA
ENDROOT
BRANCH   1   6
ATOM      3  C   UNL     1       3.004   4.327  17.827  0.00  0.00    +0.000 A 
ATOM      4  C   UNL     1       3.887   3.923  16.812  0.00  0.00    +0.000 A 
ATOM      5  C   UNL     1       5.260   4.194  16.871  0.00  0.00    +0.000 A 
ATOM      6  C   UNL     1       5.757   4.915  17.976  0.00  0.00    +0.000 A 
ATOM      7  C   UNL     1       4.867   5.350  18.964  0.00  0.00    +0.000 A 
ATOM      8  C   UNL     1       3.494   5.076  18.902  0.00  0.00    +0.000 A 
BRANCH   3  10
ATOM      9  C   UNL     1       1.269   2.796  18.354  0.00  0.00    +0.000 C 
ATOM     10  O   UNL     1       1.668   4.030  17.763  0.00  0.00    +0.000 OA
ENDBRANCH   3  10
BRANCH   5  11
ATOM     11  O   UNL     1       6.132   3.790  15.894  0.00  0.00    +0.000 OA
ATOM     12  C   UNL     1       5.822   4.106  14.541  0.00  0.00    +0.000 C 
ENDBRANCH   5  11
BRANCH   8  13
ATOM     13  O   UNL     1       2.818   5.606  19.965  0.00  0.00    +0.000 OA
ATOM     14  C   UNL     1       2.412   4.752  21.020  0.00  0.00    +0.000 C 
ENDBRANCH   8  13
ENDBRANCH   1   6
BRANCH   1  15
ATOM     15  O   UNL     1       7.318   6.678  17.967  0.00  0.00    +0.000 OA
BRANCH  15  16
ATOM     16  C   UNL     1       8.304   7.332  18.774  0.00  0.00    +0.000 C 
BRANCH  16  17
ATOM     17  C   UNL     1       8.377   8.822  18.431  0.00  0.00    +0.000 C 
ATOM     18  O   UNL     1       7.644   9.322  17.582  0.00  0.00    +0.000 OA
ATOM     19  N   UNL     1       9.325   9.509  19.175  0.00  0.00    +0.000 N 
ATOM     20  H   UNL     1      10.059   8.938  19.582  0.00  0.00    +0.000 HD
BRANCH  19  21
ATOM     21  C   UNL     1       9.605  10.882  19.031  0.00  0.00    +0.000 A 
ATOM     22  C   UNL     1      10.092  11.389  17.824  0.00  0.00    +0.000 A 
ATOM     23  C   UNL     1      10.342  12.756  17.687  0.00  0.00    +0.000 A 
ATOM     24  C   UNL     1      10.135  13.619  18.762  0.00  0.00    +0.000 A 
ATOM     25  C   UNL     1       9.649  13.121  19.971  0.00  0.00    +0.000 A 
ATOM     26  C   UNL     1       9.361  11.761  20.098  0.00  0.00    +0.000 A 
ATOM     27 CL   UNL     1       8.781  11.184  21.621  0.00  0.00    +0.000 Cl
ENDBRANCH  19  21
ENDBRANCH  16  17
ENDBRANCH  15  16
ENDBRANCH   1  15
TORSDOF 8
ENDMDL
MODEL 5
REMARK VINA RESULT:      -6.9      3.247      4.217
REMARK  Name = 
REMARK  11 active torsions:
REMARK  status: ('A' for Active; 'I' for Inactive)
REMARK    1  A    between atoms: C_1  and  O_2
REMARK    2  A    between atoms: O_2  and  C_3
REMARK    3  A    between atoms: C_5  and  O_6
REMARK    4  A    between atoms: O_6  and  C_7
REMARK    5  A    between atoms: C_8  and  C_9
REMARK    6  A    between atoms: C_9  and  O_11
REMARK    7  A    between atoms: O_11  and  C_12
REMARK    8  A    between atoms: C_12  and  C_13
REMARK    9  A    between atoms: N_15  and  C_16
REMARK   10  A    between atoms: C_24  and  O_25
REMARK   11  A    between atoms: O_25  and  C_26
REMARK                            x       y       z     vdW  Elec       q    Type
REMARK                         _______ _______ _______ _____ _____    ______ ____
ROOT
ATOM      1  C   UNL     1       4.649   3.442  19.957  0.00  0.00    +0.000 C 
ATOM      2  O   UNL     1       4.929   2.286  20.237  0.00  0.00    +0.000 OA
ENDROOT
BRANCH   1   6
ATOM      3  C   UNL     1       5.688   5.139  16.131  0.00  0.00    +0.000 A 
ATOM      4  C   UNL     1       4.488   4.418  16.257  0.00  0.00    +0.000 A 
ATOM      5  C   UNL     1       4.076   3.870  17.479  0.00  0.00    +0.000 A 
ATOM      6  C   UNL     1       4.908   4.035  18.605  0.00  0.00    +0.000 A 
ATOM      7  C   UNL     1       6.121   4.718  18.464  0.00  0.00    +0.000 A 
ATOM      8  C   UNL     1       6.529   5.266  17.241  0.00  0.00    +0.000 A 
BRANCH   3  10
ATOM      9  C   UNL     1       6.846   4.858  14.078  0.00  0.00    +0.000 C 
ATOM     10  O   UNL     1       6.061   5.687  14.933  0.00  0.00    +0.000 OA
ENDBRANCH   3  10
BRANCH   5  11
ATOM     11  O   UNL     1       2.900   3.180  17.616  0.00  0.00    +0.000 OA
ATOM     12  C   UNL     1       2.950   1.757  17.611  0.00  0.00    +0.000 C 
ENDBRANCH   5  11
BRANCH   8  13
ATOM     13  O   UNL     1       7.749   5.876  17.334  0.00  0.00    +0.000 OA
ATOM     14  C   UNL     1       7.833   7.161  17.927  0.00  0.00    +0.000 C 
ENDBRANCH   8  13
ENDBRANCH   1   6
BRANCH   1  15
ATOM     15  O   UNL     1       3.964   4.284  20.748  0.00  0.00    +0.000 OA
BRANCH  15  16
ATOM     16  C   UNL     1       2.587   3.966  20.979  0.00  0.00    +0.000 C 
BRANCH  16  17
ATOM     17  C   UNL     1       1.692   5.148  20.596  0.00  0.00    +0.000 C 
ATOM     18  O   UNL     1       0.498   4.995  20.350  0.00  0.00    +0.000 OA
ATOM     19  N   UNL     1       2.365   6.360  20.572  0.00  0.00    +0.000 N 
ATOM     20  H   UNL     1       3.374   6.298  20.471  0.00  0.00    +0.000 HD
BRANCH  19  21
ATOM     21  C   UNL     1       1.774   7.590  20.225  0.00  0.00    +0.000 A 
ATOM     22  C   UNL     1       0.947   8.265  21.127  0.00  0.00    +0.000 A 
ATOM     23  C   UNL     1       0.386   9.495  20.780  0.00  0.00    +0.000 A 
ATOM     24  C   UNL     1       0.624  10.045  19.521  0.00  0.00    +0.000 A 
ATOM     25  C   UNL     1       1.448   9.378  18.614  0.00  0.00    +0.000 A 
ATOM     26  C   UNL     1       2.042   8.167  18.974  0.00  0.00    +0.000 A 
ATOM     27 CL   UNL     1       3.038   7.365  17.811  0.00  0.00    +0.000 Cl
ENDBRANCH  19  21
ENDBRANCH  16  17
ENDBRANCH  15  16
ENDBRANCH   1  15
TORSDOF 8
ENDMDL
MODEL 6
REMARK VINA RESULT:      -6.9      4.767      8.484
REMARK  Name = 
REMARK  11 active torsions:
REMARK  status: ('A' for Active; 'I' for Inactive)
REMARK    1  A    between atoms: C_1  and  O_2
REMARK    2  A    between atoms: O_2  and  C_3
REMARK    3  A    between atoms: C_5  and  O_6
REMARK    4  A    between atoms: O_6  and  C_7
REMARK    5  A    between atoms: C_8  and  C_9
REMARK    6  A    between atoms: C_9  and  O_11
REMARK    7  A    between atoms: O_11  and  C_12
REMARK    8  A    between atoms: C_12  and  C_13
REMARK    9  A    between atoms: N_15  and  C_16
REMARK   10  A    between atoms: C_24  and  O_25
REMARK   11  A    between atoms: O_25  and  C_26
REMARK                            x       y       z     vdW  Elec       q    Type
REMARK                         _______ _______ _______ _____ _____    ______ ____
ROOT
ATOM      1  C   UNL     1       6.920   6.863  16.787  0.00  0.00    +0.000 C 
ATOM      2  O   UNL     1       7.502   6.135  15.998  0.00  0.00    +0.000 OA
ENDROOT
BRANCH   1   6
ATOM      3  C   UNL     1       3.482   5.571  19.048  0.00  0.00    +0.000 A 
ATOM      4  C   UNL     1       4.729   4.974  19.298  0.00  0.00    +0.000 A 
ATOM      5  C   UNL     1       5.891   5.371  18.623  0.00  0.00    +0.000 A 
ATOM      6  C   UNL     1       5.790   6.386  17.650  0.00  0.00    +0.000 A 
ATOM      7  C   UNL     1       4.538   6.948  17.376  0.00  0.00    +0.000 A 
ATOM      8  C   UNL     1       3.379   6.550  18.054  0.00  0.00    +0.000 A 
BRANCH   3  10
ATOM      9  C   UNL     1       1.856   6.119  20.688  0.00  0.00    +0.000 C 
ATOM     10  O   UNL     1       2.362   5.186  19.736  0.00  0.00    +0.000 OA
ENDBRANCH   3  10
BRANCH   5  11
ATOM     11  O   UNL     1       7.115   4.807  18.871  0.00  0.00    +0.000 OA
ATOM     12  C   UNL     1       7.936   5.390  19.876  0.00  0.00    +0.000 C 
ENDBRANCH   5  11
BRANCH   8  13
ATOM     13  O   UNL     1       2.273   7.223  17.617  0.00  0.00    +0.000 OA
ATOM     14  C   UNL     1       2.198   8.625  17.810  0.00  0.00    +0.000 C 
ENDBRANCH   8  13
ENDBRANCH   1   6
BRANCH   1  15
ATOM     15  O   UNL     1       7.282   8.120  17.090  0.00  0.00    +0.000 OA
BRANCH  15  16
ATOM     16  C   UNL     1       8.351   8.268  18.031  0.00  0.00    +0.000 C 
BRANCH  16  17
ATOM     17  C   UNL     1       8.527   9.739  18.418  0.00  0.00    +0.000 C 
ATOM     18  O   UNL     1       7.994  10.640  17.775  0.00  0.00    +0.000 OA
ATOM     19  N   UNL     1       9.319   9.918  19.542  0.00  0.00    +0.000 N 
ATOM     20  H   UNL     1       9.941   9.147  19.766  0.00  0.00    +0.000 HD
BRANCH  19  21
ATOM     21  C   UNL     1       9.654  11.174  20.086  0.00  0.00    +0.000 A 
ATOM     22  C   UNL     1       9.037  11.635  21.251  0.00  0.00    +0.000 A 
ATOM     23  C   UNL     1       9.395  12.871  21.793  0.00  0.00    +0.000 A 
ATOM     24  C   UNL     1      10.349  13.666  21.160  0.00  0.00    +0.000 A 
ATOM     25  C   UNL     1      10.971  13.212  19.996  0.00  0.00    +0.000 A 
ATOM     26  C   UNL     1      10.643  11.960  19.474  0.00  0.00    +0.000 A 
ATOM     27 CL   UNL     1      11.422  11.448  18.018  0.00  0.00    +0.000 Cl
ENDBRANCH  19  21
ENDBRANCH  16  17
ENDBRANCH  15  16
ENDBRANCH   1  15
TORSDOF 8
ENDMDL
MODEL 7
REMARK VINA RESULT:      -6.9      1.868      2.545
REMARK  Name = 
REMARK  11 active torsions:
REMARK  status: ('A' for Active; 'I' for Inactive)
REMARK    1  A    between atoms: C_1  and  O_2
REMARK    2  A    between atoms: O_2  and  C_3
REMARK    3  A    between atoms: C_5  and  O_6
REMARK    4  A    between atoms: O_6  and  C_7
REMARK    5  A    between atoms: C_8  and  C_9
REMARK    6  A    between atoms: C_9  and  O_11
REMARK    7  A    between atoms: O_11  and  C_12
REMARK    8  A    between atoms: C_12  and  C_13
REMARK    9  A    between atoms: N_15  and  C_16
REMARK   10  A    between atoms: C_24  and  O_25
REMARK   11  A    between atoms: O_25  and  C_26
REMARK                            x       y       z     vdW  Elec       q    Type
REMARK                         _______ _______ _______ _____ _____    ______ ____
ROOT
ATOM      1  C   UNL     1       2.578   5.568  18.483  0.00  0.00    +0.000 C 
ATOM      2  O   UNL     1       2.128   4.775  19.296  0.00  0.00    +0.000 OA
ENDROOT
BRANCH   1   6
ATOM      3  C   UNL     1       6.119   4.891  16.116  0.00  0.00    +0.000 A 
ATOM      4  C   UNL     1       5.220   3.831  16.321  0.00  0.00    +0.000 A 
ATOM      5  C   UNL     1       4.034   3.993  17.050  0.00  0.00    +0.000 A 
ATOM      6  C   UNL     1       3.757   5.257  17.611  0.00  0.00    +0.000 A 
ATOM      7  C   UNL     1       4.677   6.297  17.439  0.00  0.00    +0.000 A 
ATOM      8  C   UNL     1       5.860   6.132  16.707  0.00  0.00    +0.000 A 
BRANCH   3  10
ATOM      9  C   UNL     1       7.102   4.735  13.962  0.00  0.00    +0.000 C 
ATOM     10  O   UNL     1       7.260   4.718  15.379  0.00  0.00    +0.000 OA
ENDBRANCH   3  10
BRANCH   5  11
ATOM     11  O   UNL     1       3.143   2.970  17.242  0.00  0.00    +0.000 OA
ATOM     12  C   UNL     1       3.530   1.886  18.078  0.00  0.00    +0.000 C 
ENDBRANCH   5  11
BRANCH   8  13
ATOM     13  O   UNL     1       6.609   7.275  16.680  0.00  0.00    +0.000 OA
ATOM     14  C   UNL     1       7.630   7.453  17.647  0.00  0.00    +0.000 C 
ENDBRANCH   8  13
ENDBRANCH   1   6
BRANCH   1  15
ATOM     15  O   UNL     1       2.018   6.746  18.163  0.00  0.00    +0.000 OA
BRANCH  15  16
ATOM     16  C   UNL     1       2.079   7.775  19.157  0.00  0.00    +0.000 C 
BRANCH  16  17
ATOM     17  C   UNL     1       1.714   9.132  18.549  0.00  0.00    +0.000 C 
ATOM     18  O   UNL     1       1.998   9.412  17.387  0.00  0.00    +0.000 OA
ATOM     19  N   UNL     1       1.044   9.965  19.433  0.00  0.00    +0.000 N 
ATOM     20  H   UNL     1       1.166   9.747  20.417  0.00  0.00    +0.000 HD
BRANCH  19  21
ATOM     21  C   UNL     1       0.622  11.273  19.126  0.00  0.00    +0.000 A 
ATOM     22  C   UNL     1       1.482  12.360  19.302  0.00  0.00    +0.000 A 
ATOM     23  C   UNL     1       1.060  13.650  18.972  0.00  0.00    +0.000 A 
ATOM     24  C   UNL     1      -0.231  13.865  18.491  0.00  0.00    +0.000 A 
ATOM     25  C   UNL     1      -1.096  12.784  18.313  0.00  0.00    +0.000 A 
ATOM     26  C   UNL     1      -0.663  11.490  18.605  0.00  0.00    +0.000 A 
ATOM     27 CL   UNL     1      -1.775  10.185  18.389  0.00  0.00    +0.000 Cl
ENDBRANCH  19  21
ENDBRANCH  16  17
ENDBRANCH  15  16
ENDBRANCH   1  15
TORSDOF 8
ENDMDL
MODEL 8
REMARK VINA RESULT:      -6.9      2.095      2.561
REMARK  Name = 
REMARK  11 active torsions:
REMARK  status: ('A' for Active; 'I' for Inactive)
REMARK    1  A    between atoms: C_1  and  O_2
REMARK    2  A    between atoms: O_2  and  C_3
REMARK    3  A    between atoms: C_5  and  O_6
REMARK    4  A    between atoms: O_6  and  C_7
REMARK    5  A    between atoms: C_8  and  C_9
REMARK    6  A    between atoms: C_9  and  O_11
REMARK    7  A    between atoms: O_11  and  C_12
REMARK    8  A    between atoms: C_12  and  C_13
REMARK    9  A    between atoms: N_15  and  C_16
REMARK   10  A    between atoms: C_24  and  O_25
REMARK   11  A    between atoms: O_25  and  C_26
REMARK                            x       y       z     vdW  Elec       q    Type
REMARK                         _______ _______ _______ _____ _____    ______ ____
ROOT
ATOM      1  C   UNL     1       3.550   5.818  18.986  0.00  0.00    +0.000 C 
ATOM      2  O   UNL     1       3.724   5.318  20.087  0.00  0.00    +0.000 OA
ENDROOT
BRANCH   1   6
ATOM      3  C   UNL     1       6.111   4.824  15.663  0.00  0.00    +0.000 A 
ATOM      4  C   UNL     1       4.943   4.072  15.875  0.00  0.00    +0.000 A 
ATOM      5  C   UNL     1       4.051   4.364  16.915  0.00  0.00    +0.000 A 
ATOM      6  C   UNL     1       4.356   5.433  17.783  0.00  0.00    +0.000 A 
ATOM      7  C   UNL     1       5.541   6.152  17.591  0.00  0.00    +0.000 A 
ATOM      8  C   UNL     1       6.430   5.858  16.548  0.00  0.00    +0.000 A 
BRANCH   3  10
ATOM      9  C   UNL     1       6.380   3.865  13.508  0.00  0.00    +0.000 C 
ATOM     10  O   UNL     1       6.958   4.537  14.625  0.00  0.00    +0.000 OA
ENDBRANCH   3  10
BRANCH   5  11
ATOM     11  O   UNL     1       2.901   3.648  17.122  0.00  0.00    +0.000 OA
ATOM     12  C   UNL     1       3.002   2.383  17.767  0.00  0.00    +0.000 C 
ENDBRANCH   5  11
BRANCH   8  13
ATOM     13  O   UNL     1       7.523   6.678  16.560  0.00  0.00    +0.000 OA
ATOM     14  C   UNL     1       7.625   7.676  17.562  0.00  0.00    +0.000 C 
ENDBRANCH   8  13
ENDBRANCH   1   6
BRANCH   1  15
ATOM     15  O   UNL     1       2.550   6.659  18.670  0.00  0.00    +0.000 OA
BRANCH  15  16
ATOM     16  C   UNL     1       2.889   7.765  17.825  0.00  0.00    +0.000 C 
BRANCH  16  17
ATOM     17  C   UNL     1       2.074   9.003  18.209  0.00  0.00    +0.000 C 
ATOM     18  O   UNL     1       2.180  10.058  17.588  0.00  0.00    +0.000 OA
ATOM     19  N   UNL     1       1.231   8.790  19.289  0.00  0.00    +0.000 N 
ATOM     20  H   UNL     1       1.478   8.010  19.890  0.00  0.00    +0.000 HD
BRANCH  19  21
ATOM     21  C   UNL     1       0.397   9.776  19.852  0.00  0.00    +0.000 A 
ATOM     22  C   UNL     1      -0.506  10.486  19.057  0.00  0.00    +0.000 A 
ATOM     23  C   UNL     1      -1.344  11.444  19.631  0.00  0.00    +0.000 A 
ATOM     24  C   UNL     1      -1.265  11.719  20.996  0.00  0.00    +0.000 A 
ATOM     25  C   UNL     1      -0.366  11.014  21.796  0.00  0.00    +0.000 A 
ATOM     26  C   UNL     1       0.445  10.028  21.231  0.00  0.00    +0.000 A 
ATOM     27 CL   UNL     1       1.559   9.196  22.258  0.00  0.00    +0.000 Cl
ENDBRANCH  19  21
ENDBRANCH  16  17
ENDBRANCH  15  16
ENDBRANCH   1  15
TORSDOF 8
ENDMDL
MODEL 9
REMARK VINA RESULT:      -6.8      1.732      2.166
REMARK  Name = 
REMARK  11 active torsions:
REMARK  status: ('A' for Active; 'I' for Inactive)
REMARK    1  A    between atoms: C_1  and  O_2
REMARK    2  A    between atoms: O_2  and  C_3
REMARK    3  A    between atoms: C_5  and  O_6
REMARK    4  A    between atoms: O_6  and  C_7
REMARK    5  A    between atoms: C_8  and  C_9
REMARK    6  A    between atoms: C_9  and  O_11
REMARK    7  A    between atoms: O_11  and  C_12
REMARK    8  A    between atoms: C_12  and  C_13
REMARK    9  A    between atoms: N_15  and  C_16
REMARK   10  A    between atoms: C_24  and  O_25
REMARK   11  A    between atoms: O_25  and  C_26
REMARK                            x       y       z     vdW  Elec       q    Type
REMARK                         _______ _______ _______ _____ _____    ______ ____
ROOT
ATOM      1  C   UNL     1       2.813   7.349  18.657  0.00  0.00    +0.000 C 
ATOM      2  O   UNL     1       2.176   7.036  19.651  0.00  0.00    +0.000 OA
ENDROOT
BRANCH   1   6
ATOM      3  C   UNL     1       5.390   4.663  16.480  0.00  0.00    +0.000 A 
ATOM      4  C   UNL     1       4.130   4.208  16.905  0.00  0.00    +0.000 A 
ATOM      5  C   UNL     1       3.231   5.040  17.586  0.00  0.00    +0.000 A 
ATOM      6  C   UNL     1       3.623   6.365  17.868  0.00  0.00    +0.000 A 
ATOM      7  C   UNL     1       4.895   6.799  17.479  0.00  0.00    +0.000 A 
ATOM      8  C   UNL     1       5.790   5.965  16.797  0.00  0.00    +0.000 A 
BRANCH   3  10
ATOM      9  C   UNL     1       6.196   3.930  14.372  0.00  0.00    +0.000 C 
ATOM     10  O   UNL     1       6.244   3.841  15.794  0.00  0.00    +0.000 OA
ENDBRANCH   3  10
BRANCH   5  11
ATOM     11  O   UNL     1       1.994   4.612  17.990  0.00  0.00    +0.000 OA
ATOM     12  C   UNL     1       1.875   3.294  18.515  0.00  0.00    +0.000 C 
ENDBRANCH   5  11
BRANCH   8  13
ATOM     13  O   UNL     1       6.973   6.595  16.528  0.00  0.00    +0.000 OA
ATOM     14  C   UNL     1       7.564   7.409  17.528  0.00  0.00    +0.000 C 
ENDBRANCH   8  13
ENDBRANCH   1   6
BRANCH   1  15
ATOM     15  O   UNL     1       2.772   8.553  18.062  0.00  0.00    +0.000 OA
BRANCH  15  16
ATOM     16  C   UNL     1       1.474   9.061  17.735  0.00  0.00    +0.000 C 
BRANCH  16  17
ATOM     17  C   UNL     1       1.060  10.155  18.722  0.00  0.00    +0.000 C 
ATOM     18  O   UNL     1       1.681  11.211  18.808  0.00  0.00    +0.000 OA
ATOM     19  N   UNL     1      -0.062   9.823  19.468  0.00  0.00    +0.000 N 
ATOM     20  H   UNL     1      -0.267   8.831  19.532  0.00  0.00    +0.000 HD
BRANCH  19  21
ATOM     21  C   UNL     1      -0.627  10.647  20.461  0.00  0.00    +0.000 A 
ATOM     22  C   UNL     1      -0.326  10.448  21.811  0.00  0.00    +0.000 A 
ATOM     23  C   UNL     1      -0.874  11.287  22.783  0.00  0.00    +0.000 A 
ATOM     24  C   UNL     1      -1.747  12.310  22.417  0.00  0.00    +0.000 A 
ATOM     25  C   UNL     1      -2.053  12.515  21.071  0.00  0.00    +0.000 A 
ATOM     26  C   UNL     1      -1.475  11.703  20.094  0.00  0.00    +0.000 A 
ATOM     27 CL   UNL     1      -1.900  11.980  18.442  0.00  0.00    +0.000 Cl
ENDBRANCH  19  21
ENDBRANCH  16  17
ENDBRANCH  15  16
ENDBRANCH   1  15
TORSDOF 8
ENDMDL
