MODEL 1
REMARK VINA RESULT:      -7.2      0.000      0.000
REMARK  Name = 
REMARK  4 active torsions:
REMARK  status: ('A' for Active; 'I' for Inactive)
REMARK    1  A    between atoms: C_1  and  C_2
REMARK    2  A    between atoms: C_7  and  C_8
REMARK    3  A    between atoms: N_10  and  N_11
REMARK    4  A    between atoms: C_12  and  C_14
REMARK                            x       y       z     vdW  Elec       q    Type
REMARK                         _______ _______ _______ _____ _____    ______ ____
ROOT
ATOM      1  C   UNL     1       1.964   8.785  18.375  0.00  0.00    +0.000 C 
ATOM      2  O   UNL     1       2.083   9.267  17.247  0.00  0.00    +0.000 OA
ATOM      3  N   UNL     1       2.617   7.613  18.719  0.00  0.00    +0.000 N 
ATOM      4  H   UNL     1       2.561   7.207  19.651  0.00  0.00    +0.000 HD
ENDROOT
BRANCH   1  11
ATOM      5  C   UNL     1      -1.276  13.445  22.974  0.00  0.00    +0.000 C 
ATOM      6  C   UNL     1      -1.691  12.120  22.320  0.00  0.00    +0.000 C 
ATOM      7  C   UNL     1      -1.448  10.953  23.307  0.00  0.00    +0.000 C 
ATOM      8  C   UNL     1      -0.525   9.799  22.929  0.00  0.00    +0.000 C 
ATOM      9  C   UNL     1      -0.013   9.862  21.540  0.00  0.00    +0.000 A 
ATOM     10  S   UNL     1       0.997   8.630  20.956  0.00  0.00    +0.000 S 
ATOM     11  C   UNL     1       1.154   9.384  19.428  0.00  0.00    +0.000 A 
ATOM     12  C   UNL     1       0.429  10.562  19.384  0.00  0.00    +0.000 A 
ATOM     13  C   UNL     1      -0.254  10.845  20.614  0.00  0.00    +0.000 A 
ATOM     14  C   UNL     1      -1.121  12.027  20.886  0.00  0.00    +0.000 C 
ENDBRANCH   1  11
BRANCH   3  15
ATOM     15  N   UNL     1       3.448   6.987  17.792  0.00  0.00    +0.000 N 
ATOM     16  C   UNL     1       4.243   5.945  18.224  0.00  0.00    +0.000 C 
ATOM     17  O   UNL     1       4.259   5.546  19.385  0.00  0.00    +0.000 OA
ATOM     18  H   UNL     1       3.284   7.220  16.816  0.00  0.00    +0.000 HD
BRANCH  16  19
ATOM     19  C   UNL     1       5.083   5.298  17.185  0.00  0.00    +0.000 A 
ATOM     20  C   UNL     1       4.700   4.102  16.576  0.00  0.00    +0.000 A 
ATOM     21  C   UNL     1       5.532   3.578  15.603  0.00  0.00    +0.000 A 
ATOM     22  N   UNL     1       6.687   4.158  15.216  0.00  0.00    +0.000 NA
ATOM     23  C   UNL     1       7.027   5.321  15.812  0.00  0.00    +0.000 A 
ATOM     24  C   UNL     1       6.263   5.929  16.791  0.00  0.00    +0.000 A 
ENDBRANCH  16  19
ENDBRANCH   3  15
TORSDOF 3
ENDMDL
MODEL 2
REMARK VINA RESULT:      -7.2      2.886      3.298
REMARK  Name = 
REMARK  4 active torsions:
REMARK  status: ('A' for Active; 'I' for Inactive)
REMARK    1  A    between atoms: C_1  and  C_2
REMARK    2  A    between atoms: C_7  and  C_8
REMARK    3  A    between atoms: N_10  and  N_11
REMARK    4  A    between atoms: C_12  and  C_14
REMARK                            x       y       z     vdW  Elec       q    Type
REMARK                         _______ _______ _______ _____ _____    ______ ____
ROOT
ATOM      1  C   UNL     1       1.629   8.071  19.930  0.00  0.00    +0.000 C 
ATOM      2  O   UNL     1       2.056   8.070  18.775  0.00  0.00    +0.000 OA
ATOM      3  N   UNL     1       1.794   6.967  20.750  0.00  0.00    +0.000 N 
ATOM      4  H   UNL     1       1.478   6.950  21.718  0.00  0.00    +0.000 HD
ENDROOT
BRANCH   1  11
ATOM      5  C   UNL     1      -3.231  12.354  23.308  0.00  0.00    +0.000 C 
ATOM      6  C   UNL     1      -1.698  12.331  23.220  0.00  0.00    +0.000 C 
ATOM      7  C   UNL     1      -1.224  13.330  22.137  0.00  0.00    +0.000 C 
ATOM      8  C   UNL     1      -0.390  12.851  20.954  0.00  0.00    +0.000 C 
ATOM      9  C   UNL     1      -0.007  11.421  21.022  0.00  0.00    +0.000 A 
ATOM     10  S   UNL     1       0.954  10.745  19.797  0.00  0.00    +0.000 S 
ATOM     11  C   UNL     1       0.932   9.200  20.532  0.00  0.00    +0.000 A 
ATOM     12  C   UNL     1       0.196   9.224  21.705  0.00  0.00    +0.000 A 
ATOM     13  C   UNL     1      -0.353  10.517  21.994  0.00  0.00    +0.000 A 
ATOM     14  C   UNL     1      -1.183  10.874  23.181  0.00  0.00    +0.000 C 
ENDBRANCH   1  11
BRANCH   3  15
ATOM     15  N   UNL     1       2.485   5.853  20.278  0.00  0.00    +0.000 N 
ATOM     16  C   UNL     1       1.800   4.661  20.154  0.00  0.00    +0.000 C 
ATOM     17  O   UNL     1       0.614   4.533  20.444  0.00  0.00    +0.000 OA
ATOM     18  H   UNL     1       3.405   6.032  19.885  0.00  0.00    +0.000 HD
BRANCH  16  19
ATOM     19  C   UNL     1       2.580   3.519  19.617  0.00  0.00    +0.000 A 
ATOM     20  C   UNL     1       3.615   2.933  20.349  0.00  0.00    +0.000 A 
ATOM     21  C   UNL     1       4.278   1.859  19.782  0.00  0.00    +0.000 A 
ATOM     22  N   UNL     1       3.981   1.353  18.568  0.00  0.00    +0.000 NA
ATOM     23  C   UNL     1       2.967   1.930  17.888  0.00  0.00    +0.000 A 
ATOM     24  C   UNL     1       2.239   3.003  18.367  0.00  0.00    +0.000 A 
ENDBRANCH  16  19
ENDBRANCH   3  15
TORSDOF 3
ENDMDL
MODEL 3
REMARK VINA RESULT:      -7.2      0.171      1.020
REMARK  Name = 
REMARK  4 active torsions:
REMARK  status: ('A' for Active; 'I' for Inactive)
REMARK    1  A    between atoms: C_1  and  C_2
REMARK    2  A    between atoms: C_7  and  C_8
REMARK    3  A    between atoms: N_10  and  N_11
REMARK    4  A    between atoms: C_12  and  C_14
REMARK                            x       y       z     vdW  Elec       q    Type
REMARK                         _______ _______ _______ _____ _____    ______ ____
ROOT
ATOM      1  C   UNL     1       1.905   8.866  18.378  0.00  0.00    +0.000 C 
ATOM      2  O   UNL     1       2.094   9.381  17.275  0.00  0.00    +0.000 OA
ATOM      3  N   UNL     1       2.486   7.651  18.703  0.00  0.00    +0.000 N 
ATOM      4  H   UNL     1       2.372   7.216  19.617  0.00  0.00    +0.000 HD
ENDROOT
BRANCH   1  11
ATOM      5  C   UNL     1      -1.572  13.543  22.783  0.00  0.00    +0.000 C 
ATOM      6  C   UNL     1      -1.894  12.147  22.231  0.00  0.00    +0.000 C 
ATOM      7  C   UNL     1      -1.522  11.073  23.282  0.00  0.00    +0.000 C 
ATOM      8  C   UNL     1      -0.517   9.976  22.946  0.00  0.00    +0.000 C 
ATOM      9  C   UNL     1      -0.056   9.987  21.538  0.00  0.00    +0.000 A 
ATOM     10  S   UNL     1       1.036   8.806  20.998  0.00  0.00    +0.000 S 
ATOM     11  C   UNL     1       1.081   9.465  19.419  0.00  0.00    +0.000 A 
ATOM     12  C   UNL     1       0.257  10.575  19.326  0.00  0.00    +0.000 A 
ATOM     13  C   UNL     1      -0.408  10.882  20.559  0.00  0.00    +0.000 A 
ATOM     14  C   UNL     1      -1.363  12.005  20.786  0.00  0.00    +0.000 C 
ENDBRANCH   1  11
BRANCH   3  15
ATOM     15  N   UNL     1       3.325   7.019  17.788  0.00  0.00    +0.000 N 
ATOM     16  C   UNL     1       4.166   6.026  18.248  0.00  0.00    +0.000 C 
ATOM     17  O   UNL     1       4.216   5.677  19.423  0.00  0.00    +0.000 OA
ATOM     18  H   UNL     1       3.136   7.205  16.806  0.00  0.00    +0.000 HD
BRANCH  16  19
ATOM     19  C   UNL     1       5.013   5.369  17.221  0.00  0.00    +0.000 A 
ATOM     20  C   UNL     1       6.235   5.914  16.823  0.00  0.00    +0.000 A 
ATOM     21  C   UNL     1       6.970   5.226  15.874  0.00  0.00    +0.000 A 
ATOM     22  N   UNL     1       6.571   4.065  15.317  0.00  0.00    +0.000 NA
ATOM     23  C   UNL     1       5.392   3.552  15.730  0.00  0.00    +0.000 A 
ATOM     24  C   UNL     1       4.585   4.159  16.675  0.00  0.00    +0.000 A 
ENDBRANCH  16  19
ENDBRANCH   3  15
TORSDOF 3
ENDMDL
MODEL 4
REMARK VINA RESULT:      -7.1      2.915      3.259
REMARK  Name = 
REMARK  4 active torsions:
REMARK  status: ('A' for Active; 'I' for Inactive)
REMARK    1  A    between atoms: C_1  and  C_2
REMARK    2  A    between atoms: C_7  and  C_8
REMARK    3  A    between atoms: N_10  and  N_11
REMARK    4  A    between atoms: C_12  and  C_14
REMARK                            x       y       z     vdW  Elec       q    Type
REMARK                         _______ _______ _______ _____ _____    ______ ____
ROOT
ATOM      1  C   UNL     1       1.653   8.002  19.964  0.00  0.00    +0.000 C 
ATOM      2  O   UNL     1       2.109   7.991  18.820  0.00  0.00    +0.000 OA
ATOM      3  N   UNL     1       1.790   6.903  20.795  0.00  0.00    +0.000 N 
ATOM      4  H   UNL     1       1.449   6.893  21.755  0.00  0.00    +0.000 HD
ENDROOT
BRANCH   1  11
ATOM      5  C   UNL     1      -3.192  12.305  23.339  0.00  0.00    +0.000 C 
ATOM      6  C   UNL     1      -1.664  12.322  23.188  0.00  0.00    +0.000 C 
ATOM      7  C   UNL     1      -1.264  13.280  22.039  0.00  0.00    +0.000 C 
ATOM      8  C   UNL     1      -0.465  12.767  20.846  0.00  0.00    +0.000 C 
ATOM      9  C   UNL     1      -0.037  11.354  20.965  0.00  0.00    +0.000 A 
ATOM     10  S   UNL     1       0.893  10.647  19.734  0.00  0.00    +0.000 S 
ATOM     11  C   UNL     1       0.947   9.139  20.542  0.00  0.00    +0.000 A 
ATOM     12  C   UNL     1       0.259   9.199  21.742  0.00  0.00    +0.000 A 
ATOM     13  C   UNL     1      -0.316  10.489  21.993  0.00  0.00    +0.000 A 
ATOM     14  C   UNL     1      -1.107  10.880  23.195  0.00  0.00    +0.000 C 
ENDBRANCH   1  11
BRANCH   3  15
ATOM     15  N   UNL     1       2.485   5.781  20.348  0.00  0.00    +0.000 N 
ATOM     16  C   UNL     1       1.786   4.605  20.169  0.00  0.00    +0.000 C 
ATOM     17  O   UNL     1       0.584   4.495  20.390  0.00  0.00    +0.000 OA
ATOM     18  H   UNL     1       3.430   5.947  20.010  0.00  0.00    +0.000 HD
BRANCH  16  19
ATOM     19  C   UNL     1       2.575   3.454  19.662  0.00  0.00    +0.000 A 
ATOM     20  C   UNL     1       2.296   2.864  18.428  0.00  0.00    +0.000 A 
ATOM     21  C   UNL     1       3.093   1.808  18.022  0.00  0.00    +0.000 A 
ATOM     22  N   UNL     1       4.118   1.322  18.752  0.00  0.00    +0.000 NA
ATOM     23  C   UNL     1       4.375   1.921  19.934  0.00  0.00    +0.000 A 
ATOM     24  C   UNL     1       3.642   2.984  20.428  0.00  0.00    +0.000 A 
ENDBRANCH  16  19
ENDBRANCH   3  15
TORSDOF 3
ENDMDL
MODEL 5
REMARK VINA RESULT:      -7.1      5.623      8.117
REMARK  Name = 
REMARK  4 active torsions:
REMARK  status: ('A' for Active; 'I' for Inactive)
REMARK    1  A    between atoms: C_1  and  C_2
REMARK    2  A    between atoms: C_7  and  C_8
REMARK    3  A    between atoms: N_10  and  N_11
REMARK    4  A    between atoms: C_12  and  C_14
REMARK                            x       y       z     vdW  Elec       q    Type
REMARK                         _______ _______ _______ _____ _____    ______ ____
ROOT
ATOM      1  C   UNL     1       7.478   7.579  17.412  0.00  0.00    +0.000 C 
ATOM      2  O   UNL     1       8.278   7.375  16.499  0.00  0.00    +0.000 OA
ATOM      3  N   UNL     1       7.528   8.747  18.154  0.00  0.00    +0.000 N 
ATOM      4  H   UNL     1       6.861   8.956  18.895  0.00  0.00    +0.000 HD
ENDROOT
BRANCH   1  11
ATOM      5  C   UNL     1       1.289   4.544  19.833  0.00  0.00    +0.000 C 
ATOM      6  C   UNL     1       2.295   4.194  18.728  0.00  0.00    +0.000 C 
ATOM      7  C   UNL     1       3.293   3.131  19.249  0.00  0.00    +0.000 C 
ATOM      8  C   UNL     1       4.791   3.416  19.262  0.00  0.00    +0.000 C 
ATOM      9  C   UNL     1       5.168   4.708  18.641  0.00  0.00    +0.000 A 
ATOM     10  S   UNL     1       6.802   5.153  18.545  0.00  0.00    +0.000 S 
ATOM     11  C   UNL     1       6.427   6.642  17.790  0.00  0.00    +0.000 A 
ATOM     12  C   UNL     1       5.060   6.775  17.617  0.00  0.00    +0.000 A 
ATOM     13  C   UNL     1       4.321   5.649  18.112  0.00  0.00    +0.000 A 
ATOM     14  C   UNL     1       2.840   5.481  18.069  0.00  0.00    +0.000 C 
ENDBRANCH   1  11
BRANCH   3  15
ATOM     15  N   UNL     1       8.471   9.724  17.842  0.00  0.00    +0.000 N 
ATOM     16  C   UNL     1       9.155  10.329  18.877  0.00  0.00    +0.000 C 
ATOM     17  O   UNL     1       8.969  10.054  20.059  0.00  0.00    +0.000 OA
ATOM     18  H   UNL     1       8.725   9.802  16.860  0.00  0.00    +0.000 HD
BRANCH  16  19
ATOM     19  C   UNL     1      10.168  11.338  18.480  0.00  0.00    +0.000 A 
ATOM     20  C   UNL     1       9.943  12.224  17.425  0.00  0.00    +0.000 A 
ATOM     21  C   UNL     1      10.932  13.147  17.134  0.00  0.00    +0.000 A 
ATOM     22  N   UNL     1      12.095  13.233  17.812  0.00  0.00    +0.000 NA
ATOM     23  C   UNL     1      12.281  12.374  18.836  0.00  0.00    +0.000 A 
ATOM     24  C   UNL     1      11.354  11.419  19.210  0.00  0.00    +0.000 A 
ENDBRANCH  16  19
ENDBRANCH   3  15
TORSDOF 3
ENDMDL
MODEL 6
REMARK VINA RESULT:      -7.1      2.524      9.175
REMARK  Name = 
REMARK  4 active torsions:
REMARK  status: ('A' for Active; 'I' for Inactive)
REMARK    1  A    between atoms: C_1  and  C_2
REMARK    2  A    between atoms: C_7  and  C_8
REMARK    3  A    between atoms: N_10  and  N_11
REMARK    4  A    between atoms: C_12  and  C_14
REMARK                            x       y       z     vdW  Elec       q    Type
REMARK                         _______ _______ _______ _____ _____    ______ ____
ROOT
ATOM      1  C   UNL     1       2.167   7.082  19.797  0.00  0.00    +0.000 C 
ATOM      2  O   UNL     1       1.635   6.451  20.711  0.00  0.00    +0.000 OA
ATOM      3  N   UNL     1       1.791   8.386  19.520  0.00  0.00    +0.000 N 
ATOM      4  H   UNL     1       2.233   8.942  18.790  0.00  0.00    +0.000 HD
ENDROOT
BRANCH   1  11
ATOM      5  C   UNL     1       5.987   4.427  14.164  0.00  0.00    +0.000 C 
ATOM      6  C   UNL     1       6.336   5.286  15.387  0.00  0.00    +0.000 C 
ATOM      7  C   UNL     1       6.919   4.388  16.505  0.00  0.00    +0.000 C 
ATOM      8  C   UNL     1       6.253   4.328  17.876  0.00  0.00    +0.000 C 
ATOM      9  C   UNL     1       5.119   5.267  18.041  0.00  0.00    +0.000 A 
ATOM     10  S   UNL     1       4.297   5.347  19.524  0.00  0.00    +0.000 S 
ATOM     11  C   UNL     1       3.215   6.538  18.943  0.00  0.00    +0.000 A 
ATOM     12  C   UNL     1       3.501   6.862  17.627  0.00  0.00    +0.000 A 
ATOM     13  C   UNL     1       4.610   6.123  17.097  0.00  0.00    +0.000 A 
ATOM     14  C   UNL     1       5.170   6.246  15.720  0.00  0.00    +0.000 C 
ENDBRANCH   1  11
BRANCH   3  15
ATOM     15  N   UNL     1       0.825   9.008  20.308  0.00  0.00    +0.000 N 
ATOM     16  C   UNL     1       0.651  10.371  20.177  0.00  0.00    +0.000 C 
ATOM     17  O   UNL     1       1.308  11.063  19.405  0.00  0.00    +0.000 OA
ATOM     18  H   UNL     1       0.185   8.390  20.801  0.00  0.00    +0.000 HD
BRANCH  16  19
ATOM     19  C   UNL     1      -0.413  10.971  21.020  0.00  0.00    +0.000 A 
ATOM     20  C   UNL     1      -0.507  10.694  22.385  0.00  0.00    +0.000 A 
ATOM     21  C   UNL     1      -1.518  11.312  23.101  0.00  0.00    +0.000 A 
ATOM     22  N   UNL     1      -2.411  12.161  22.552  0.00  0.00    +0.000 NA
ATOM     23  C   UNL     1      -2.288  12.422  21.233  0.00  0.00    +0.000 A 
ATOM     24  C   UNL     1      -1.312  11.860  20.431  0.00  0.00    +0.000 A 
ENDBRANCH  16  19
ENDBRANCH   3  15
TORSDOF 3
ENDMDL
MODEL 7
REMARK VINA RESULT:      -7.0      2.543      3.220
REMARK  Name = 
REMARK  4 active torsions:
REMARK  status: ('A' for Active; 'I' for Inactive)
REMARK    1  A    between atoms: C_1  and  C_2
REMARK    2  A    between atoms: C_7  and  C_8
REMARK    3  A    between atoms: N_10  and  N_11
REMARK    4  A    between atoms: C_12  and  C_14
REMARK                            x       y       z     vdW  Elec       q    Type
REMARK                         _______ _______ _______ _____ _____    ______ ____
ROOT
ATOM      1  C   UNL     1       1.591   9.588  17.959  0.00  0.00    +0.000 C 
ATOM      2  O   UNL     1       2.536  10.296  17.611  0.00  0.00    +0.000 OA
ATOM      3  N   UNL     1       1.761   8.230  18.175  0.00  0.00    +0.000 N 
ATOM      4  H   UNL     1       1.006   7.625  18.491  0.00  0.00    +0.000 HD
ENDROOT
BRANCH   1  11
ATOM      5  C   UNL     1      -5.272  11.934  17.077  0.00  0.00    +0.000 C 
ATOM      6  C   UNL     1      -4.535  11.159  18.180  0.00  0.00    +0.000 C 
ATOM      7  C   UNL     1      -4.100  12.135  19.300  0.00  0.00    +0.000 C 
ATOM      8  C   UNL     1      -2.629  12.273  19.678  0.00  0.00    +0.000 C 
ATOM      9  C   UNL     1      -1.730  11.329  18.971  0.00  0.00    +0.000 A 
ATOM     10  S   UNL     1      -0.068  11.333  19.311  0.00  0.00    +0.000 S 
ATOM     11  C   UNL     1       0.240  10.091  18.175  0.00  0.00    +0.000 A 
ATOM     12  C   UNL     1      -0.932   9.688  17.557  0.00  0.00    +0.000 A 
ATOM     13  C   UNL     1      -2.084  10.408  18.019  0.00  0.00    +0.000 A 
ATOM     14  C   UNL     1      -3.488  10.206  17.560  0.00  0.00    +0.000 C 
ENDBRANCH   1  11
BRANCH   3  15
ATOM     15  N   UNL     1       3.026   7.662  18.035  0.00  0.00    +0.000 N 
ATOM     16  C   UNL     1       3.120   6.288  17.938  0.00  0.00    +0.000 C 
ATOM     17  O   UNL     1       2.146   5.542  17.976  0.00  0.00    +0.000 OA
ATOM     18  H   UNL     1       3.785   8.307  17.832  0.00  0.00    +0.000 HD
BRANCH  16  19
ATOM     19  C   UNL     1       4.489   5.744  17.759  0.00  0.00    +0.000 A 
ATOM     20  C   UNL     1       5.341   5.538  18.846  0.00  0.00    +0.000 A 
ATOM     21  C   UNL     1       6.594   5.008  18.592  0.00  0.00    +0.000 A 
ATOM     22  N   UNL     1       7.032   4.685  17.359  0.00  0.00    +0.000 NA
ATOM     23  C   UNL     1       6.183   4.881  16.328  0.00  0.00    +0.000 A 
ATOM     24  C   UNL     1       4.910   5.400  16.475  0.00  0.00    +0.000 A 
ENDBRANCH  16  19
ENDBRANCH   3  15
TORSDOF 3
ENDMDL
MODEL 8
REMARK VINA RESULT:      -7.0      2.535      9.167
REMARK  Name = 
REMARK  4 active torsions:
REMARK  status: ('A' for Active; 'I' for Inactive)
REMARK    1  A    between atoms: C_1  and  C_2
REMARK    2  A    between atoms: C_7  and  C_8
REMARK    3  A    between atoms: N_10  and  N_11
REMARK    4  A    between atoms: C_12  and  C_14
REMARK                            x       y       z     vdW  Elec       q    Type
REMARK                         _______ _______ _______ _____ _____    ______ ____
ROOT
ATOM      1  C   UNL     1       2.117   7.137  19.794  0.00  0.00    +0.000 C 
ATOM      2  O   UNL     1       1.590   6.525  20.724  0.00  0.00    +0.000 OA
ATOM      3  N   UNL     1       1.729   8.431  19.485  0.00  0.00    +0.000 N 
ATOM      4  H   UNL     1       2.167   8.972  18.741  0.00  0.00    +0.000 HD
ENDROOT
BRANCH   1  11
ATOM      5  C   UNL     1       5.998   4.483  14.202  0.00  0.00    +0.000 C 
ATOM      6  C   UNL     1       6.340   5.313  15.448  0.00  0.00    +0.000 C 
ATOM      7  C   UNL     1       6.875   4.381  16.563  0.00  0.00    +0.000 C 
ATOM      8  C   UNL     1       6.176   4.314  17.917  0.00  0.00    +0.000 C 
ATOM      9  C   UNL     1       5.062   5.279  18.073  0.00  0.00    +0.000 A 
ATOM     10  S   UNL     1       4.209   5.354  19.538  0.00  0.00    +0.000 S 
ATOM     11  C   UNL     1       3.171   6.582  18.954  0.00  0.00    +0.000 A 
ATOM     12  C   UNL     1       3.494   6.921  17.651  0.00  0.00    +0.000 A 
ATOM     13  C   UNL     1       4.597   6.164  17.133  0.00  0.00    +0.000 A 
ATOM     14  C   UNL     1       5.191   6.295  15.772  0.00  0.00    +0.000 C 
ENDBRANCH   1  11
BRANCH   3  15
ATOM     15  N   UNL     1       0.757   9.064  20.256  0.00  0.00    +0.000 N 
ATOM     16  C   UNL     1       0.663  10.439  20.193  0.00  0.00    +0.000 C 
ATOM     17  O   UNL     1       1.397  11.133  19.495  0.00  0.00    +0.000 OA
ATOM     18  H   UNL     1       0.060   8.458  20.682  0.00  0.00    +0.000 HD
BRANCH  16  19
ATOM     19  C   UNL     1      -0.411  11.053  21.013  0.00  0.00    +0.000 A 
ATOM     20  C   UNL     1      -1.362  11.906  20.451  0.00  0.00    +0.000 A 
ATOM     21  C   UNL     1      -2.341  12.419  21.283  0.00  0.00    +0.000 A 
ATOM     22  N   UNL     1      -2.423  12.142  22.600  0.00  0.00    +0.000 NA
ATOM     23  C   UNL     1      -1.498  11.303  23.115  0.00  0.00    +0.000 A 
ATOM     24  C   UNL     1      -0.483  10.734  22.368  0.00  0.00    +0.000 A 
ENDBRANCH  16  19
ENDBRANCH   3  15
TORSDOF 3
ENDMDL
MODEL 9
REMARK VINA RESULT:      -7.0      2.634      3.347
REMARK  Name = 
REMARK  4 active torsions:
REMARK  status: ('A' for Active; 'I' for Inactive)
REMARK    1  A    between atoms: C_1  and  C_2
REMARK    2  A    between atoms: C_7  and  C_8
REMARK    3  A    between atoms: N_10  and  N_11
REMARK    4  A    between atoms: C_12  and  C_14
REMARK                            x       y       z     vdW  Elec       q    Type
REMARK                         _______ _______ _______ _____ _____    ______ ____
ROOT
ATOM      1  C   UNL     1       1.440   9.900  18.051  0.00  0.00    +0.000 C 
ATOM      2  O   UNL     1       2.416  10.651  18.054  0.00  0.00    +0.000 OA
ATOM      3  N   UNL     1       1.591   8.539  17.842  0.00  0.00    +0.000 N 
ATOM      4  H   UNL     1       0.807   7.890  17.863  0.00  0.00    +0.000 HD
ENDROOT
BRANCH   1  11
ATOM      5  C   UNL     1      -5.499  11.999  17.151  0.00  0.00    +0.000 C 
ATOM      6  C   UNL     1      -4.740  11.247  18.253  0.00  0.00    +0.000 C 
ATOM      7  C   UNL     1      -4.345  12.233  19.379  0.00  0.00    +0.000 C 
ATOM      8  C   UNL     1      -2.881  12.422  19.764  0.00  0.00    +0.000 C 
ATOM      9  C   UNL     1      -1.946  11.515  19.057  0.00  0.00    +0.000 A 
ATOM     10  S   UNL     1      -0.286  11.578  19.403  0.00  0.00    +0.000 S 
ATOM     11  C   UNL     1       0.071  10.353  18.263  0.00  0.00    +0.000 A 
ATOM     12  C   UNL     1      -1.082   9.910  17.638  0.00  0.00    +0.000 A 
ATOM     13  C   UNL     1      -2.262  10.586  18.099  0.00  0.00    +0.000 A 
ATOM     14  C   UNL     1      -3.656  10.335  17.633  0.00  0.00    +0.000 C 
ENDBRANCH   1  11
BRANCH   3  15
ATOM     15  N   UNL     1       2.866   8.003  17.670  0.00  0.00    +0.000 N 
ATOM     16  C   UNL     1       3.127   6.753  18.193  0.00  0.00    +0.000 C 
ATOM     17  O   UNL     1       2.295   6.093  18.807  0.00  0.00    +0.000 OA
ATOM     18  H   UNL     1       3.471   8.491  17.015  0.00  0.00    +0.000 HD
BRANCH  16  19
ATOM     19  C   UNL     1       4.492   6.223  17.952  0.00  0.00    +0.000 A 
ATOM     20  C   UNL     1       5.225   6.580  16.818  0.00  0.00    +0.000 A 
ATOM     21  C   UNL     1       6.497   6.056  16.680  0.00  0.00    +0.000 A 
ATOM     22  N   UNL     1       7.063   5.223  17.577  0.00  0.00    +0.000 NA
ATOM     23  C   UNL     1       6.339   4.905  18.671  0.00  0.00    +0.000 A 
ATOM     24  C   UNL     1       5.061   5.379  18.905  0.00  0.00    +0.000 A 
ENDBRANCH  16  19
ENDBRANCH   3  15
TORSDOF 3
ENDMDL
