MODEL 1
REMARK VINA RESULT:      -7.7      0.000      0.000
REMARK  Name = 
REMARK  6 active torsions:
REMARK  status: ('A' for Active; 'I' for Inactive)
REMARK    1  A    between atoms: C_1  and  O_2
REMARK    2  A    between atoms: O_2  and  C_3
REMARK    3  A    between atoms: C_6  and  C_7
REMARK    4  A    between atoms: C_7  and  C_8
REMARK    5  A    between atoms: C_10  and  C_11
REMARK    6  A    between atoms: C_20  and  O_21
REMARK                            x       y       z     vdW  Elec       q    Type
REMARK                         _______ _______ _______ _____ _____    ______ ____
ROOT
ATOM      1  C   UNL     1       3.642   4.301  19.752  0.00  0.00    +0.000 A 
ATOM      2  C   UNL     1       3.403   5.628  19.387  0.00  0.00    +0.000 A 
ATOM      3  C   UNL     1       2.257   6.286  19.834  0.00  0.00    +0.000 A 
ATOM      4  N   UNL     1       1.378   5.647  20.643  0.00  0.00    +0.000 NA
ATOM      5  N   UNL     1       1.605   4.351  21.025  0.00  0.00    +0.000 NA
ATOM      6  C   UNL     1       2.709   3.718  20.585  0.00  0.00    +0.000 A 
ENDROOT
BRANCH   3   7
ATOM      7  C   UNL     1       1.971   7.694  19.500  0.00  0.00    +0.000 A 
ATOM      8  C   UNL     1       1.320   8.551  20.413  0.00  0.00    +0.000 A 
ATOM      9  C   UNL     1       0.937   9.844  20.052  0.00  0.00    +0.000 A 
ATOM     10  C   UNL     1       1.221  10.308  18.777  0.00  0.00    +0.000 A 
ATOM     11  F   UNL     1       0.820  11.533  18.416  0.00  0.00    +0.000 F 
ATOM     12  C   UNL     1       1.914   9.516  17.870  0.00  0.00    +0.000 A 
ATOM     13  C   UNL     1       2.294   8.219  18.235  0.00  0.00    +0.000 A 
ENDBRANCH   3   7
BRANCH   6  14
ATOM     14  O   UNL     1       2.835   2.435  21.009  0.00  0.00    +0.000 OA
ATOM     15  H   UNL     1       3.672   2.485  21.507  0.00  0.00    +0.000 HD
ENDBRANCH   6  14
BRANCH   1  16
ATOM     16  C   UNL     1       4.849   3.572  19.236  0.00  0.00    +0.000 C 
BRANCH  16  20
ATOM     17  C   UNL     1       6.734   5.096  15.654  0.00  0.00    +0.000 A 
ATOM     18  C   UNL     1       7.312   5.310  16.904  0.00  0.00    +0.000 A 
ATOM     19  C   UNL     1       6.690   4.840  18.064  0.00  0.00    +0.000 A 
ATOM     20  C   UNL     1       5.472   4.154  17.988  0.00  0.00    +0.000 A 
ATOM     21  C   UNL     1       4.868   3.993  16.732  0.00  0.00    +0.000 A 
ATOM     22  C   UNL     1       5.497   4.458  15.570  0.00  0.00    +0.000 A 
BRANCH  17  24
ATOM     23  C   UNL     1       7.328   4.839  13.381  0.00  0.00    +0.000 C 
ATOM     24  O   UNL     1       7.447   5.580  14.590  0.00  0.00    +0.000 OA
ENDBRANCH  17  24
ENDBRANCH  16  20
ENDBRANCH   1  16
TORSDOF 5
ENDMDL
MODEL 2
REMARK VINA RESULT:      -7.7      4.502      8.030
REMARK  Name = 
REMARK  6 active torsions:
REMARK  status: ('A' for Active; 'I' for Inactive)
REMARK    1  A    between atoms: C_1  and  O_2
REMARK    2  A    between atoms: O_2  and  C_3
REMARK    3  A    between atoms: C_6  and  C_7
REMARK    4  A    between atoms: C_7  and  C_8
REMARK    5  A    between atoms: C_10  and  C_11
REMARK    6  A    between atoms: C_20  and  O_21
REMARK                            x       y       z     vdW  Elec       q    Type
REMARK                         _______ _______ _______ _____ _____    ______ ____
ROOT
ATOM      1  C   UNL     1       5.300   6.034  16.354  0.00  0.00    +0.000 A 
ATOM      2  C   UNL     1       5.199   5.216  15.226  0.00  0.00    +0.000 A 
ATOM      3  C   UNL     1       6.333   4.904  14.477  0.00  0.00    +0.000 A 
ATOM      4  N   UNL     1       7.546   5.378  14.852  0.00  0.00    +0.000 NA
ATOM      5  N   UNL     1       7.668   6.168  15.964  0.00  0.00    +0.000 NA
ATOM      6  C   UNL     1       6.569   6.472  16.680  0.00  0.00    +0.000 A 
ENDROOT
BRANCH   3   7
ATOM      7  C   UNL     1       6.285   4.023  13.295  0.00  0.00    +0.000 A 
ATOM      8  C   UNL     1       5.075   3.447  12.854  0.00  0.00    +0.000 A 
ATOM      9  C   UNL     1       5.048   2.515  11.813  0.00  0.00    +0.000 A 
ATOM     10  C   UNL     1       6.233   2.163  11.184  0.00  0.00    +0.000 A 
ATOM     11  F   UNL     1       6.215   1.241  10.214  0.00  0.00    +0.000 F 
ATOM     12  C   UNL     1       7.436   2.753  11.551  0.00  0.00    +0.000 A 
ATOM     13  C   UNL     1       7.458   3.684  12.595  0.00  0.00    +0.000 A 
ENDBRANCH   3   7
BRANCH   6  14
ATOM     14  O   UNL     1       6.793   7.269  17.755  0.00  0.00    +0.000 OA
ATOM     15  H   UNL     1       6.686   8.153  17.356  0.00  0.00    +0.000 HD
ENDBRANCH   6  14
BRANCH   1  16
ATOM     16  C   UNL     1       4.077   6.412  17.138  0.00  0.00    +0.000 C 
BRANCH  16  20
ATOM     17  C   UNL     1       2.527   3.256  19.657  0.00  0.00    +0.000 A 
ATOM     18  C   UNL     1       1.672   4.219  19.121  0.00  0.00    +0.000 A 
ATOM     19  C   UNL     1       2.177   5.254  18.328  0.00  0.00    +0.000 A 
ATOM     20  C   UNL     1       3.549   5.343  18.067  0.00  0.00    +0.000 A 
ATOM     21  C   UNL     1       4.409   4.405  18.656  0.00  0.00    +0.000 A 
ATOM     22  C   UNL     1       3.901   3.364  19.445  0.00  0.00    +0.000 A 
BRANCH  17  24
ATOM     23  C   UNL     1       1.387   2.695  21.650  0.00  0.00    +0.000 C 
ATOM     24  O   UNL     1       1.915   2.279  20.396  0.00  0.00    +0.000 OA
ENDBRANCH  17  24
ENDBRANCH  16  20
ENDBRANCH   1  16
TORSDOF 5
ENDMDL
MODEL 3
REMARK VINA RESULT:      -7.6      4.396      7.842
REMARK  Name = 
REMARK  6 active torsions:
REMARK  status: ('A' for Active; 'I' for Inactive)
REMARK    1  A    between atoms: C_1  and  O_2
REMARK    2  A    between atoms: O_2  and  C_3
REMARK    3  A    between atoms: C_6  and  C_7
REMARK    4  A    between atoms: C_7  and  C_8
REMARK    5  A    between atoms: C_10  and  C_11
REMARK    6  A    between atoms: C_20  and  O_21
REMARK                            x       y       z     vdW  Elec       q    Type
REMARK                         _______ _______ _______ _____ _____    ______ ____
ROOT
ATOM      1  C   UNL     1       5.224   6.303  16.598  0.00  0.00    +0.000 A 
ATOM      2  C   UNL     1       5.107   5.522  15.446  0.00  0.00    +0.000 A 
ATOM      3  C   UNL     1       6.247   5.080  14.776  0.00  0.00    +0.000 A 
ATOM      4  N   UNL     1       7.477   5.389  15.250  0.00  0.00    +0.000 NA
ATOM      5  N   UNL     1       7.612   6.141  16.388  0.00  0.00    +0.000 NA
ATOM      6  C   UNL     1       6.508   6.571  17.028  0.00  0.00    +0.000 A 
ENDROOT
BRANCH   3   7
ATOM      7  C   UNL     1       6.179   4.230  13.572  0.00  0.00    +0.000 A 
ATOM      8  C   UNL     1       4.960   3.668  13.133  0.00  0.00    +0.000 A 
ATOM      9  C   UNL     1       4.916   2.764  12.070  0.00  0.00    +0.000 A 
ATOM     10  C   UNL     1       6.090   2.426  11.414  0.00  0.00    +0.000 A 
ATOM     11  F   UNL     1       6.056   1.530  10.421  0.00  0.00    +0.000 F 
ATOM     12  C   UNL     1       7.300   3.004  11.778  0.00  0.00    +0.000 A 
ATOM     13  C   UNL     1       7.341   3.907  12.846  0.00  0.00    +0.000 A 
ENDBRANCH   3   7
BRANCH   6  14
ATOM     14  O   UNL     1       6.748   7.317  18.136  0.00  0.00    +0.000 OA
ATOM     15  H   UNL     1       5.936   7.153  18.650  0.00  0.00    +0.000 HD
ENDBRANCH   6  14
BRANCH   1  16
ATOM     16  C   UNL     1       4.001   6.821  17.298  0.00  0.00    +0.000 C 
BRANCH  16  20
ATOM     17  C   UNL     1       1.759   4.045  19.743  0.00  0.00    +0.000 A 
ATOM     18  C   UNL     1       2.755   4.841  20.307  0.00  0.00    +0.000 A 
ATOM     19  C   UNL     1       3.497   5.719  19.512  0.00  0.00    +0.000 A 
ATOM     20  C   UNL     1       3.257   5.807  18.136  0.00  0.00    +0.000 A 
ATOM     21  C   UNL     1       2.292   4.962  17.566  0.00  0.00    +0.000 A 
ATOM     22  C   UNL     1       1.545   4.088  18.365  0.00  0.00    +0.000 A 
BRANCH  17  24
ATOM     23  C   UNL     1       1.843   2.765  21.728  0.00  0.00    +0.000 C 
ATOM     24  O   UNL     1       1.083   3.244  20.623  0.00  0.00    +0.000 OA
ENDBRANCH  17  24
ENDBRANCH  16  20
ENDBRANCH   1  16
TORSDOF 5
ENDMDL
MODEL 4
REMARK VINA RESULT:      -7.6      1.363      2.175
REMARK  Name = 
REMARK  6 active torsions:
REMARK  status: ('A' for Active; 'I' for Inactive)
REMARK    1  A    between atoms: C_1  and  O_2
REMARK    2  A    between atoms: O_2  and  C_3
REMARK    3  A    between atoms: C_6  and  C_7
REMARK    4  A    between atoms: C_7  and  C_8
REMARK    5  A    between atoms: C_10  and  C_11
REMARK    6  A    between atoms: C_20  and  O_21
REMARK                            x       y       z     vdW  Elec       q    Type
REMARK                         _______ _______ _______ _____ _____    ______ ____
ROOT
ATOM      1  C   UNL     1       5.094   4.755  18.790  0.00  0.00    +0.000 A 
ATOM      2  C   UNL     1       4.377   5.950  18.693  0.00  0.00    +0.000 A 
ATOM      3  C   UNL     1       3.100   6.052  19.244  0.00  0.00    +0.000 A 
ATOM      4  N   UNL     1       2.555   4.997  19.896  0.00  0.00    +0.000 NA
ATOM      5  N   UNL     1       3.250   3.823  20.016  0.00  0.00    +0.000 NA
ATOM      6  C   UNL     1       4.479   3.727  19.476  0.00  0.00    +0.000 A 
ENDROOT
BRANCH   3   7
ATOM      7  C   UNL     1       2.312   7.298  19.193  0.00  0.00    +0.000 A 
ATOM      8  C   UNL     1       2.189   8.045  18.002  0.00  0.00    +0.000 A 
ATOM      9  C   UNL     1       1.550   9.287  17.983  0.00  0.00    +0.000 A 
ATOM     10  C   UNL     1       1.005   9.790  19.155  0.00  0.00    +0.000 A 
ATOM     11  F   UNL     1       0.428  10.997  19.148  0.00  0.00    +0.000 F 
ATOM     12  C   UNL     1       1.054   9.058  20.334  0.00  0.00    +0.000 A 
ATOM     13  C   UNL     1       1.697   7.815  20.349  0.00  0.00    +0.000 A 
ENDBRANCH   3   7
BRANCH   6  14
ATOM     14  O   UNL     1       5.079   2.520  19.638  0.00  0.00    +0.000 OA
ATOM     15  H   UNL     1       4.461   1.939  19.156  0.00  0.00    +0.000 HD
ENDBRANCH   6  14
BRANCH   1  16
ATOM     16  C   UNL     1       6.450   4.623  18.158  0.00  0.00    +0.000 C 
BRANCH  16  20
ATOM     17  C   UNL     1       6.330   4.261  13.849  0.00  0.00    +0.000 A 
ATOM     18  C   UNL     1       5.406   3.583  14.643  0.00  0.00    +0.000 A 
ATOM     19  C   UNL     1       5.461   3.679  16.037  0.00  0.00    +0.000 A 
ATOM     20  C   UNL     1       6.449   4.452  16.656  0.00  0.00    +0.000 A 
ATOM     21  C   UNL     1       7.410   5.086  15.853  0.00  0.00    +0.000 A 
ATOM     22  C   UNL     1       7.349   4.994  14.457  0.00  0.00    +0.000 A 
BRANCH  17  24
ATOM     23  C   UNL     1       6.083   2.768  12.034  0.00  0.00    +0.000 C 
ATOM     24  O   UNL     1       6.161   4.111  12.499  0.00  0.00    +0.000 OA
ENDBRANCH  17  24
ENDBRANCH  16  20
ENDBRANCH   1  16
TORSDOF 5
ENDMDL
MODEL 5
REMARK VINA RESULT:      -7.6      0.864      1.435
REMARK  Name = 
REMARK  6 active torsions:
REMARK  status: ('A' for Active; 'I' for Inactive)
REMARK    1  A    between atoms: C_1  and  O_2
REMARK    2  A    between atoms: O_2  and  C_3
REMARK    3  A    between atoms: C_6  and  C_7
REMARK    4  A    between atoms: C_7  and  C_8
REMARK    5  A    between atoms: C_10  and  C_11
REMARK    6  A    between atoms: C_20  and  O_21
REMARK                            x       y       z     vdW  Elec       q    Type
REMARK                         _______ _______ _______ _____ _____    ______ ____
ROOT
ATOM      1  C   UNL     1       3.180   4.274  18.349  0.00  0.00    +0.000 A 
ATOM      2  C   UNL     1       2.819   5.617  18.211  0.00  0.00    +0.000 A 
ATOM      3  C   UNL     1       2.389   6.348  19.318  0.00  0.00    +0.000 A 
ATOM      4  N   UNL     1       2.338   5.764  20.540  0.00  0.00    +0.000 NA
ATOM      5  N   UNL     1       2.703   4.453  20.697  0.00  0.00    +0.000 NA
ATOM      6  C   UNL     1       3.111   3.750  19.624  0.00  0.00    +0.000 A 
ENDROOT
BRANCH   3   7
ATOM      7  C   UNL     1       2.023   7.774  19.233  0.00  0.00    +0.000 A 
ATOM      8  C   UNL     1       1.393   8.440  20.306  0.00  0.00    +0.000 A 
ATOM      9  C   UNL     1       0.934   9.753  20.181  0.00  0.00    +0.000 A 
ATOM     10  C   UNL     1       1.118  10.427  18.983  0.00  0.00    +0.000 A 
ATOM     11  F   UNL     1       0.643  11.671  18.847  0.00  0.00    +0.000 F 
ATOM     12  C   UNL     1       1.785   9.826  17.924  0.00  0.00    +0.000 A 
ATOM     13  C   UNL     1       2.242   8.509  18.053  0.00  0.00    +0.000 A 
ENDBRANCH   3   7
BRANCH   6  14
ATOM     14  O   UNL     1       3.440   2.459  19.882  0.00  0.00    +0.000 OA
ATOM     15  H   UNL     1       3.636   2.134  18.984  0.00  0.00    +0.000 HD
ENDBRANCH   6  14
BRANCH   1  16
ATOM     16  C   UNL     1       3.599   3.469  17.153  0.00  0.00    +0.000 C 
BRANCH  16  20
ATOM     17  C   UNL     1       7.049   5.067  15.091  0.00  0.00    +0.000 A 
ATOM     18  C   UNL     1       5.933   4.636  14.375  0.00  0.00    +0.000 A 
ATOM     19  C   UNL     1       4.829   4.095  15.040  0.00  0.00    +0.000 A 
ATOM     20  C   UNL     1       4.830   3.971  16.434  0.00  0.00    +0.000 A 
ATOM     21  C   UNL     1       5.978   4.354  17.142  0.00  0.00    +0.000 A 
ATOM     22  C   UNL     1       7.082   4.902  16.475  0.00  0.00    +0.000 A 
BRANCH  17  24
ATOM     23  C   UNL     1       7.994   5.322  12.940  0.00  0.00    +0.000 C 
ATOM     24  O   UNL     1       8.058   5.600  14.335  0.00  0.00    +0.000 OA
ENDBRANCH  17  24
ENDBRANCH  16  20
ENDBRANCH   1  16
TORSDOF 5
ENDMDL
MODEL 6
REMARK VINA RESULT:      -7.6      3.749      7.375
REMARK  Name = 
REMARK  6 active torsions:
REMARK  status: ('A' for Active; 'I' for Inactive)
REMARK    1  A    between atoms: C_1  and  O_2
REMARK    2  A    between atoms: O_2  and  C_3
REMARK    3  A    between atoms: C_6  and  C_7
REMARK    4  A    between atoms: C_7  and  C_8
REMARK    5  A    between atoms: C_10  and  C_11
REMARK    6  A    between atoms: C_20  and  O_21
REMARK                            x       y       z     vdW  Elec       q    Type
REMARK                         _______ _______ _______ _____ _____    ______ ____
ROOT
ATOM      1  C   UNL     1       4.708   4.311  17.787  0.00  0.00    +0.000 A 
ATOM      2  C   UNL     1       5.010   4.336  16.423  0.00  0.00    +0.000 A 
ATOM      3  C   UNL     1       6.330   4.479  15.997  0.00  0.00    +0.000 A 
ATOM      4  N   UNL     1       7.332   4.576  16.904  0.00  0.00    +0.000 NA
ATOM      5  N   UNL     1       7.056   4.536  18.245  0.00  0.00    +0.000 NA
ATOM      6  C   UNL     1       5.780   4.404  18.653  0.00  0.00    +0.000 A 
ENDROOT
BRANCH   3   7
ATOM      7  C   UNL     1       6.705   4.484  14.570  0.00  0.00    +0.000 A 
ATOM      8  C   UNL     1       7.681   5.371  14.067  0.00  0.00    +0.000 A 
ATOM      9  C   UNL     1       7.946   5.463  12.699  0.00  0.00    +0.000 A 
ATOM     10  C   UNL     1       7.252   4.651  11.814  0.00  0.00    +0.000 A 
ATOM     11  F   UNL     1       7.475   4.766  10.500  0.00  0.00    +0.000 F 
ATOM     12  C   UNL     1       6.327   3.724  12.277  0.00  0.00    +0.000 A 
ATOM     13  C   UNL     1       6.062   3.637  13.648  0.00  0.00    +0.000 A 
ENDBRANCH   3   7
BRANCH   6  14
ATOM     14  O   UNL     1       5.612   4.388  19.999  0.00  0.00    +0.000 OA
ATOM     15  H   UNL     1       4.913   5.059  20.108  0.00  0.00    +0.000 HD
ENDBRANCH   6  14
BRANCH   1  16
ATOM     16  C   UNL     1       3.285   4.203  18.254  0.00  0.00    +0.000 C 
BRANCH  16  20
ATOM     17  C   UNL     1       1.761   7.842  20.026  0.00  0.00    +0.000 A 
ATOM     18  C   UNL     1       1.658   6.627  20.703  0.00  0.00    +0.000 A 
ATOM     19  C   UNL     1       2.127   5.447  20.119  0.00  0.00    +0.000 A 
ATOM     20  C   UNL     1       2.700   5.466  18.842  0.00  0.00    +0.000 A 
ATOM     21  C   UNL     1       2.748   6.682  18.144  0.00  0.00    +0.000 A 
ATOM     22  C   UNL     1       2.284   7.865  18.734  0.00  0.00    +0.000 A 
BRANCH  17  24
ATOM     23  C   UNL     1       0.109   8.716  21.473  0.00  0.00    +0.000 C 
ATOM     24  O   UNL     1       1.290   8.932  20.708  0.00  0.00    +0.000 OA
ENDBRANCH  17  24
ENDBRANCH  16  20
ENDBRANCH   1  16
TORSDOF 5
ENDMDL
MODEL 7
REMARK VINA RESULT:      -7.5      4.590      8.346
REMARK  Name = 
REMARK  6 active torsions:
REMARK  status: ('A' for Active; 'I' for Inactive)
REMARK    1  A    between atoms: C_1  and  O_2
REMARK    2  A    between atoms: O_2  and  C_3
REMARK    3  A    between atoms: C_6  and  C_7
REMARK    4  A    between atoms: C_7  and  C_8
REMARK    5  A    between atoms: C_10  and  C_11
REMARK    6  A    between atoms: C_20  and  O_21
REMARK                            x       y       z     vdW  Elec       q    Type
REMARK                         _______ _______ _______ _____ _____    ______ ____
ROOT
ATOM      1  C   UNL     1       0.963   9.618  19.177  0.00  0.00    +0.000 A 
ATOM      2  C   UNL     1       1.694   8.747  18.365  0.00  0.00    +0.000 A 
ATOM      3  C   UNL     1       2.268   7.596  18.904  0.00  0.00    +0.000 A 
ATOM      4  N   UNL     1       2.101   7.304  20.217  0.00  0.00    +0.000 NA
ATOM      5  N   UNL     1       1.374   8.137  21.025  0.00  0.00    +0.000 NA
ATOM      6  C   UNL     1       0.828   9.251  20.501  0.00  0.00    +0.000 A 
ENDROOT
BRANCH   3   7
ATOM      7  C   UNL     1       3.025   6.631  18.086  0.00  0.00    +0.000 A 
ATOM      8  C   UNL     1       2.693   5.259  18.066  0.00  0.00    +0.000 A 
ATOM      9  C   UNL     1       3.485   4.327  17.392  0.00  0.00    +0.000 A 
ATOM     10  C   UNL     1       4.612   4.758  16.709  0.00  0.00    +0.000 A 
ATOM     11  F   UNL     1       5.395   3.862  16.097  0.00  0.00    +0.000 F 
ATOM     12  C   UNL     1       4.939   6.107  16.657  0.00  0.00    +0.000 A 
ATOM     13  C   UNL     1       4.144   7.038  17.335  0.00  0.00    +0.000 A 
ENDBRANCH   3   7
BRANCH   6  14
ATOM     14  O   UNL     1       0.137  10.015  21.385  0.00  0.00    +0.000 OA
ATOM     15  H   UNL     1       0.433   9.633  22.232  0.00  0.00    +0.000 HD
ENDBRANCH   6  14
BRANCH   1  16
ATOM     16  C   UNL     1       0.382  10.883  18.614  0.00  0.00    +0.000 C 
BRANCH  16  20
ATOM     17  C   UNL     1      -3.813  10.858  17.562  0.00  0.00    +0.000 A 
ATOM     18  C   UNL     1      -3.337  11.711  18.557  0.00  0.00    +0.000 A 
ATOM     19  C   UNL     1      -1.986  11.701  18.915  0.00  0.00    +0.000 A 
ATOM     20  C   UNL     1      -1.092  10.828  18.285  0.00  0.00    +0.000 A 
ATOM     21  C   UNL     1      -1.588   9.933  17.326  0.00  0.00    +0.000 A 
ATOM     22  C   UNL     1      -2.941   9.950  16.963  0.00  0.00    +0.000 A 
BRANCH  17  24
ATOM     23  C   UNL     1      -5.699  12.278  17.450  0.00  0.00    +0.000 C 
ATOM     24  O   UNL     1      -5.148  10.977  17.281  0.00  0.00    +0.000 OA
ENDBRANCH  17  24
ENDBRANCH  16  20
ENDBRANCH   1  16
TORSDOF 5
ENDMDL
MODEL 8
REMARK VINA RESULT:      -7.5      0.820      1.346
REMARK  Name = 
REMARK  6 active torsions:
REMARK  status: ('A' for Active; 'I' for Inactive)
REMARK    1  A    between atoms: C_1  and  O_2
REMARK    2  A    between atoms: O_2  and  C_3
REMARK    3  A    between atoms: C_6  and  C_7
REMARK    4  A    between atoms: C_7  and  C_8
REMARK    5  A    between atoms: C_10  and  C_11
REMARK    6  A    between atoms: C_20  and  O_21
REMARK                            x       y       z     vdW  Elec       q    Type
REMARK                         _______ _______ _______ _____ _____    ______ ____
ROOT
ATOM      1  C   UNL     1       4.273   4.686  19.411  0.00  0.00    +0.000 A 
ATOM      2  C   UNL     1       3.794   5.977  19.176  0.00  0.00    +0.000 A 
ATOM      3  C   UNL     1       2.506   6.334  19.575  0.00  0.00    +0.000 A 
ATOM      4  N   UNL     1       1.718   5.434  20.211  0.00  0.00    +0.000 NA
ATOM      5  N   UNL     1       2.177   4.169  20.464  0.00  0.00    +0.000 NA
ATOM      6  C   UNL     1       3.418   3.827  20.072  0.00  0.00    +0.000 A 
ENDROOT
BRANCH   3   7
ATOM      7  C   UNL     1       1.962   7.690  19.376  0.00  0.00    +0.000 A 
ATOM      8  C   UNL     1       2.101   8.368  18.145  0.00  0.00    +0.000 A 
ATOM      9  C   UNL     1       1.698   9.697  17.996  0.00  0.00    +0.000 A 
ATOM     10  C   UNL     1       1.129  10.361  19.072  0.00  0.00    +0.000 A 
ATOM     11  F   UNL     1       0.779  11.647  18.942  0.00  0.00    +0.000 F 
ATOM     12  C   UNL     1       0.922   9.710  20.281  0.00  0.00    +0.000 A 
ATOM     13  C   UNL     1       1.329   8.379  20.427  0.00  0.00    +0.000 A 
ENDBRANCH   3   7
BRANCH   6  14
ATOM     14  O   UNL     1       3.774   2.549  20.358  0.00  0.00    +0.000 OA
ATOM     15  H   UNL     1       3.199   2.054  19.746  0.00  0.00    +0.000 HD
ENDBRANCH   6  14
BRANCH   1  16
ATOM     16  C   UNL     1       5.642   4.282  18.943  0.00  0.00    +0.000 C 
BRANCH  16  20
ATOM     17  C   UNL     1       6.391   4.465  14.687  0.00  0.00    +0.000 A 
ATOM     18  C   UNL     1       7.377   4.844  15.597  0.00  0.00    +0.000 A 
ATOM     19  C   UNL     1       7.126   4.810  16.971  0.00  0.00    +0.000 A 
ATOM     20  C   UNL     1       5.878   4.401  17.455  0.00  0.00    +0.000 A 
ATOM     21  C   UNL     1       4.872   4.075  16.532  0.00  0.00    +0.000 A 
ATOM     22  C   UNL     1       5.128   4.103  15.155  0.00  0.00    +0.000 A 
BRANCH  17  24
ATOM     23  C   UNL     1       6.253   3.471  12.547  0.00  0.00    +0.000 C 
ATOM     24  O   UNL     1       6.761   4.516  13.370  0.00  0.00    +0.000 OA
ENDBRANCH  17  24
ENDBRANCH  16  20
ENDBRANCH   1  16
TORSDOF 5
ENDMDL
MODEL 9
REMARK VINA RESULT:      -7.5      0.237      1.029
REMARK  Name = 
REMARK  6 active torsions:
REMARK  status: ('A' for Active; 'I' for Inactive)
REMARK    1  A    between atoms: C_1  and  O_2
REMARK    2  A    between atoms: O_2  and  C_3
REMARK    3  A    between atoms: C_6  and  C_7
REMARK    4  A    between atoms: C_7  and  C_8
REMARK    5  A    between atoms: C_10  and  C_11
REMARK    6  A    between atoms: C_20  and  O_21
REMARK                            x       y       z     vdW  Elec       q    Type
REMARK                         _______ _______ _______ _____ _____    ______ ____
ROOT
ATOM      1  C   UNL     1       3.670   4.355  19.834  0.00  0.00    +0.000 A 
ATOM      2  C   UNL     1       3.438   5.681  19.462  0.00  0.00    +0.000 A 
ATOM      3  C   UNL     1       2.253   6.318  19.827  0.00  0.00    +0.000 A 
ATOM      4  N   UNL     1       1.326   5.659  20.564  0.00  0.00    +0.000 NA
ATOM      5  N   UNL     1       1.544   4.364  20.952  0.00  0.00    +0.000 NA
ATOM      6  C   UNL     1       2.687   3.751  20.592  0.00  0.00    +0.000 A 
ENDROOT
BRANCH   3   7
ATOM      7  C   UNL     1       1.970   7.724  19.483  0.00  0.00    +0.000 A 
ATOM      8  C   UNL     1       1.312   8.587  20.386  0.00  0.00    +0.000 A 
ATOM      9  C   UNL     1       0.934   9.879  20.014  0.00  0.00    +0.000 A 
ATOM     10  C   UNL     1       1.228  10.335  18.738  0.00  0.00    +0.000 A 
ATOM     11  F   UNL     1       0.830  11.558  18.367  0.00  0.00    +0.000 F 
ATOM     12  C   UNL     1       1.927   9.537  17.842  0.00  0.00    +0.000 A 
ATOM     13  C   UNL     1       2.303   8.242  18.217  0.00  0.00    +0.000 A 
ENDBRANCH   3   7
BRANCH   6  14
ATOM     14  O   UNL     1       2.801   2.467  21.015  0.00  0.00    +0.000 OA
ATOM     15  H   UNL     1       3.751   2.426  21.231  0.00  0.00    +0.000 HD
ENDBRANCH   6  14
BRANCH   1  16
ATOM     16  C   UNL     1       4.924   3.648  19.405  0.00  0.00    +0.000 C 
BRANCH  16  20
ATOM     17  C   UNL     1       6.440   5.044  15.602  0.00  0.00    +0.000 A 
ATOM     18  C   UNL     1       5.264   4.298  15.665  0.00  0.00    +0.000 A 
ATOM     19  C   UNL     1       4.788   3.824  16.891  0.00  0.00    +0.000 A 
ATOM     20  C   UNL     1       5.489   4.086  18.074  0.00  0.00    +0.000 A 
ATOM     21  C   UNL     1       6.701   4.788  17.996  0.00  0.00    +0.000 A 
ATOM     22  C   UNL     1       7.173   5.268  16.767  0.00  0.00    +0.000 A 
BRANCH  17  24
ATOM     23  C   UNL     1       6.820   4.471  13.341  0.00  0.00    +0.000 C 
ATOM     24  O   UNL     1       6.793   5.473  14.351  0.00  0.00    +0.000 OA
ENDBRANCH  17  24
ENDBRANCH  16  20
ENDBRANCH   1  16
TORSDOF 5
ENDMDL
