MODEL 1
REMARK VINA RESULT:      -6.1      0.000      0.000
REMARK  Name = 
REMARK  20 active torsions:
REMARK  status: ('A' for Active; 'I' for Inactive)
REMARK    1  A    between atoms: N_1  and  C_2
REMARK    2  A    between atoms: C_2  and  C_3
REMARK    3  A    between atoms: C_3  and  C_4
REMARK    4  A    between atoms: C_4  and  N_5
REMARK    5  A    between atoms: N_5  and  C_6
REMARK    6  A    between atoms: C_6  and  C_7
REMARK    7  A    between atoms: C_7  and  C_8
REMARK    8  A    between atoms: C_8  and  C_9
REMARK    9  A    between atoms: C_9  and  N_10
REMARK   10  A    between atoms: C_11  and  C_13
REMARK   11  A    between atoms: C_13  and  C_14
REMARK   12  A    between atoms: C_14  and  C_15
REMARK   13  A    between atoms: C_15  and  C_16
REMARK   14  A    between atoms: N_18  and  C_19
REMARK   15  A    between atoms: C_19  and  C_20
REMARK   16  A    between atoms: C_20  and  C_21
REMARK   17  A    between atoms: C_21  and  C_22
REMARK   18  A    between atoms: C_22  and  C_23
REMARK   19  A    between atoms: C_23  and  C_24
REMARK   20  A    between atoms: C_24  and  N_25
REMARK                            x       y       z     vdW  Elec       q    Type
REMARK                         _______ _______ _______ _____ _____    ______ ____
ROOT
ATOM      1  C   UNL     1       1.722   8.826  17.886  0.00  0.00    +0.000 C 
ENDROOT
BRANCH   1   2
ATOM      2  C   UNL     1       0.888  10.003  18.369  0.00  0.00    +0.000 C 
ATOM      3  O   UNL     1       1.339  10.851  19.136  0.00  0.00    +0.000 OA
ATOM      4  N   UNL     1      -0.391  10.052  17.881  0.00  0.00    +0.000 N 
ATOM      5  H   UNL     1      -0.716   9.334  17.246  0.00  0.00    +0.000 HD
BRANCH   4   6
ATOM      6  C   UNL     1      -1.294  11.123  18.265  0.00  0.00    +0.000 C 
BRANCH   6   7
ATOM      7  C   UNL     1      -2.207  11.562  17.121  0.00  0.00    +0.000 C 
BRANCH   7   8
ATOM      8  C   UNL     1      -3.235  10.485  16.772  0.00  0.00    +0.000 C 
BRANCH   8   9
ATOM      9  C   UNL     1      -4.658  11.033  16.831  0.00  0.00    +0.000 C 
BRANCH   9  10
ATOM     10  C   UNL     1      -5.129  11.187  18.283  0.00  0.00    +0.000 C 
BRANCH  10  11
ATOM     11  C   UNL     1      -6.653  11.133  18.374  0.00  0.00    +0.000 C 
BRANCH  11  12
ATOM     12  N   UNL     1      -7.083  11.051  19.778  0.00  0.00    +0.000 NA
ATOM     13  C   UNL     1      -7.457   9.899  20.235  0.00  0.00    +0.000 C 
ATOM     14  N   UNL     1      -7.475   8.764  19.506  0.00  0.00    +0.000 N 
ATOM     15  N   UNL     1      -7.861   9.782  21.528  0.00  0.00    +0.000 N 
ATOM     16  H   UNL     1      -7.188   8.814  18.547  0.00  0.00    +0.000 HD
ATOM     17  H   UNL     1      -7.754   7.836  19.790  0.00  0.00    +0.000 HD
ATOM     18  H   UNL     1      -7.847  10.642  22.072  0.00  0.00    +0.000 HD
ATOM     19  H   UNL     1      -8.183   8.966  22.032  0.00  0.00    +0.000 HD
ENDBRANCH  11  12
ENDBRANCH  10  11
ENDBRANCH   9  10
ENDBRANCH   8   9
ENDBRANCH   7   8
ENDBRANCH   6   7
ENDBRANCH   4   6
ENDBRANCH   1   2
BRANCH   1  20
ATOM     20  C   UNL     1       2.207   8.022  19.093  0.00  0.00    +0.000 C 
BRANCH  20  21
ATOM     21  C   UNL     1       2.850   6.684  18.751  0.00  0.00    +0.000 C 
BRANCH  21  23
ATOM     22  N   UNL     1       1.658   4.555  18.823  0.00  0.00    +0.000 N 
ATOM     23  C   UNL     1       2.218   5.570  19.568  0.00  0.00    +0.000 C 
ATOM     24  O   UNL     1       2.207   5.590  20.796  0.00  0.00    +0.000 OA
ATOM     25  H   UNL     1       1.658   4.615  17.811  0.00  0.00    +0.000 HD
BRANCH  22  26
ATOM     26  C   UNL     1       1.027   3.417  19.458  0.00  0.00    +0.000 C 
BRANCH  26  27
ATOM     27  C   UNL     1       1.651   2.090  19.050  0.00  0.00    +0.000 C 
BRANCH  27  28
ATOM     28  C   UNL     1       3.183   2.152  19.035  0.00  0.00    +0.000 C 
BRANCH  28  29
ATOM     29  C   UNL     1       3.738   2.408  17.635  0.00  0.00    +0.000 C 
BRANCH  29  30
ATOM     30  N   UNL     1       4.810   3.402  17.680  0.00  0.00    +0.000 NA
ATOM     31  H   UNL     1       4.809   3.879  18.580  0.00  0.00    +0.000 HD
BRANCH  30  32
ATOM     32  C   UNL     1       4.635   4.400  16.630  0.00  0.00    +0.000 C 
BRANCH  32  33
ATOM     33  C   UNL     1       5.878   5.283  16.547  0.00  0.00    +0.000 C 
BRANCH  33  34
ATOM     34  C   UNL     1       7.134   4.428  16.680  0.00  0.00    +0.000 C 
BRANCH  34  35
ATOM     35  N   UNL     1       7.577   4.397  18.067  0.00  0.00    +0.000 NA
ATOM     36  H   UNL     1       8.440   3.860  18.132  0.00  0.00    +0.000 HD
ATOM     37  H   UNL     1       6.887   3.901  18.630  0.00  0.00    +0.000 HD
ENDBRANCH  34  35
ENDBRANCH  33  34
ENDBRANCH  32  33
ENDBRANCH  30  32
ENDBRANCH  29  30
ENDBRANCH  28  29
ENDBRANCH  27  28
ENDBRANCH  26  27
ENDBRANCH  22  26
ENDBRANCH  21  23
ENDBRANCH  20  21
ENDBRANCH   1  20
TORSDOF 20
ENDMDL
MODEL 2
REMARK VINA RESULT:      -6.0      3.441      4.710
REMARK  Name = 
REMARK  20 active torsions:
REMARK  status: ('A' for Active; 'I' for Inactive)
REMARK    1  A    between atoms: N_1  and  C_2
REMARK    2  A    between atoms: C_2  and  C_3
REMARK    3  A    between atoms: C_3  and  C_4
REMARK    4  A    between atoms: C_4  and  N_5
REMARK    5  A    between atoms: N_5  and  C_6
REMARK    6  A    between atoms: C_6  and  C_7
REMARK    7  A    between atoms: C_7  and  C_8
REMARK    8  A    between atoms: C_8  and  C_9
REMARK    9  A    between atoms: C_9  and  N_10
REMARK   10  A    between atoms: C_11  and  C_13
REMARK   11  A    between atoms: C_13  and  C_14
REMARK   12  A    between atoms: C_14  and  C_15
REMARK   13  A    between atoms: C_15  and  C_16
REMARK   14  A    between atoms: N_18  and  C_19
REMARK   15  A    between atoms: C_19  and  C_20
REMARK   16  A    between atoms: C_20  and  C_21
REMARK   17  A    between atoms: C_21  and  C_22
REMARK   18  A    between atoms: C_22  and  C_23
REMARK   19  A    between atoms: C_23  and  C_24
REMARK   20  A    between atoms: C_24  and  N_25
REMARK                            x       y       z     vdW  Elec       q    Type
REMARK                         _______ _______ _______ _____ _____    ______ ____
ROOT
ATOM      1  C   UNL     1       2.164   6.556  19.405  0.00  0.00    +0.000 C 
ENDROOT
BRANCH   1   2
ATOM      2  C   UNL     1       1.739   7.908  19.959  0.00  0.00    +0.000 C 
ATOM      3  O   UNL     1       1.530   8.875  19.232  0.00  0.00    +0.000 OA
ATOM      4  N   UNL     1       1.597   7.961  21.321  0.00  0.00    +0.000 N 
ATOM      5  H   UNL     1       1.773   7.135  21.879  0.00  0.00    +0.000 HD
BRANCH   4   6
ATOM      6  C   UNL     1       1.197   9.192  21.980  0.00  0.00    +0.000 C 
BRANCH   6   7
ATOM      7  C   UNL     1      -0.318   9.382  22.004  0.00  0.00    +0.000 C 
BRANCH   7   8
ATOM      8  C   UNL     1      -0.774  10.139  23.252  0.00  0.00    +0.000 C 
BRANCH   8   9
ATOM      9  C   UNL     1      -1.082  11.600  22.936  0.00  0.00    +0.000 C 
BRANCH   9  10
ATOM     10  C   UNL     1      -1.618  11.753  21.507  0.00  0.00    +0.000 C 
BRANCH  10  11
ATOM     11  C   UNL     1      -0.776  12.745  20.709  0.00  0.00    +0.000 C 
BRANCH  11  12
ATOM     12  N   UNL     1      -1.375  12.985  19.387  0.00  0.00    +0.000 NA
ATOM     13  C   UNL     1      -0.901  12.331  18.375  0.00  0.00    +0.000 C 
ATOM     14  N   UNL     1       0.108  11.440  18.453  0.00  0.00    +0.000 N 
ATOM     15  N   UNL     1      -1.429  12.524  17.137  0.00  0.00    +0.000 N 
ATOM     16  H   UNL     1       0.525  11.276  19.350  0.00  0.00    +0.000 HD
ATOM     17  H   UNL     1       0.530  10.898  17.714  0.00  0.00    +0.000 HD
ATOM     18  H   UNL     1      -2.189  13.199  17.083  0.00  0.00    +0.000 HD
ATOM     19  H   UNL     1      -1.174  12.102  16.253  0.00  0.00    +0.000 HD
ENDBRANCH  11  12
ENDBRANCH  10  11
ENDBRANCH   9  10
ENDBRANCH   8   9
ENDBRANCH   7   8
ENDBRANCH   6   7
ENDBRANCH   4   6
ENDBRANCH   1   2
BRANCH   1  20
ATOM     20  C   UNL     1       2.108   5.512  20.520  0.00  0.00    +0.000 C 
BRANCH  20  21
ATOM     21  C   UNL     1       1.181   4.335  20.247  0.00  0.00    +0.000 C 
BRANCH  21  23
ATOM     22  N   UNL     1       2.937   3.106  19.078  0.00  0.00    +0.000 N 
ATOM     23  C   UNL     1       1.642   3.574  19.016  0.00  0.00    +0.000 C 
ATOM     24  O   UNL     1       0.910   3.404  18.045  0.00  0.00    +0.000 OA
ATOM     25  H   UNL     1       3.509   3.316  19.888  0.00  0.00    +0.000 HD
BRANCH  22  26
ATOM     26  C   UNL     1       3.516   2.353  17.986  0.00  0.00    +0.000 C 
BRANCH  26  27
ATOM     27  C   UNL     1       4.049   3.240  16.871  0.00  0.00    +0.000 C 
BRANCH  27  28
ATOM     28  C   UNL     1       5.166   4.172  17.356  0.00  0.00    +0.000 C 
BRANCH  28  29
ATOM     29  C   UNL     1       5.909   4.836  16.199  0.00  0.00    +0.000 C 
BRANCH  29  30
ATOM     30  N   UNL     1       7.307   5.077  16.555  0.00  0.00    +0.000 NA
ATOM     31  H   UNL     1       7.918   4.478  16.002  0.00  0.00    +0.000 HD
BRANCH  30  32
ATOM     32  C   UNL     1       7.538   4.792  17.967  0.00  0.00    +0.000 C 
BRANCH  32  33
ATOM     33  C   UNL     1       7.259   6.043  18.796  0.00  0.00    +0.000 C 
BRANCH  33  34
ATOM     34  C   UNL     1       8.126   7.198  18.305  0.00  0.00    +0.000 C 
BRANCH  34  35
ATOM     35  N   UNL     1       7.421   7.956  17.280  0.00  0.00    +0.000 NA
ATOM     36  H   UNL     1       6.419   7.908  17.456  0.00  0.00    +0.000 HD
ATOM     37  H   UNL     1       7.574   7.516  16.373  0.00  0.00    +0.000 HD
ENDBRANCH  34  35
ENDBRANCH  33  34
ENDBRANCH  32  33
ENDBRANCH  30  32
ENDBRANCH  29  30
ENDBRANCH  28  29
ENDBRANCH  27  28
ENDBRANCH  26  27
ENDBRANCH  22  26
ENDBRANCH  21  23
ENDBRANCH  20  21
ENDBRANCH   1  20
TORSDOF 20
ENDMDL
MODEL 3
REMARK VINA RESULT:      -6.0      6.292     11.014
REMARK  Name = 
REMARK  20 active torsions:
REMARK  status: ('A' for Active; 'I' for Inactive)
REMARK    1  A    between atoms: N_1  and  C_2
REMARK    2  A    between atoms: C_2  and  C_3
REMARK    3  A    between atoms: C_3  and  C_4
REMARK    4  A    between atoms: C_4  and  N_5
REMARK    5  A    between atoms: N_5  and  C_6
REMARK    6  A    between atoms: C_6  and  C_7
REMARK    7  A    between atoms: C_7  and  C_8
REMARK    8  A    between atoms: C_8  and  C_9
REMARK    9  A    between atoms: C_9  and  N_10
REMARK   10  A    between atoms: C_11  and  C_13
REMARK   11  A    between atoms: C_13  and  C_14
REMARK   12  A    between atoms: C_14  and  C_15
REMARK   13  A    between atoms: C_15  and  C_16
REMARK   14  A    between atoms: N_18  and  C_19
REMARK   15  A    between atoms: C_19  and  C_20
REMARK   16  A    between atoms: C_20  and  C_21
REMARK   17  A    between atoms: C_21  and  C_22
REMARK   18  A    between atoms: C_22  and  C_23
REMARK   19  A    between atoms: C_23  and  C_24
REMARK   20  A    between atoms: C_24  and  N_25
REMARK                            x       y       z     vdW  Elec       q    Type
REMARK                         _______ _______ _______ _____ _____    ______ ____
ROOT
ATOM      1  C   UNL     1       7.085   6.962  16.749  0.00  0.00    +0.000 C 
ENDROOT
BRANCH   1   2
ATOM      2  C   UNL     1       7.867   7.530  17.924  0.00  0.00    +0.000 C 
ATOM      3  O   UNL     1       8.201   6.837  18.881  0.00  0.00    +0.000 OA
ATOM      4  N   UNL     1       8.176   8.862  17.829  0.00  0.00    +0.000 N 
ATOM      5  H   UNL     1       7.885   9.391  17.017  0.00  0.00    +0.000 HD
BRANCH   4   6
ATOM      6  C   UNL     1       8.919   9.529  18.885  0.00  0.00    +0.000 C 
BRANCH   6   7
ATOM      7  C   UNL     1       9.129  11.016  18.607  0.00  0.00    +0.000 C 
BRANCH   7   8
ATOM      8  C   UNL     1      10.421  11.270  17.828  0.00  0.00    +0.000 C 
BRANCH   8   9
ATOM      9  C   UNL     1      11.548  11.725  18.752  0.00  0.00    +0.000 C 
BRANCH   9  10
ATOM     10  C   UNL     1      11.182  13.034  19.463  0.00  0.00    +0.000 C 
BRANCH  10  11
ATOM     11  C   UNL     1      12.079  14.179  18.998  0.00  0.00    +0.000 C 
BRANCH  11  12
ATOM     12  N   UNL     1      11.789  14.526  17.599  0.00  0.00    +0.000 NA
ATOM     13  C   UNL     1      11.103  15.599  17.366  0.00  0.00    +0.000 C 
ATOM     14  N   UNL     1      10.636  16.423  18.326  0.00  0.00    +0.000 N 
ATOM     15  N   UNL     1      10.815  15.954  16.085  0.00  0.00    +0.000 N 
ATOM     16  H   UNL     1      10.826  16.190  19.282  0.00  0.00    +0.000 HD
ATOM     17  H   UNL     1      10.096  17.269  18.223  0.00  0.00    +0.000 HD
ATOM     18  H   UNL     1      11.167  15.327  15.365  0.00  0.00    +0.000 HD
ATOM     19  H   UNL     1      10.293  16.748  15.738  0.00  0.00    +0.000 HD
ENDBRANCH  11  12
ENDBRANCH  10  11
ENDBRANCH   9  10
ENDBRANCH   8   9
ENDBRANCH   7   8
ENDBRANCH   6   7
ENDBRANCH   4   6
ENDBRANCH   1   2
BRANCH   1  20
ATOM     20  C   UNL     1       5.833   6.255  17.269  0.00  0.00    +0.000 C 
BRANCH  20  21
ATOM     21  C   UNL     1       5.841   4.741  17.109  0.00  0.00    +0.000 C 
BRANCH  21  23
ATOM     22  N   UNL     1       4.559   3.028  18.286  0.00  0.00    +0.000 N 
ATOM     23  C   UNL     1       5.453   4.070  18.416  0.00  0.00    +0.000 C 
ATOM     24  O   UNL     1       5.903   4.442  19.496  0.00  0.00    +0.000 OA
ATOM     25  H   UNL     1       4.189   2.795  17.372  0.00  0.00    +0.000 HD
BRANCH  22  26
ATOM     26  C   UNL     1       4.103   2.282  19.440  0.00  0.00    +0.000 C 
BRANCH  26  27
ATOM     27  C   UNL     1       2.586   2.242  19.557  0.00  0.00    +0.000 C 
BRANCH  27  28
ATOM     28  C   UNL     1       1.895   2.849  18.330  0.00  0.00    +0.000 C 
BRANCH  28  29
ATOM     29  C   UNL     1       1.297   4.223  18.624  0.00  0.00    +0.000 C 
BRANCH  29  30
ATOM     30  N   UNL     1       2.229   5.284  18.241  0.00  0.00    +0.000 NA
ATOM     31  H   UNL     1       3.061   4.882  17.813  0.00  0.00    +0.000 HD
BRANCH  30  32
ATOM     32  C   UNL     1       2.638   6.059  19.407  0.00  0.00    +0.000 C 
BRANCH  32  33
ATOM     33  C   UNL     1       2.281   7.529  19.198  0.00  0.00    +0.000 C 
BRANCH  33  34
ATOM     34  C   UNL     1       1.578   8.075  20.437  0.00  0.00    +0.000 C 
BRANCH  34  35
ATOM     35  N   UNL     1       0.966   9.364  20.141  0.00  0.00    +0.000 NA
ATOM     36  H   UNL     1       1.375   9.741  19.288  0.00  0.00    +0.000 HD
ATOM     37  H   UNL     1       1.195  10.022  20.886  0.00  0.00    +0.000 HD
ENDBRANCH  34  35
ENDBRANCH  33  34
ENDBRANCH  32  33
ENDBRANCH  30  32
ENDBRANCH  29  30
ENDBRANCH  28  29
ENDBRANCH  27  28
ENDBRANCH  26  27
ENDBRANCH  22  26
ENDBRANCH  21  23
ENDBRANCH  20  21
ENDBRANCH   1  20
TORSDOF 20
ENDMDL
MODEL 4
REMARK VINA RESULT:      -5.9      3.570      5.648
REMARK  Name = 
REMARK  20 active torsions:
REMARK  status: ('A' for Active; 'I' for Inactive)
REMARK    1  A    between atoms: N_1  and  C_2
REMARK    2  A    between atoms: C_2  and  C_3
REMARK    3  A    between atoms: C_3  and  C_4
REMARK    4  A    between atoms: C_4  and  N_5
REMARK    5  A    between atoms: N_5  and  C_6
REMARK    6  A    between atoms: C_6  and  C_7
REMARK    7  A    between atoms: C_7  and  C_8
REMARK    8  A    between atoms: C_8  and  C_9
REMARK    9  A    between atoms: C_9  and  N_10
REMARK   10  A    between atoms: C_11  and  C_13
REMARK   11  A    between atoms: C_13  and  C_14
REMARK   12  A    between atoms: C_14  and  C_15
REMARK   13  A    between atoms: C_15  and  C_16
REMARK   14  A    between atoms: N_18  and  C_19
REMARK   15  A    between atoms: C_19  and  C_20
REMARK   16  A    between atoms: C_20  and  C_21
REMARK   17  A    between atoms: C_21  and  C_22
REMARK   18  A    between atoms: C_22  and  C_23
REMARK   19  A    between atoms: C_23  and  C_24
REMARK   20  A    between atoms: C_24  and  N_25
REMARK                            x       y       z     vdW  Elec       q    Type
REMARK                         _______ _______ _______ _____ _____    ______ ____
ROOT
ATOM      1  C   UNL     1       5.478   5.919  15.020  0.00  0.00    +0.000 C 
ENDROOT
BRANCH   1   2
ATOM      2  C   UNL     1       5.281   6.764  16.269  0.00  0.00    +0.000 C 
ATOM      3  O   UNL     1       6.161   7.504  16.701  0.00  0.00    +0.000 OA
ATOM      4  N   UNL     1       4.054   6.646  16.866  0.00  0.00    +0.000 N 
ATOM      5  H   UNL     1       3.357   6.028  16.470  0.00  0.00    +0.000 HD
BRANCH   4   6
ATOM      6  C   UNL     1       3.736   7.398  18.068  0.00  0.00    +0.000 C 
BRANCH   6   7
ATOM      7  C   UNL     1       2.234   7.479  18.332  0.00  0.00    +0.000 C 
BRANCH   7   8
ATOM      8  C   UNL     1       1.930   8.136  19.680  0.00  0.00    +0.000 C 
BRANCH   8   9
ATOM      9  C   UNL     1       1.152   9.437  19.503  0.00  0.00    +0.000 C 
BRANCH   9  10
ATOM     10  C   UNL     1       0.756   9.646  18.035  0.00  0.00    +0.000 C 
BRANCH  10  11
ATOM     11  C   UNL     1      -0.726   9.991  17.911  0.00  0.00    +0.000 C 
BRANCH  11  12
ATOM     12  N   UNL     1      -1.097  11.030  18.884  0.00  0.00    +0.000 NA
ATOM     13  C   UNL     1      -1.346  12.220  18.440  0.00  0.00    +0.000 C 
ATOM     14  N   UNL     1      -1.289  12.572  17.139  0.00  0.00    +0.000 N 
ATOM     15  N   UNL     1      -1.692  13.208  19.308  0.00  0.00    +0.000 N 
ATOM     16  H   UNL     1      -1.032  11.870  16.471  0.00  0.00    +0.000 HD
ATOM     17  H   UNL     1      -1.465  13.473  16.721  0.00  0.00    +0.000 HD
ATOM     18  H   UNL     1      -1.731  12.938  20.288  0.00  0.00    +0.000 HD
ATOM     19  H   UNL     1      -1.911  14.180  19.126  0.00  0.00    +0.000 HD
ENDBRANCH  11  12
ENDBRANCH  10  11
ENDBRANCH   9  10
ENDBRANCH   8   9
ENDBRANCH   7   8
ENDBRANCH   6   7
ENDBRANCH   4   6
ENDBRANCH   1   2
BRANCH   1  20
ATOM     20  C   UNL     1       5.763   4.473  15.427  0.00  0.00    +0.000 C 
BRANCH  20  21
ATOM     21  C   UNL     1       7.056   4.273  16.208  0.00  0.00    +0.000 C 
BRANCH  21  23
ATOM     22  N   UNL     1       5.504   3.762  18.022  0.00  0.00    +0.000 N 
ATOM     23  C   UNL     1       6.768   4.206  17.698  0.00  0.00    +0.000 C 
ATOM     24  O   UNL     1       7.604   4.533  18.536  0.00  0.00    +0.000 OA
ATOM     25  H   UNL     1       4.842   3.549  17.285  0.00  0.00    +0.000 HD
BRANCH  22  26
ATOM     26  C   UNL     1       5.084   3.633  19.402  0.00  0.00    +0.000 C 
BRANCH  26  27
ATOM     27  C   UNL     1       4.288   2.363  19.662  0.00  0.00    +0.000 C 
BRANCH  27  28
ATOM     28  C   UNL     1       3.902   1.646  18.363  0.00  0.00    +0.000 C 
BRANCH  28  29
ATOM     29  C   UNL     1       2.451   1.911  17.966  0.00  0.00    +0.000 C 
BRANCH  29  30
ATOM     30  N   UNL     1       2.326   3.213  17.310  0.00  0.00    +0.000 NA
ATOM     31  H   UNL     1       3.228   3.684  17.290  0.00  0.00    +0.000 HD
BRANCH  30  32
ATOM     32  C   UNL     1       1.379   4.063  18.025  0.00  0.00    +0.000 C 
BRANCH  32  33
ATOM     33  C   UNL     1       0.883   3.341  19.275  0.00  0.00    +0.000 C 
BRANCH  33  34
ATOM     34  C   UNL     1       1.049   4.240  20.496  0.00  0.00    +0.000 C 
BRANCH  34  35
ATOM     35  N   UNL     1       1.880   3.581  21.496  0.00  0.00    +0.000 NA
ATOM     36  H   UNL     1       2.664   4.186  21.732  0.00  0.00    +0.000 HD
ATOM     37  H   UNL     1       2.280   2.734  21.095  0.00  0.00    +0.000 HD
ENDBRANCH  34  35
ENDBRANCH  33  34
ENDBRANCH  32  33
ENDBRANCH  30  32
ENDBRANCH  29  30
ENDBRANCH  28  29
ENDBRANCH  27  28
ENDBRANCH  26  27
ENDBRANCH  22  26
ENDBRANCH  21  23
ENDBRANCH  20  21
ENDBRANCH   1  20
TORSDOF 20
ENDMDL
MODEL 5
REMARK VINA RESULT:      -5.8      4.202     10.168
REMARK  Name = 
REMARK  20 active torsions:
REMARK  status: ('A' for Active; 'I' for Inactive)
REMARK    1  A    between atoms: N_1  and  C_2
REMARK    2  A    between atoms: C_2  and  C_3
REMARK    3  A    between atoms: C_3  and  C_4
REMARK    4  A    between atoms: C_4  and  N_5
REMARK    5  A    between atoms: N_5  and  C_6
REMARK    6  A    between atoms: C_6  and  C_7
REMARK    7  A    between atoms: C_7  and  C_8
REMARK    8  A    between atoms: C_8  and  C_9
REMARK    9  A    between atoms: C_9  and  N_10
REMARK   10  A    between atoms: C_11  and  C_13
REMARK   11  A    between atoms: C_13  and  C_14
REMARK   12  A    between atoms: C_14  and  C_15
REMARK   13  A    between atoms: C_15  and  C_16
REMARK   14  A    between atoms: N_18  and  C_19
REMARK   15  A    between atoms: C_19  and  C_20
REMARK   16  A    between atoms: C_20  and  C_21
REMARK   17  A    between atoms: C_21  and  C_22
REMARK   18  A    between atoms: C_22  and  C_23
REMARK   19  A    between atoms: C_23  and  C_24
REMARK   20  A    between atoms: C_24  and  N_25
REMARK                            x       y       z     vdW  Elec       q    Type
REMARK                         _______ _______ _______ _____ _____    ______ ____
ROOT
ATOM      1  C   UNL     1       2.775   2.128  19.090  0.00  0.00    +0.000 C 
ENDROOT
BRANCH   1   2
ATOM      2  C   UNL     1       2.840   2.868  17.762  0.00  0.00    +0.000 C 
ATOM      3  O   UNL     1       1.830   3.143  17.119  0.00  0.00    +0.000 OA
ATOM      4  N   UNL     1       4.099   3.211  17.346  0.00  0.00    +0.000 N 
ATOM      5  H   UNL     1       4.902   2.969  17.913  0.00  0.00    +0.000 HD
BRANCH   4   6
ATOM      6  C   UNL     1       4.302   3.919  16.094  0.00  0.00    +0.000 C 
BRANCH   6   7
ATOM      7  C   UNL     1       5.747   3.848  15.604  0.00  0.00    +0.000 C 
BRANCH   7   8
ATOM      8  C   UNL     1       6.346   5.241  15.404  0.00  0.00    +0.000 C 
BRANCH   8   9
ATOM      9  C   UNL     1       5.385   6.333  15.864  0.00  0.00    +0.000 C 
BRANCH   9  10
ATOM     10  C   UNL     1       5.905   7.026  17.131  0.00  0.00    +0.000 C 
BRANCH  10  11
ATOM     11  C   UNL     1       7.422   6.896  17.243  0.00  0.00    +0.000 C 
BRANCH  11  12
ATOM     12  N   UNL     1       7.823   6.724  18.647  0.00  0.00    +0.000 NA
ATOM     13  C   UNL     1       7.970   5.519  19.097  0.00  0.00    +0.000 C 
ATOM     14  N   UNL     1       7.781   4.406  18.359  0.00  0.00    +0.000 N 
ATOM     15  N   UNL     1       8.340   5.319  20.390  0.00  0.00    +0.000 N 
ATOM     16  H   UNL     1       7.503   4.516  17.402  0.00  0.00    +0.000 HD
ATOM     17  H   UNL     1       7.872   3.441  18.638  0.00  0.00    +0.000 HD
ATOM     18  H   UNL     1       8.479   6.162  20.943  0.00  0.00    +0.000 HD
ATOM     19  H   UNL     1       8.492   4.453  20.891  0.00  0.00    +0.000 HD
ENDBRANCH  11  12
ENDBRANCH  10  11
ENDBRANCH   9  10
ENDBRANCH   8   9
ENDBRANCH   7   8
ENDBRANCH   6   7
ENDBRANCH   4   6
ENDBRANCH   1   2
BRANCH   1  20
ATOM     20  C   UNL     1       1.775   2.827  20.010  0.00  0.00    +0.000 C 
BRANCH  20  21
ATOM     21  C   UNL     1       2.388   3.840  20.969  0.00  0.00    +0.000 C 
BRANCH  21  23
ATOM     22  N   UNL     1       2.006   5.996  19.889  0.00  0.00    +0.000 N 
ATOM     23  C   UNL     1       2.938   5.029  20.200  0.00  0.00    +0.000 C 
ATOM     24  O   UNL     1       4.121   5.106  19.881  0.00  0.00    +0.000 OA
ATOM     25  H   UNL     1       1.034   5.856  20.141  0.00  0.00    +0.000 HD
BRANCH  22  26
ATOM     26  C   UNL     1       2.379   7.195  19.169  0.00  0.00    +0.000 C 
BRANCH  26  27
ATOM     27  C   UNL     1       1.788   8.458  19.777  0.00  0.00    +0.000 C 
BRANCH  27  28
ATOM     28  C   UNL     1       0.987   8.167  21.051  0.00  0.00    +0.000 C 
BRANCH  28  29
ATOM     29  C   UNL     1       1.401   9.067  22.213  0.00  0.00    +0.000 C 
BRANCH  29  30
ATOM     30  N   UNL     1       0.696  10.348  22.151  0.00  0.00    +0.000 NA
ATOM     31  H   UNL     1       0.291  10.570  23.058  0.00  0.00    +0.000 HD
BRANCH  30  32
ATOM     32  C   UNL     1      -0.380  10.298  21.166  0.00  0.00    +0.000 C 
BRANCH  32  33
ATOM     33  C   UNL     1      -1.160  11.611  21.190  0.00  0.00    +0.000 C 
BRANCH  33  34
ATOM     34  C   UNL     1      -0.701  12.467  22.366  0.00  0.00    +0.000 C 
BRANCH  34  35
ATOM     35  N   UNL     1       0.310  13.422  21.929  0.00  0.00    +0.000 NA
ATOM     36  H   UNL     1       1.158  13.286  22.476  0.00  0.00    +0.000 HD
ATOM     37  H   UNL     1      -0.013  14.368  22.128  0.00  0.00    +0.000 HD
ENDBRANCH  34  35
ENDBRANCH  33  34
ENDBRANCH  32  33
ENDBRANCH  30  32
ENDBRANCH  29  30
ENDBRANCH  28  29
ENDBRANCH  27  28
ENDBRANCH  26  27
ENDBRANCH  22  26
ENDBRANCH  21  23
ENDBRANCH  20  21
ENDBRANCH   1  20
TORSDOF 20
ENDMDL
MODEL 6
REMARK VINA RESULT:      -5.8      1.952     11.394
REMARK  Name = 
REMARK  20 active torsions:
REMARK  status: ('A' for Active; 'I' for Inactive)
REMARK    1  A    between atoms: N_1  and  C_2
REMARK    2  A    between atoms: C_2  and  C_3
REMARK    3  A    between atoms: C_3  and  C_4
REMARK    4  A    between atoms: C_4  and  N_5
REMARK    5  A    between atoms: N_5  and  C_6
REMARK    6  A    between atoms: C_6  and  C_7
REMARK    7  A    between atoms: C_7  and  C_8
REMARK    8  A    between atoms: C_8  and  C_9
REMARK    9  A    between atoms: C_9  and  N_10
REMARK   10  A    between atoms: C_11  and  C_13
REMARK   11  A    between atoms: C_13  and  C_14
REMARK   12  A    between atoms: C_14  and  C_15
REMARK   13  A    between atoms: C_15  and  C_16
REMARK   14  A    between atoms: N_18  and  C_19
REMARK   15  A    between atoms: C_19  and  C_20
REMARK   16  A    between atoms: C_20  and  C_21
REMARK   17  A    between atoms: C_21  and  C_22
REMARK   18  A    between atoms: C_22  and  C_23
REMARK   19  A    between atoms: C_23  and  C_24
REMARK   20  A    between atoms: C_24  and  N_25
REMARK                            x       y       z     vdW  Elec       q    Type
REMARK                         _______ _______ _______ _____ _____    ______ ____
ROOT
ATOM      1  C   UNL     1       2.693   8.611  17.906  0.00  0.00    +0.000 C 
ENDROOT
BRANCH   1   2
ATOM      2  C   UNL     1       3.259   7.234  17.597  0.00  0.00    +0.000 C 
ATOM      3  O   UNL     1       4.278   7.082  16.929  0.00  0.00    +0.000 OA
ATOM      4  N   UNL     1       2.555   6.183  18.124  0.00  0.00    +0.000 N 
ATOM      5  H   UNL     1       1.724   6.357  18.674  0.00  0.00    +0.000 HD
BRANCH   4   6
ATOM      6  C   UNL     1       2.987   4.813  17.903  0.00  0.00    +0.000 C 
BRANCH   6   7
ATOM      7  C   UNL     1       3.744   4.234  19.096  0.00  0.00    +0.000 C 
BRANCH   7   8
ATOM      8  C   UNL     1       5.248   4.157  18.829  0.00  0.00    +0.000 C 
BRANCH   8   9
ATOM      9  C   UNL     1       5.982   5.355  19.426  0.00  0.00    +0.000 C 
BRANCH   9  10
ATOM     10  C   UNL     1       7.245   5.684  18.619  0.00  0.00    +0.000 C 
BRANCH  10  11
ATOM     11  C   UNL     1       7.536   4.595  17.589  0.00  0.00    +0.000 C 
BRANCH  11  12
ATOM     12  N   UNL     1       7.598   5.168  16.236  0.00  0.00    +0.000 NA
ATOM     13  C   UNL     1       6.966   4.557  15.286  0.00  0.00    +0.000 C 
ATOM     14  N   UNL     1       6.251   3.426  15.455  0.00  0.00    +0.000 N 
ATOM     15  N   UNL     1       6.999   5.056  14.021  0.00  0.00    +0.000 N 
ATOM     16  H   UNL     1       6.209   3.028  16.374  0.00  0.00    +0.000 HD
ATOM     17  H   UNL     1       5.738   2.896  14.768  0.00  0.00    +0.000 HD
ATOM     18  H   UNL     1       7.542   5.908  13.898  0.00  0.00    +0.000 HD
ATOM     19  H   UNL     1       6.568   4.702  13.176  0.00  0.00    +0.000 HD
ENDBRANCH  11  12
ENDBRANCH  10  11
ENDBRANCH   9  10
ENDBRANCH   8   9
ENDBRANCH   7   8
ENDBRANCH   6   7
ENDBRANCH   4   6
ENDBRANCH   1   2
BRANCH   1  20
ATOM     20  C   UNL     1       1.383   8.458  18.679  0.00  0.00    +0.000 C 
BRANCH  20  21
ATOM     21  C   UNL     1       1.021   9.643  19.564  0.00  0.00    +0.000 C 
BRANCH  21  23
ATOM     22  N   UNL     1      -0.537  10.005  17.720  0.00  0.00    +0.000 N 
ATOM     23  C   UNL     1      -0.184  10.376  19.000  0.00  0.00    +0.000 C 
ATOM     24  O   UNL     1      -0.782  11.235  19.642  0.00  0.00    +0.000 OA
ATOM     25  H   UNL     1       0.022   9.321  17.223  0.00  0.00    +0.000 HD
BRANCH  22  26
ATOM     26  C   UNL     1      -1.671  10.606  17.050  0.00  0.00    +0.000 C 
BRANCH  26  27
ATOM     27  C   UNL     1      -3.005  10.060  17.539  0.00  0.00    +0.000 C 
BRANCH  27  28
ATOM     28  C   UNL     1      -3.921  11.166  18.074  0.00  0.00    +0.000 C 
BRANCH  28  29
ATOM     29  C   UNL     1      -5.067  11.483  17.114  0.00  0.00    +0.000 C 
BRANCH  29  30
ATOM     30  N   UNL     1      -6.262  11.888  17.855  0.00  0.00    +0.000 NA
ATOM     31  H   UNL     1      -6.016  12.563  18.576  0.00  0.00    +0.000 HD
BRANCH  30  32
ATOM     32  C   UNL     1      -6.888  10.737  18.496  0.00  0.00    +0.000 C 
BRANCH  32  33
ATOM     33  C   UNL     1      -6.970  10.970  20.003  0.00  0.00    +0.000 C 
BRANCH  33  34
ATOM     34  C   UNL     1      -7.667   9.791  20.675  0.00  0.00    +0.000 C 
BRANCH  34  35
ATOM     35  N   UNL     1      -7.701   8.646  19.774  0.00  0.00    +0.000 NA
ATOM     36  H   UNL     1      -7.304   8.915  18.875  0.00  0.00    +0.000 HD
ATOM     37  H   UNL     1      -8.671   8.389  19.594  0.00  0.00    +0.000 HD
ENDBRANCH  34  35
ENDBRANCH  33  34
ENDBRANCH  32  33
ENDBRANCH  30  32
ENDBRANCH  29  30
ENDBRANCH  28  29
ENDBRANCH  27  28
ENDBRANCH  26  27
ENDBRANCH  22  26
ENDBRANCH  21  23
ENDBRANCH  20  21
ENDBRANCH   1  20
TORSDOF 20
ENDMDL
MODEL 7
REMARK VINA RESULT:      -5.8      1.264      1.454
REMARK  Name = 
REMARK  20 active torsions:
REMARK  status: ('A' for Active; 'I' for Inactive)
REMARK    1  A    between atoms: N_1  and  C_2
REMARK    2  A    between atoms: C_2  and  C_3
REMARK    3  A    between atoms: C_3  and  C_4
REMARK    4  A    between atoms: C_4  and  N_5
REMARK    5  A    between atoms: N_5  and  C_6
REMARK    6  A    between atoms: C_6  and  C_7
REMARK    7  A    between atoms: C_7  and  C_8
REMARK    8  A    between atoms: C_8  and  C_9
REMARK    9  A    between atoms: C_9  and  N_10
REMARK   10  A    between atoms: C_11  and  C_13
REMARK   11  A    between atoms: C_13  and  C_14
REMARK   12  A    between atoms: C_14  and  C_15
REMARK   13  A    between atoms: C_15  and  C_16
REMARK   14  A    between atoms: N_18  and  C_19
REMARK   15  A    between atoms: C_19  and  C_20
REMARK   16  A    between atoms: C_20  and  C_21
REMARK   17  A    between atoms: C_21  and  C_22
REMARK   18  A    between atoms: C_22  and  C_23
REMARK   19  A    between atoms: C_23  and  C_24
REMARK   20  A    between atoms: C_24  and  N_25
REMARK                            x       y       z     vdW  Elec       q    Type
REMARK                         _______ _______ _______ _____ _____    ______ ____
ROOT
ATOM      1  C   UNL     1       1.602   8.641  19.904  0.00  0.00    +0.000 C 
ENDROOT
BRANCH   1   2
ATOM      2  C   UNL     1       0.463   9.644  19.813  0.00  0.00    +0.000 C 
ATOM      3  O   UNL     1      -0.284   9.872  20.761  0.00  0.00    +0.000 OA
ATOM      4  N   UNL     1       0.338  10.277  18.604  0.00  0.00    +0.000 N 
ATOM      5  H   UNL     1       0.981  10.062  17.852  0.00  0.00    +0.000 HD
BRANCH   4   6
ATOM      6  C   UNL     1      -0.711  11.258  18.382  0.00  0.00    +0.000 C 
BRANCH   6   7
ATOM      7  C   UNL     1      -1.950  10.655  17.724  0.00  0.00    +0.000 C 
BRANCH   7   8
ATOM      8  C   UNL     1      -3.215  11.443  18.070  0.00  0.00    +0.000 C 
BRANCH   8   9
ATOM      9  C   UNL     1      -4.385  11.041  17.176  0.00  0.00    +0.000 C 
BRANCH   9  10
ATOM     10  C   UNL     1      -5.495  12.099  17.215  0.00  0.00    +0.000 C 
BRANCH  10  11
ATOM     11  C   UNL     1      -6.408  11.891  18.421  0.00  0.00    +0.000 C 
BRANCH  11  12
ATOM     12  N   UNL     1      -6.878  10.498  18.478  0.00  0.00    +0.000 NA
ATOM     13  C   UNL     1      -7.156   9.996  19.639  0.00  0.00    +0.000 C 
ATOM     14  N   UNL     1      -7.044  10.668  20.803  0.00  0.00    +0.000 N 
ATOM     15  N   UNL     1      -7.593   8.712  19.733  0.00  0.00    +0.000 N 
ATOM     16  H   UNL     1      -6.720  11.616  20.771  0.00  0.00    +0.000 HD
ATOM     17  H   UNL     1      -7.238  10.345  21.739  0.00  0.00    +0.000 HD
ATOM     18  H   UNL     1      -7.673   8.208  18.852  0.00  0.00    +0.000 HD
ATOM     19  H   UNL     1      -7.845   8.174  20.553  0.00  0.00    +0.000 HD
ENDBRANCH  11  12
ENDBRANCH  10  11
ENDBRANCH   9  10
ENDBRANCH   8   9
ENDBRANCH   7   8
ENDBRANCH   6   7
ENDBRANCH   4   6
ENDBRANCH   1   2
BRANCH   1  20
ATOM     20  C   UNL     1       1.789   7.962  18.546  0.00  0.00    +0.000 C 
BRANCH  20  21
ATOM     21  C   UNL     1       3.135   7.277  18.354  0.00  0.00    +0.000 C 
BRANCH  21  23
ATOM     22  N   UNL     1       2.000   5.243  19.084  0.00  0.00    +0.000 N 
ATOM     23  C   UNL     1       3.174   5.965  19.118  0.00  0.00    +0.000 C 
ATOM     24  O   UNL     1       4.177   5.593  19.720  0.00  0.00    +0.000 OA
ATOM     25  H   UNL     1       1.191   5.622  18.607  0.00  0.00    +0.000 HD
BRANCH  22  26
ATOM     26  C   UNL     1       1.885   3.965  19.756  0.00  0.00    +0.000 C 
BRANCH  26  27
ATOM     27  C   UNL     1       1.514   2.831  18.811  0.00  0.00    +0.000 C 
BRANCH  27  28
ATOM     28  C   UNL     1       2.297   2.896  17.495  0.00  0.00    +0.000 C 
BRANCH  28  29
ATOM     29  C   UNL     1       3.705   2.319  17.631  0.00  0.00    +0.000 C 
BRANCH  29  30
ATOM     30  N   UNL     1       4.696   3.393  17.713  0.00  0.00    +0.000 NA
ATOM     31  H   UNL     1       4.265   4.240  18.078  0.00  0.00    +0.000 HD
BRANCH  30  32
ATOM     32  C   UNL     1       5.249   3.688  16.396  0.00  0.00    +0.000 C 
BRANCH  32  33
ATOM     33  C   UNL     1       5.121   5.182  16.108  0.00  0.00    +0.000 C 
BRANCH  33  34
ATOM     34  C   UNL     1       6.419   5.896  16.471  0.00  0.00    +0.000 C 
BRANCH  34  35
ATOM     35  N   UNL     1       7.467   5.548  15.521  0.00  0.00    +0.000 NA
ATOM     36  H   UNL     1       7.935   4.699  15.835  0.00  0.00    +0.000 HD
ATOM     37  H   UNL     1       8.174   6.282  15.517  0.00  0.00    +0.000 HD
ENDBRANCH  34  35
ENDBRANCH  33  34
ENDBRANCH  32  33
ENDBRANCH  30  32
ENDBRANCH  29  30
ENDBRANCH  28  29
ENDBRANCH  27  28
ENDBRANCH  26  27
ENDBRANCH  22  26
ENDBRANCH  21  23
ENDBRANCH  20  21
ENDBRANCH   1  20
TORSDOF 20
ENDMDL
MODEL 8
REMARK VINA RESULT:      -5.8      5.997     10.075
REMARK  Name = 
REMARK  20 active torsions:
REMARK  status: ('A' for Active; 'I' for Inactive)
REMARK    1  A    between atoms: N_1  and  C_2
REMARK    2  A    between atoms: C_2  and  C_3
REMARK    3  A    between atoms: C_3  and  C_4
REMARK    4  A    between atoms: C_4  and  N_5
REMARK    5  A    between atoms: N_5  and  C_6
REMARK    6  A    between atoms: C_6  and  C_7
REMARK    7  A    between atoms: C_7  and  C_8
REMARK    8  A    between atoms: C_8  and  C_9
REMARK    9  A    between atoms: C_9  and  N_10
REMARK   10  A    between atoms: C_11  and  C_13
REMARK   11  A    between atoms: C_13  and  C_14
REMARK   12  A    between atoms: C_14  and  C_15
REMARK   13  A    between atoms: C_15  and  C_16
REMARK   14  A    between atoms: N_18  and  C_19
REMARK   15  A    between atoms: C_19  and  C_20
REMARK   16  A    between atoms: C_20  and  C_21
REMARK   17  A    between atoms: C_21  and  C_22
REMARK   18  A    between atoms: C_22  and  C_23
REMARK   19  A    between atoms: C_23  and  C_24
REMARK   20  A    between atoms: C_24  and  N_25
REMARK                            x       y       z     vdW  Elec       q    Type
REMARK                         _______ _______ _______ _____ _____    ______ ____
ROOT
ATOM      1  C   UNL     1       7.055   5.134  16.517  0.00  0.00    +0.000 C 
ENDROOT
BRANCH   1   2
ATOM      2  C   UNL     1       6.826   6.615  16.778  0.00  0.00    +0.000 C 
ATOM      3  O   UNL     1       5.738   7.151  16.583  0.00  0.00    +0.000 OA
ATOM      4  N   UNL     1       7.914   7.298  17.253  0.00  0.00    +0.000 N 
ATOM      5  H   UNL     1       8.789   6.812  17.405  0.00  0.00    +0.000 HD
BRANCH   4   6
ATOM      6  C   UNL     1       7.832   8.720  17.543  0.00  0.00    +0.000 C 
BRANCH   6   7
ATOM      7  C   UNL     1       8.721   9.135  18.713  0.00  0.00    +0.000 C 
BRANCH   7   8
ATOM      8  C   UNL     1       9.407  10.477  18.455  0.00  0.00    +0.000 C 
BRANCH   8   9
ATOM      9  C   UNL     1       8.450  11.478  17.813  0.00  0.00    +0.000 C 
BRANCH   9  10
ATOM     10  C   UNL     1       9.030  12.898  17.855  0.00  0.00    +0.000 C 
BRANCH  10  11
ATOM     11  C   UNL     1       9.372  13.308  19.286  0.00  0.00    +0.000 C 
BRANCH  11  12
ATOM     12  N   UNL     1       8.688  14.561  19.641  0.00  0.00    +0.000 NA
ATOM     13  C   UNL     1       9.378  15.656  19.630  0.00  0.00    +0.000 C 
ATOM     14  N   UNL     1      10.687  15.725  19.313  0.00  0.00    +0.000 N 
ATOM     15  N   UNL     1       8.782  16.835  19.952  0.00  0.00    +0.000 N 
ATOM     16  H   UNL     1      11.161  14.874  19.074  0.00  0.00    +0.000 HD
ATOM     17  H   UNL     1      11.288  16.535  19.285  0.00  0.00    +0.000 HD
ATOM     18  H   UNL     1       7.795  16.777  20.193  0.00  0.00    +0.000 HD
ATOM     19  H   UNL     1       9.175  17.767  19.996  0.00  0.00    +0.000 HD
ENDBRANCH  11  12
ENDBRANCH  10  11
ENDBRANCH   9  10
ENDBRANCH   8   9
ENDBRANCH   7   8
ENDBRANCH   6   7
ENDBRANCH   4   6
ENDBRANCH   1   2
BRANCH   1  20
ATOM     20  C   UNL     1       5.816   4.542  15.843  0.00  0.00    +0.000 C 
BRANCH  20  21
ATOM     21  C   UNL     1       5.010   3.587  16.714  0.00  0.00    +0.000 C 
BRANCH  21  23
ATOM     22  N   UNL     1       4.017   5.246  18.205  0.00  0.00    +0.000 N 
ATOM     23  C   UNL     1       4.854   4.155  18.115  0.00  0.00    +0.000 C 
ATOM     24  O   UNL     1       5.439   3.673  19.080  0.00  0.00    +0.000 OA
ATOM     25  H   UNL     1       3.596   5.627  17.365  0.00  0.00    +0.000 HD
BRANCH  22  26
ATOM     26  C   UNL     1       3.758   5.891  19.475  0.00  0.00    +0.000 C 
BRANCH  26  27
ATOM     27  C   UNL     1       2.378   6.528  19.545  0.00  0.00    +0.000 C 
BRANCH  27  28
ATOM     28  C   UNL     1       1.512   5.913  20.651  0.00  0.00    +0.000 C 
BRANCH  28  29
ATOM     29  C   UNL     1       2.163   4.680  21.275  0.00  0.00    +0.000 C 
BRANCH  29  30
ATOM     30  N   UNL     1       1.413   3.471  20.929  0.00  0.00    +0.000 NA
ATOM     31  H   UNL     1       0.837   3.179  21.716  0.00  0.00    +0.000 HD
BRANCH  30  32
ATOM     32  C   UNL     1       2.320   2.380  20.592  0.00  0.00    +0.000 C 
BRANCH  32  33
ATOM     33  C   UNL     1       2.131   1.988  19.128  0.00  0.00    +0.000 C 
BRANCH  33  34
ATOM     34  C   UNL     1       0.891   2.673  18.562  0.00  0.00    +0.000 C 
BRANCH  34  35
ATOM     35  N   UNL     1       1.277   3.696  17.599  0.00  0.00    +0.000 NA
ATOM     36  H   UNL     1       0.897   4.594  17.893  0.00  0.00    +0.000 HD
ATOM     37  H   UNL     1       0.850   3.485  16.697  0.00  0.00    +0.000 HD
ENDBRANCH  34  35
ENDBRANCH  33  34
ENDBRANCH  32  33
ENDBRANCH  30  32
ENDBRANCH  29  30
ENDBRANCH  28  29
ENDBRANCH  27  28
ENDBRANCH  26  27
ENDBRANCH  22  26
ENDBRANCH  21  23
ENDBRANCH  20  21
ENDBRANCH   1  20
TORSDOF 20
ENDMDL
MODEL 9
REMARK VINA RESULT:      -5.8      6.503      9.586
REMARK  Name = 
REMARK  20 active torsions:
REMARK  status: ('A' for Active; 'I' for Inactive)
REMARK    1  A    between atoms: N_1  and  C_2
REMARK    2  A    between atoms: C_2  and  C_3
REMARK    3  A    between atoms: C_3  and  C_4
REMARK    4  A    between atoms: C_4  and  N_5
REMARK    5  A    between atoms: N_5  and  C_6
REMARK    6  A    between atoms: C_6  and  C_7
REMARK    7  A    between atoms: C_7  and  C_8
REMARK    8  A    between atoms: C_8  and  C_9
REMARK    9  A    between atoms: C_9  and  N_10
REMARK   10  A    between atoms: C_11  and  C_13
REMARK   11  A    between atoms: C_13  and  C_14
REMARK   12  A    between atoms: C_14  and  C_15
REMARK   13  A    between atoms: C_15  and  C_16
REMARK   14  A    between atoms: N_18  and  C_19
REMARK   15  A    between atoms: C_19  and  C_20
REMARK   16  A    between atoms: C_20  and  C_21
REMARK   17  A    between atoms: C_21  and  C_22
REMARK   18  A    between atoms: C_22  and  C_23
REMARK   19  A    between atoms: C_23  and  C_24
REMARK   20  A    between atoms: C_24  and  N_25
REMARK                            x       y       z     vdW  Elec       q    Type
REMARK                         _______ _______ _______ _____ _____    ______ ____
ROOT
ATOM      1  C   UNL     1       5.770   5.399  15.164  0.00  0.00    +0.000 C 
ENDROOT
BRANCH   1   2
ATOM      2  C   UNL     1       4.791   4.807  16.166  0.00  0.00    +0.000 C 
ATOM      3  O   UNL     1       4.609   3.597  16.263  0.00  0.00    +0.000 OA
ATOM      4  N   UNL     1       4.138   5.720  16.953  0.00  0.00    +0.000 N 
ATOM      5  H   UNL     1       4.326   6.708  16.840  0.00  0.00    +0.000 HD
BRANCH   4   6
ATOM      6  C   UNL     1       3.174   5.288  17.950  0.00  0.00    +0.000 C 
BRANCH   6   7
ATOM      7  C   UNL     1       3.398   5.946  19.309  0.00  0.00    +0.000 C 
BRANCH   7   8
ATOM      8  C   UNL     1       2.095   6.068  20.101  0.00  0.00    +0.000 C 
BRANCH   8   9
ATOM      9  C   UNL     1       1.905   4.885  21.047  0.00  0.00    +0.000 C 
BRANCH   9  10
ATOM     10  C   UNL     1       0.984   3.827  20.424  0.00  0.00    +0.000 C 
BRANCH  10  11
ATOM     11  C   UNL     1       1.577   2.428  20.577  0.00  0.00    +0.000 C 
BRANCH  11  12
ATOM     12  N   UNL     1       2.147   1.966  19.302  0.00  0.00    +0.000 NA
ATOM     13  C   UNL     1       3.436   1.925  19.190  0.00  0.00    +0.000 C 
ATOM     14  N   UNL     1       4.294   2.276  20.170  0.00  0.00    +0.000 N 
ATOM     15  N   UNL     1       4.001   1.503  18.028  0.00  0.00    +0.000 N 
ATOM     16  H   UNL     1       3.912   2.596  21.040  0.00  0.00    +0.000 HD
ATOM     17  H   UNL     1       5.303   2.273  20.156  0.00  0.00    +0.000 HD
ATOM     18  H   UNL     1       3.349   1.242  17.291  0.00  0.00    +0.000 HD
ATOM     19  H   UNL     1       4.979   1.417  17.779  0.00  0.00    +0.000 HD
ENDBRANCH  11  12
ENDBRANCH  10  11
ENDBRANCH   9  10
ENDBRANCH   8   9
ENDBRANCH   7   8
ENDBRANCH   6   7
ENDBRANCH   4   6
ENDBRANCH   1   2
BRANCH   1  20
ATOM     20  C   UNL     1       7.185   4.927  15.500  0.00  0.00    +0.000 C 
BRANCH  20  21
ATOM     21  C   UNL     1       7.465   4.757  16.988  0.00  0.00    +0.000 C 
BRANCH  21  23
ATOM     22  N   UNL     1       7.856   7.167  17.015  0.00  0.00    +0.000 N 
ATOM     23  C   UNL     1       7.340   6.091  17.704  0.00  0.00    +0.000 C 
ATOM     24  O   UNL     1       6.822   6.187  18.814  0.00  0.00    +0.000 OA
ATOM     25  H   UNL     1       8.311   7.020  16.121  0.00  0.00    +0.000 HD
BRANCH  22  26
ATOM     26  C   UNL     1       7.801   8.507  17.562  0.00  0.00    +0.000 C 
BRANCH  26  27
ATOM     27  C   UNL     1       8.691   8.685  18.782  0.00  0.00    +0.000 C 
BRANCH  27  28
ATOM     28  C   UNL     1       9.237  10.113  18.896  0.00  0.00    +0.000 C 
BRANCH  28  29
ATOM     29  C   UNL     1       8.591  11.061  17.889  0.00  0.00    +0.000 C 
BRANCH  29  30
ATOM     30  N   UNL     1       9.115  12.418  18.047  0.00  0.00    +0.000 NA
ATOM     31  H   UNL     1       8.558  13.075  17.506  0.00  0.00    +0.000 HD
BRANCH  30  32
ATOM     32  C   UNL     1      10.497  12.496  17.584  0.00  0.00    +0.000 C 
BRANCH  32  33
ATOM     33  C   UNL     1      11.246  13.562  18.380  0.00  0.00    +0.000 C 
BRANCH  33  34
ATOM     34  C   UNL     1      10.265  14.364  19.229  0.00  0.00    +0.000 C 
BRANCH  34  35
ATOM     35  N   UNL     1      10.362  15.781  18.906  0.00  0.00    +0.000 NA
ATOM     36  H   UNL     1      11.204  16.165  19.330  0.00  0.00    +0.000 HD
ATOM     37  H   UNL     1       9.577  16.276  19.326  0.00  0.00    +0.000 HD
ENDBRANCH  34  35
ENDBRANCH  33  34
ENDBRANCH  32  33
ENDBRANCH  30  32
ENDBRANCH  29  30
ENDBRANCH  28  29
ENDBRANCH  27  28
ENDBRANCH  26  27
ENDBRANCH  22  26
ENDBRANCH  21  23
ENDBRANCH  20  21
ENDBRANCH   1  20
TORSDOF 20
ENDMDL
