MODEL 1
REMARK VINA RESULT:      -7.2      0.000      0.000
REMARK  Name = 
REMARK  9 active torsions:
REMARK  status: ('A' for Active; 'I' for Inactive)
REMARK    1  A    between atoms: C_1  and  C_2
REMARK    2  A    between atoms: C_4  and  C_5
REMARK    3  A    between atoms: N_7  and  C_8
REMARK    4  A    between atoms: C_8  and  P_9
REMARK    5  A    between atoms: C_8  and  P_13
REMARK    6  A    between atoms: P_9  and  O_11
REMARK    7  A    between atoms: P_9  and  O_12
REMARK    8  A    between atoms: P_13  and  O_15
REMARK    9  A    between atoms: P_13  and  O_16
REMARK                            x       y       z     vdW  Elec       q    Type
REMARK                         _______ _______ _______ _____ _____    ______ ____
ROOT
ATOM      1  C   UNL     1       5.664   5.744  17.707  0.00  0.00    +0.000 C 
ENDROOT
BRANCH   1   8
ATOM      2  C   UNL     1       3.626   1.802  18.365  0.00  0.00    +0.000 C 
ATOM      3  C   UNL     1       2.901   2.946  17.671  0.00  0.00    +0.000 C 
ATOM      4  C   UNL     1       1.873   3.635  18.577  0.00  0.00    +0.000 C 
ATOM      5  C   UNL     1       2.553   4.473  19.664  0.00  0.00    +0.000 C 
ATOM      6  C   UNL     1       1.508   5.265  20.449  0.00  0.00    +0.000 C 
ATOM      7  C   UNL     1       3.601   5.427  19.056  0.00  0.00    +0.000 C 
ATOM      8  N   UNL     1       4.580   4.752  18.177  0.00  0.00    +0.000 NA
ATOM      9  C   UNL     1       3.882   3.992  17.119  0.00  0.00    +0.000 C 
ENDBRANCH   1   8
BRANCH   1  10
ATOM     10  P   UNL     1       7.093   5.513  18.826  0.00  0.00    +0.000 P 
ATOM     11  O   UNL     1       6.181   4.935  19.911  0.00  0.00    +0.000 OA
BRANCH  10  12
ATOM     12  O   UNL     1       7.654   4.242  17.953  0.00  0.00    +0.000 OA
ATOM     13  H   UNL     1       6.932   3.715  17.557  0.00  0.00    +0.000 HD
ENDBRANCH  10  12
BRANCH  10  14
ATOM     14  O   UNL     1       8.444   5.296  19.885  0.00  0.00    +0.000 OA
ATOM     15  H   UNL     1       9.214   5.262  19.278  0.00  0.00    +0.000 HD
ENDBRANCH  10  14
ENDBRANCH   1  10
BRANCH   1  16
ATOM     16  P   UNL     1       6.214   5.569  15.970  0.00  0.00    +0.000 P 
ATOM     17  O   UNL     1       5.223   6.554  15.366  0.00  0.00    +0.000 OA
BRANCH  16  18
ATOM     18  O   UNL     1       7.641   6.331  16.231  0.00  0.00    +0.000 OA
ATOM     19  H   UNL     1       7.497   7.199  16.656  0.00  0.00    +0.000 HD
ENDBRANCH  16  18
BRANCH  16  20
ATOM     20  O   UNL     1       6.734   5.403  14.328  0.00  0.00    +0.000 OA
ATOM     21  H   UNL     1       5.907   5.124  13.877  0.00  0.00    +0.000 HD
ENDBRANCH  16  20
ENDBRANCH   1  16
TORSDOF 7
ENDMDL
MODEL 2
REMARK VINA RESULT:      -7.1      0.740      1.030
REMARK  Name = 
REMARK  9 active torsions:
REMARK  status: ('A' for Active; 'I' for Inactive)
REMARK    1  A    between atoms: C_1  and  C_2
REMARK    2  A    between atoms: C_4  and  C_5
REMARK    3  A    between atoms: N_7  and  C_8
REMARK    4  A    between atoms: C_8  and  P_9
REMARK    5  A    between atoms: C_8  and  P_13
REMARK    6  A    between atoms: P_9  and  O_11
REMARK    7  A    between atoms: P_9  and  O_12
REMARK    8  A    between atoms: P_13  and  O_15
REMARK    9  A    between atoms: P_13  and  O_16
REMARK                            x       y       z     vdW  Elec       q    Type
REMARK                         _______ _______ _______ _____ _____    ______ ____
ROOT
ATOM      1  C   UNL     1       6.028   5.816  17.852  0.00  0.00    +0.000 C 
ENDROOT
BRANCH   1   8
ATOM      2  C   UNL     1       3.485   2.125  18.046  0.00  0.00    +0.000 C 
ATOM      3  C   UNL     1       2.921   3.430  17.502  0.00  0.00    +0.000 C 
ATOM      4  C   UNL     1       1.987   4.133  18.494  0.00  0.00    +0.000 C 
ATOM      5  C   UNL     1       2.763   4.736  19.669  0.00  0.00    +0.000 C 
ATOM      6  C   UNL     1       1.826   5.556  20.554  0.00  0.00    +0.000 C 
ATOM      7  C   UNL     1       3.932   5.611  19.172  0.00  0.00    +0.000 C 
ATOM      8  N   UNL     1       4.820   4.924  18.208  0.00  0.00    +0.000 NA
ATOM      9  C   UNL     1       4.035   4.397  17.072  0.00  0.00    +0.000 C 
ENDBRANCH   1   8
BRANCH   1  10
ATOM     10  P   UNL     1       7.305   5.482  19.120  0.00  0.00    +0.000 P 
ATOM     11  O   UNL     1       7.991   4.470  18.199  0.00  0.00    +0.000 OA
BRANCH  10  12
ATOM     12  O   UNL     1       8.034   6.929  18.860  0.00  0.00    +0.000 OA
ATOM     13  H   UNL     1       7.418   7.595  18.496  0.00  0.00    +0.000 HD
ENDBRANCH  10  12
BRANCH  10  14
ATOM     14  O   UNL     1       8.511   5.166  20.319  0.00  0.00    +0.000 OA
ATOM     15  H   UNL     1       7.997   4.841  21.089  0.00  0.00    +0.000 HD
ENDBRANCH  10  14
ENDBRANCH   1  10
BRANCH   1  16
ATOM     16  P   UNL     1       6.743   5.570  16.186  0.00  0.00    +0.000 P 
ATOM     17  O   UNL     1       5.566   6.127  15.399  0.00  0.00    +0.000 OA
BRANCH  16  18
ATOM     18  O   UNL     1       7.869   6.747  16.377  0.00  0.00    +0.000 OA
ATOM     19  H   UNL     1       8.758   6.417  16.142  0.00  0.00    +0.000 HD
ENDBRANCH  16  18
BRANCH  16  20
ATOM     20  O   UNL     1       7.420   5.338  14.611  0.00  0.00    +0.000 OA
ATOM     21  H   UNL     1       7.862   4.464  14.702  0.00  0.00    +0.000 HD
ENDBRANCH  16  20
ENDBRANCH   1  16
TORSDOF 7
ENDMDL
MODEL 3
REMARK VINA RESULT:      -7.0      1.231      2.004
REMARK  Name = 
REMARK  9 active torsions:
REMARK  status: ('A' for Active; 'I' for Inactive)
REMARK    1  A    between atoms: C_1  and  C_2
REMARK    2  A    between atoms: C_4  and  C_5
REMARK    3  A    between atoms: N_7  and  C_8
REMARK    4  A    between atoms: C_8  and  P_9
REMARK    5  A    between atoms: C_8  and  P_13
REMARK    6  A    between atoms: P_9  and  O_11
REMARK    7  A    between atoms: P_9  and  O_12
REMARK    8  A    between atoms: P_13  and  O_15
REMARK    9  A    between atoms: P_13  and  O_16
REMARK                            x       y       z     vdW  Elec       q    Type
REMARK                         _______ _______ _______ _____ _____    ______ ____
ROOT
ATOM      1  C   UNL     1       5.897   5.665  17.539  0.00  0.00    +0.000 C 
ENDROOT
BRANCH   1   8
ATOM      2  C   UNL     1       1.574   4.483  17.739  0.00  0.00    +0.000 C 
ATOM      3  C   UNL     1       2.272   5.084  18.951  0.00  0.00    +0.000 C 
ATOM      4  C   UNL     1       2.614   4.038  20.019  0.00  0.00    +0.000 C 
ATOM      5  C   UNL     1       3.761   3.127  19.570  0.00  0.00    +0.000 C 
ATOM      6  C   UNL     1       4.177   2.201  20.713  0.00  0.00    +0.000 C 
ATOM      7  C   UNL     1       4.970   3.954  19.085  0.00  0.00    +0.000 C 
ATOM      8  N   UNL     1       4.625   4.965  18.062  0.00  0.00    +0.000 NA
ATOM      9  C   UNL     1       3.546   5.847  18.554  0.00  0.00    +0.000 C 
ENDBRANCH   1   8
BRANCH   1  10
ATOM     10  P   UNL     1       7.163   5.474  18.848  0.00  0.00    +0.000 P 
ATOM     11  O   UNL     1       7.904   4.427  18.012  0.00  0.00    +0.000 OA
BRANCH  10  12
ATOM     12  O   UNL     1       7.840   6.926  18.494  0.00  0.00    +0.000 OA
ATOM     13  H   UNL     1       8.760   6.997  18.817  0.00  0.00    +0.000 HD
ENDBRANCH  10  12
BRANCH  10  14
ATOM     14  O   UNL     1       8.359   5.293  20.084  0.00  0.00    +0.000 OA
ATOM     15  H   UNL     1       8.266   6.109  20.621  0.00  0.00    +0.000 HD
ENDBRANCH  10  14
ENDBRANCH   1  10
BRANCH   1  16
ATOM     16  P   UNL     1       6.561   5.043  15.952  0.00  0.00    +0.000 P 
ATOM     17  O   UNL     1       5.369   5.435  15.090  0.00  0.00    +0.000 OA
BRANCH  16  18
ATOM     18  O   UNL     1       7.707   6.210  15.850  0.00  0.00    +0.000 OA
ATOM     19  H   UNL     1       8.006   6.322  14.926  0.00  0.00    +0.000 HD
ENDBRANCH  16  18
BRANCH  16  20
ATOM     20  O   UNL     1       7.189   4.454  14.451  0.00  0.00    +0.000 OA
ATOM     21  H   UNL     1       6.462   4.667  13.825  0.00  0.00    +0.000 HD
ENDBRANCH  16  20
ENDBRANCH   1  16
TORSDOF 7
ENDMDL
MODEL 4
REMARK VINA RESULT:      -7.0      0.912      2.261
REMARK  Name = 
REMARK  9 active torsions:
REMARK  status: ('A' for Active; 'I' for Inactive)
REMARK    1  A    between atoms: C_1  and  C_2
REMARK    2  A    between atoms: C_4  and  C_5
REMARK    3  A    between atoms: N_7  and  C_8
REMARK    4  A    between atoms: C_8  and  P_9
REMARK    5  A    between atoms: C_8  and  P_13
REMARK    6  A    between atoms: P_9  and  O_11
REMARK    7  A    between atoms: P_9  and  O_12
REMARK    8  A    between atoms: P_13  and  O_15
REMARK    9  A    between atoms: P_13  and  O_16
REMARK                            x       y       z     vdW  Elec       q    Type
REMARK                         _______ _______ _______ _____ _____    ______ ____
ROOT
ATOM      1  C   UNL     1       5.907   6.019  17.609  0.00  0.00    +0.000 C 
ENDROOT
BRANCH   1   8
ATOM      2  C   UNL     1       1.994   6.057  19.803  0.00  0.00    +0.000 C 
ATOM      3  C   UNL     1       3.044   4.997  20.104  0.00  0.00    +0.000 C 
ATOM      4  C   UNL     1       2.699   3.631  19.499  0.00  0.00    +0.000 C 
ATOM      5  C   UNL     1       2.859   3.631  17.976  0.00  0.00    +0.000 C 
ATOM      6  C   UNL     1       2.658   2.220  17.424  0.00  0.00    +0.000 C 
ATOM      7  C   UNL     1       4.243   4.173  17.564  0.00  0.00    +0.000 C 
ATOM      8  N   UNL     1       4.568   5.487  18.161  0.00  0.00    +0.000 NA
ATOM      9  C   UNL     1       4.442   5.428  19.632  0.00  0.00    +0.000 C 
ENDBRANCH   1   8
BRANCH   1  10
ATOM     10  P   UNL     1       7.175   5.625  18.869  0.00  0.00    +0.000 P 
ATOM     11  O   UNL     1       7.736   4.504  17.990  0.00  0.00    +0.000 OA
BRANCH  10  12
ATOM     12  O   UNL     1       8.036   6.977  18.518  0.00  0.00    +0.000 OA
ATOM     13  H   UNL     1       8.981   6.784  18.355  0.00  0.00    +0.000 HD
ENDBRANCH  10  12
BRANCH  10  14
ATOM     14  O   UNL     1       8.373   5.253  20.061  0.00  0.00    +0.000 OA
ATOM     15  H   UNL     1       7.870   4.780  20.758  0.00  0.00    +0.000 HD
ENDBRANCH  10  14
ENDBRANCH   1  10
BRANCH   1  16
ATOM     16  P   UNL     1       6.430   5.350  15.988  0.00  0.00    +0.000 P 
ATOM     17  O   UNL     1       5.336   6.009  15.159  0.00  0.00    +0.000 OA
BRANCH  16  18
ATOM     18  O   UNL     1       7.784   6.271  15.923  0.00  0.00    +0.000 OA
ATOM     19  H   UNL     1       7.825   6.768  15.083  0.00  0.00    +0.000 HD
ENDBRANCH  16  18
BRANCH  16  20
ATOM     20  O   UNL     1       6.924   4.717  14.455  0.00  0.00    +0.000 OA
ATOM     21  H   UNL     1       6.531   3.816  14.467  0.00  0.00    +0.000 HD
ENDBRANCH  16  20
ENDBRANCH   1  16
TORSDOF 7
ENDMDL
MODEL 5
REMARK VINA RESULT:      -7.0      3.942      5.094
REMARK  Name = 
REMARK  9 active torsions:
REMARK  status: ('A' for Active; 'I' for Inactive)
REMARK    1  A    between atoms: C_1  and  C_2
REMARK    2  A    between atoms: C_4  and  C_5
REMARK    3  A    between atoms: N_7  and  C_8
REMARK    4  A    between atoms: C_8  and  P_9
REMARK    5  A    between atoms: C_8  and  P_13
REMARK    6  A    between atoms: P_9  and  O_11
REMARK    7  A    between atoms: P_9  and  O_12
REMARK    8  A    between atoms: P_13  and  O_15
REMARK    9  A    between atoms: P_13  and  O_16
REMARK                            x       y       z     vdW  Elec       q    Type
REMARK                         _______ _______ _______ _____ _____    ______ ____
ROOT
ATOM      1  C   UNL     1       3.533   3.007  18.536  0.00  0.00    +0.000 C 
ENDROOT
BRANCH   1   8
ATOM      2  C   UNL     1       3.711   7.378  17.542  0.00  0.00    +0.000 C 
ATOM      3  C   UNL     1       4.630   6.385  16.846  0.00  0.00    +0.000 C 
ATOM      4  C   UNL     1       6.070   6.439  17.371  0.00  0.00    +0.000 C 
ATOM      5  C   UNL     1       6.180   5.847  18.780  0.00  0.00    +0.000 C 
ATOM      6  C   UNL     1       7.645   5.776  19.209  0.00  0.00    +0.000 C 
ATOM      7  C   UNL     1       5.535   4.447  18.844  0.00  0.00    +0.000 C 
ATOM      8  N   UNL     1       4.150   4.406  18.327  0.00  0.00    +0.000 NA
ATOM      9  C   UNL     1       4.100   4.946  16.952  0.00  0.00    +0.000 C 
ENDBRANCH   1   8
BRANCH   1  10
ATOM     10  P   UNL     1       4.501   2.213  19.871  0.00  0.00    +0.000 P 
ATOM     11  O   UNL     1       3.292   2.259  20.809  0.00  0.00    +0.000 OA
BRANCH  10  12
ATOM     12  O   UNL     1       4.461   0.755  19.120  0.00  0.00    +0.000 OA
ATOM     13  H   UNL     1       4.477   0.837  18.146  0.00  0.00    +0.000 HD
ENDBRANCH  10  12
BRANCH  10  14
ATOM     14  O   UNL     1       5.417   1.463  21.133  0.00  0.00    +0.000 OA
ATOM     15  H   UNL     1       6.193   1.086  20.667  0.00  0.00    +0.000 HD
ENDBRANCH  10  14
ENDBRANCH   1  10
BRANCH   1  16
ATOM     16  P   UNL     1       1.755   2.971  18.967  0.00  0.00    +0.000 P 
ATOM     17  O   UNL     1       1.248   3.656  17.706  0.00  0.00    +0.000 OA
BRANCH  16  18
ATOM     18  O   UNL     1       1.633   1.347  18.785  0.00  0.00    +0.000 OA
ATOM     19  H   UNL     1       1.753   0.892  19.642  0.00  0.00    +0.000 HD
ENDBRANCH  16  18
BRANCH  16  20
ATOM     20  O   UNL     1       0.074   2.937  19.376  0.00  0.00    +0.000 OA
ATOM     21  H   UNL     1      -0.270   3.725  18.901  0.00  0.00    +0.000 HD
ENDBRANCH  16  20
ENDBRANCH   1  16
TORSDOF 7
ENDMDL
MODEL 6
REMARK VINA RESULT:      -7.0      1.349      3.266
REMARK  Name = 
REMARK  9 active torsions:
REMARK  status: ('A' for Active; 'I' for Inactive)
REMARK    1  A    between atoms: C_1  and  C_2
REMARK    2  A    between atoms: C_4  and  C_5
REMARK    3  A    between atoms: N_7  and  C_8
REMARK    4  A    between atoms: C_8  and  P_9
REMARK    5  A    between atoms: C_8  and  P_13
REMARK    6  A    between atoms: P_9  and  O_11
REMARK    7  A    between atoms: P_9  and  O_12
REMARK    8  A    between atoms: P_13  and  O_15
REMARK    9  A    between atoms: P_13  and  O_16
REMARK                            x       y       z     vdW  Elec       q    Type
REMARK                         _______ _______ _______ _____ _____    ______ ____
ROOT
ATOM      1  C   UNL     1       5.958   4.513  17.605  0.00  0.00    +0.000 C 
ENDROOT
BRANCH   1   8
ATOM      2  C   UNL     1       1.990   3.635  19.506  0.00  0.00    +0.000 C 
ATOM      3  C   UNL     1       2.077   4.049  18.044  0.00  0.00    +0.000 C 
ATOM      4  C   UNL     1       1.651   5.504  17.812  0.00  0.00    +0.000 C 
ATOM      5  C   UNL     1       2.693   6.489  18.351  0.00  0.00    +0.000 C 
ATOM      6  C   UNL     1       2.312   7.919  17.968  0.00  0.00    +0.000 C 
ATOM      7  C   UNL     1       4.102   6.151  17.824  0.00  0.00    +0.000 C 
ATOM      8  N   UNL     1       4.497   4.743  18.046  0.00  0.00    +0.000 NA
ATOM      9  C   UNL     1       3.487   3.830  17.472  0.00  0.00    +0.000 C 
ENDBRANCH   1   8
BRANCH   1  10
ATOM     10  P   UNL     1       6.025   4.910  15.819  0.00  0.00    +0.000 P 
ATOM     11  O   UNL     1       7.349   5.655  16.010  0.00  0.00    +0.000 OA
BRANCH  10  12
ATOM     12  O   UNL     1       6.406   3.364  15.424  0.00  0.00    +0.000 OA
ATOM     13  H   UNL     1       6.426   3.222  14.457  0.00  0.00    +0.000 HD
ENDBRANCH  10  12
BRANCH  10  14
ATOM     14  O   UNL     1       6.088   5.287  14.132  0.00  0.00    +0.000 OA
ATOM     15  H   UNL     1       5.152   5.234  13.845  0.00  0.00    +0.000 HD
ENDBRANCH  10  14
ENDBRANCH   1  10
BRANCH   1  16
ATOM     16  P   UNL     1       7.228   5.484  18.495  0.00  0.00    +0.000 P 
ATOM     17  O   UNL     1       6.687   5.247  19.898  0.00  0.00    +0.000 OA
BRANCH  16  18
ATOM     18  O   UNL     1       8.423   4.405  18.189  0.00  0.00    +0.000 OA
ATOM     19  H   UNL     1       9.237   4.643  18.674  0.00  0.00    +0.000 HD
ENDBRANCH  16  18
BRANCH  16  20
ATOM     20  O   UNL     1       8.429   6.403  19.336  0.00  0.00    +0.000 OA
ATOM     21  H   UNL     1       8.326   6.081  20.259  0.00  0.00    +0.000 HD
ENDBRANCH  16  20
ENDBRANCH   1  16
TORSDOF 7
ENDMDL
MODEL 7
REMARK VINA RESULT:      -6.9      3.747      5.188
REMARK  Name = 
REMARK  9 active torsions:
REMARK  status: ('A' for Active; 'I' for Inactive)
REMARK    1  A    between atoms: C_1  and  C_2
REMARK    2  A    between atoms: C_4  and  C_5
REMARK    3  A    between atoms: N_7  and  C_8
REMARK    4  A    between atoms: C_8  and  P_9
REMARK    5  A    between atoms: C_8  and  P_13
REMARK    6  A    between atoms: P_9  and  O_11
REMARK    7  A    between atoms: P_9  and  O_12
REMARK    8  A    between atoms: P_13  and  O_15
REMARK    9  A    between atoms: P_13  and  O_16
REMARK                            x       y       z     vdW  Elec       q    Type
REMARK                         _______ _______ _______ _____ _____    ______ ____
ROOT
ATOM      1  C   UNL     1       3.294   3.943  18.121  0.00  0.00    +0.000 C 
ENDROOT
BRANCH   1   8
ATOM      2  C   UNL     1       5.975   5.505  14.881  0.00  0.00    +0.000 C 
ATOM      3  C   UNL     1       6.419   4.350  15.768  0.00  0.00    +0.000 C 
ATOM      4  C   UNL     1       7.442   4.774  16.829  0.00  0.00    +0.000 C 
ATOM      5  C   UNL     1       6.797   5.622  17.929  0.00  0.00    +0.000 C 
ATOM      6  C   UNL     1       7.806   5.897  19.043  0.00  0.00    +0.000 C 
ATOM      7  C   UNL     1       5.544   4.928  18.501  0.00  0.00    +0.000 C 
ATOM      8  N   UNL     1       4.569   4.516  17.468  0.00  0.00    +0.000 NA
ATOM      9  C   UNL     1       5.225   3.666  16.453  0.00  0.00    +0.000 C 
ENDBRANCH   1   8
BRANCH   1  10
ATOM     10  P   UNL     1       3.609   2.159  18.385  0.00  0.00    +0.000 P 
ATOM     11  O   UNL     1       3.626   2.362  19.903  0.00  0.00    +0.000 OA
BRANCH  10  12
ATOM     12  O   UNL     1       2.069   1.762  17.980  0.00  0.00    +0.000 OA
ATOM     13  H   UNL     1       1.900   0.802  18.057  0.00  0.00    +0.000 HD
ENDBRANCH  10  12
BRANCH  10  14
ATOM     14  O   UNL     1       3.907   0.474  18.635  0.00  0.00    +0.000 OA
ATOM     15  H   UNL     1       3.021   0.106  18.835  0.00  0.00    +0.000 HD
ENDBRANCH  10  14
ENDBRANCH   1  10
BRANCH   1  16
ATOM     16  P   UNL     1       2.786   4.714  19.701  0.00  0.00    +0.000 P 
ATOM     17  O   UNL     1       2.543   6.112  19.152  0.00  0.00    +0.000 OA
BRANCH  16  18
ATOM     18  O   UNL     1       1.362   3.904  19.763  0.00  0.00    +0.000 OA
ATOM     19  H   UNL     1       1.503   2.977  20.036  0.00  0.00    +0.000 HD
ENDBRANCH  16  18
BRANCH  16  20
ATOM     20  O   UNL     1       2.306   5.442  21.196  0.00  0.00    +0.000 OA
ATOM     21  H   UNL     1       3.121   5.923  21.463  0.00  0.00    +0.000 HD
ENDBRANCH  16  20
ENDBRANCH   1  16
TORSDOF 7
ENDMDL
MODEL 8
REMARK VINA RESULT:      -6.9      1.621      2.260
REMARK  Name = 
REMARK  9 active torsions:
REMARK  status: ('A' for Active; 'I' for Inactive)
REMARK    1  A    between atoms: C_1  and  C_2
REMARK    2  A    between atoms: C_4  and  C_5
REMARK    3  A    between atoms: N_7  and  C_8
REMARK    4  A    between atoms: C_8  and  P_9
REMARK    5  A    between atoms: C_8  and  P_13
REMARK    6  A    between atoms: P_9  and  O_11
REMARK    7  A    between atoms: P_9  and  O_12
REMARK    8  A    between atoms: P_13  and  O_15
REMARK    9  A    between atoms: P_13  and  O_16
REMARK                            x       y       z     vdW  Elec       q    Type
REMARK                         _______ _______ _______ _____ _____    ______ ____
ROOT
ATOM      1  C   UNL     1       6.194   5.888  17.235  0.00  0.00    +0.000 C 
ENDROOT
BRANCH   1   8
ATOM      2  C   UNL     1       2.858   4.604  19.948  0.00  0.00    +0.000 C 
ATOM      3  C   UNL     1       2.625   4.769  18.452  0.00  0.00    +0.000 C 
ATOM      4  C   UNL     1       1.859   6.052  18.108  0.00  0.00    +0.000 C 
ATOM      5  C   UNL     1       2.730   7.298  18.303  0.00  0.00    +0.000 C 
ATOM      6  C   UNL     1       1.990   8.540  17.807  0.00  0.00    +0.000 C 
ATOM      7  C   UNL     1       4.080   7.151  17.572  0.00  0.00    +0.000 C 
ATOM      8  N   UNL     1       4.804   5.905  17.906  0.00  0.00    +0.000 NA
ATOM      9  C   UNL     1       3.942   4.729  17.662  0.00  0.00    +0.000 C 
ENDBRANCH   1   8
BRANCH   1  10
ATOM     10  P   UNL     1       7.404   5.559  18.569  0.00  0.00    +0.000 P 
ATOM     11  O   UNL     1       7.930   6.994  18.479  0.00  0.00    +0.000 OA
BRANCH  10  12
ATOM     12  O   UNL     1       6.233   5.555  19.718  0.00  0.00    +0.000 OA
ATOM     13  H   UNL     1       5.759   4.702  19.764  0.00  0.00    +0.000 HD
ENDBRANCH  10  12
BRANCH  10  14
ATOM     14  O   UNL     1       8.548   5.247  19.828  0.00  0.00    +0.000 OA
ATOM     15  H   UNL     1       9.386   5.618  19.479  0.00  0.00    +0.000 HD
ENDBRANCH  10  14
ENDBRANCH   1  10
BRANCH   1  16
ATOM     16  P   UNL     1       6.420   4.669  15.890  0.00  0.00    +0.000 P 
ATOM     17  O   UNL     1       6.790   5.666  14.801  0.00  0.00    +0.000 OA
BRANCH  16  18
ATOM     18  O   UNL     1       7.790   4.046  16.539  0.00  0.00    +0.000 OA
ATOM     19  H   UNL     1       8.542   4.657  16.414  0.00  0.00    +0.000 HD
ENDBRANCH  16  18
BRANCH  16  20
ATOM     20  O   UNL     1       6.634   3.515  14.618  0.00  0.00    +0.000 OA
ATOM     21  H   UNL     1       7.583   3.277  14.712  0.00  0.00    +0.000 HD
ENDBRANCH  16  20
ENDBRANCH   1  16
TORSDOF 7
ENDMDL
MODEL 9
REMARK VINA RESULT:      -6.8      1.541      1.952
REMARK  Name = 
REMARK  9 active torsions:
REMARK  status: ('A' for Active; 'I' for Inactive)
REMARK    1  A    between atoms: C_1  and  C_2
REMARK    2  A    between atoms: C_4  and  C_5
REMARK    3  A    between atoms: N_7  and  C_8
REMARK    4  A    between atoms: C_8  and  P_9
REMARK    5  A    between atoms: C_8  and  P_13
REMARK    6  A    between atoms: P_9  and  O_11
REMARK    7  A    between atoms: P_9  and  O_12
REMARK    8  A    between atoms: P_13  and  O_15
REMARK    9  A    between atoms: P_13  and  O_16
REMARK                            x       y       z     vdW  Elec       q    Type
REMARK                         _______ _______ _______ _____ _____    ______ ____
ROOT
ATOM      1  C   UNL     1       6.127   5.878  17.231  0.00  0.00    +0.000 C 
ENDROOT
BRANCH   1   8
ATOM      2  C   UNL     1       2.898   4.618  20.079  0.00  0.00    +0.000 C 
ATOM      3  C   UNL     1       2.615   4.742  18.588  0.00  0.00    +0.000 C 
ATOM      4  C   UNL     1       1.821   6.006  18.237  0.00  0.00    +0.000 C 
ATOM      5  C   UNL     1       2.679   7.268  18.374  0.00  0.00    +0.000 C 
ATOM      6  C   UNL     1       1.907   8.487  17.872  0.00  0.00    +0.000 C 
ATOM      7  C   UNL     1       4.007   7.121  17.604  0.00  0.00    +0.000 C 
ATOM      8  N   UNL     1       4.759   5.894  17.945  0.00  0.00    +0.000 NA
ATOM      9  C   UNL     1       3.907   4.701  17.757  0.00  0.00    +0.000 C 
ENDBRANCH   1   8
BRANCH   1  10
ATOM     10  P   UNL     1       7.378   5.544  18.525  0.00  0.00    +0.000 P 
ATOM     11  O   UNL     1       6.278   5.289  19.558  0.00  0.00    +0.000 OA
BRANCH  10  12
ATOM     12  O   UNL     1       7.759   4.088  17.871  0.00  0.00    +0.000 OA
ATOM     13  H   UNL     1       7.046   3.739  17.301  0.00  0.00    +0.000 HD
ENDBRANCH  10  12
BRANCH  10  14
ATOM     14  O   UNL     1       8.561   5.229  19.747  0.00  0.00    +0.000 OA
ATOM     15  H   UNL     1       8.029   4.946  20.520  0.00  0.00    +0.000 HD
ENDBRANCH  10  14
ENDBRANCH   1  10
BRANCH   1  16
ATOM     16  P   UNL     1       6.311   4.664  15.875  0.00  0.00    +0.000 P 
ATOM     17  O   UNL     1       5.163   5.175  15.016  0.00  0.00    +0.000 OA
BRANCH  16  18
ATOM     18  O   UNL     1       7.717   5.314  15.338  0.00  0.00    +0.000 OA
ATOM     19  H   UNL     1       7.687   6.290  15.385  0.00  0.00    +0.000 HD
ENDBRANCH  16  18
BRANCH  16  20
ATOM     20  O   UNL     1       6.486   3.515  14.593  0.00  0.00    +0.000 OA
ATOM     21  H   UNL     1       7.432   3.618  14.350  0.00  0.00    +0.000 HD
ENDBRANCH  16  20
ENDBRANCH   1  16
TORSDOF 7
ENDMDL
