MODEL 1
REMARK VINA RESULT:      -7.7      0.000      0.000
REMARK  Name = 
REMARK  7 active torsions:
REMARK  status: ('A' for Active; 'I' for Inactive)
REMARK    1  A    between atoms: C_1  and  C_2
REMARK    2  A    between atoms: C_2  and  O_4
REMARK    3  A    between atoms: O_4  and  C_5
REMARK    4  A    between atoms: C_13  and  C_14
REMARK    5  A    between atoms: C_17  and  N_18
REMARK    6  A    between atoms: N_18  and  C_19
REMARK    7  A    between atoms: N_18  and  C_20
REMARK                            x       y       z     vdW  Elec       q    Type
REMARK                         _______ _______ _______ _____ _____    ______ ____
ROOT
ATOM      1  C   UNL     1       4.986   5.617  16.365  0.00  0.00    +0.000 A 
ATOM      2  C   UNL     1       4.915   4.312  16.892  0.00  0.00    +0.000 A 
ATOM      3  C   UNL     1       4.185   4.054  18.052  0.00  0.00    +0.000 A 
ATOM      4  C   UNL     1       3.534   5.127  18.628  0.00  0.00    +0.000 A 
ATOM      5  C   UNL     1       3.587   6.416  18.100  0.00  0.00    +0.000 A 
ATOM      6  C   UNL     1       4.309   6.691  16.958  0.00  0.00    +0.000 A 
ATOM      7  O   UNL     1       2.843   7.322  18.824  0.00  0.00    +0.000 OA
ATOM      8  C   UNL     1       2.276   6.595  19.869  0.00  0.00    +0.000 C 
ATOM      9  C   UNL     1       1.462   7.074  20.815  0.00  0.00    +0.000 C 
ATOM     10  C   UNL     1       2.684   5.171  19.807  0.00  0.00    +0.000 C 
ATOM     11  O   UNL     1       2.383   4.253  20.541  0.00  0.00    +0.000 OA
ENDROOT
BRANCH   9  12
ATOM     12  C   UNL     1       1.042   8.472  20.873  0.00  0.00    +0.000 A 
ATOM     13  C   UNL     1       0.602   9.024  22.070  0.00  0.00    +0.000 A 
ATOM     14  C   UNL     1       0.181  10.360  22.118  0.00  0.00    +0.000 A 
ATOM     15  C   UNL     1       0.195  11.198  20.988  0.00  0.00    +0.000 A 
ATOM     16  C   UNL     1       0.648  10.610  19.796  0.00  0.00    +0.000 A 
ATOM     17  C   UNL     1       1.062   9.268  19.732  0.00  0.00    +0.000 A 
BRANCH  15  18
ATOM     18  N   UNL     1      -0.271  12.505  21.053  0.00  0.00    +0.000 N 
ATOM     19  C   UNL     1      -0.708  13.086  22.322  0.00  0.00    +0.000 C 
ATOM     20  C   UNL     1       0.017  13.484  20.009  0.00  0.00    +0.000 C 
ENDBRANCH  15  18
ENDBRANCH   9  12
BRANCH   1  21
ATOM     21  O   UNL     1       5.626   5.853  15.134  0.00  0.00    +0.000 OA
BRANCH  21  23
ATOM     22  C   UNL     1       6.052   4.002  13.743  0.00  0.00    +0.000 C 
ATOM     23  C   UNL     1       6.621   4.952  14.752  0.00  0.00    +0.000 C 
ATOM     24  O   UNL     1       7.764   4.902  15.183  0.00  0.00    +0.000 OA
ENDBRANCH  21  23
ENDBRANCH   1  21
TORSDOF 4
ENDMDL
MODEL 2
REMARK VINA RESULT:      -7.7      0.159      1.215
REMARK  Name = 
REMARK  7 active torsions:
REMARK  status: ('A' for Active; 'I' for Inactive)
REMARK    1  A    between atoms: C_1  and  C_2
REMARK    2  A    between atoms: C_2  and  O_4
REMARK    3  A    between atoms: O_4  and  C_5
REMARK    4  A    between atoms: C_13  and  C_14
REMARK    5  A    between atoms: C_17  and  N_18
REMARK    6  A    between atoms: N_18  and  C_19
REMARK    7  A    between atoms: N_18  and  C_20
REMARK                            x       y       z     vdW  Elec       q    Type
REMARK                         _______ _______ _______ _____ _____    ______ ____
ROOT
ATOM      1  C   UNL     1       5.036   5.539  16.403  0.00  0.00    +0.000 A 
ATOM      2  C   UNL     1       4.886   4.221  16.880  0.00  0.00    +0.000 A 
ATOM      3  C   UNL     1       4.103   3.959  18.004  0.00  0.00    +0.000 A 
ATOM      4  C   UNL     1       3.481   5.041  18.594  0.00  0.00    +0.000 A 
ATOM      5  C   UNL     1       3.612   6.343  18.114  0.00  0.00    +0.000 A 
ATOM      6  C   UNL     1       4.387   6.623  17.009  0.00  0.00    +0.000 A 
ATOM      7  O   UNL     1       2.883   7.259  18.843  0.00  0.00    +0.000 OA
ATOM      8  C   UNL     1       2.246   6.523  19.841  0.00  0.00    +0.000 C 
ATOM      9  C   UNL     1       1.420   7.008  20.774  0.00  0.00    +0.000 C 
ATOM     10  C   UNL     1       2.591   5.085  19.743  0.00  0.00    +0.000 C 
ATOM     11  O   UNL     1       2.222   4.158  20.433  0.00  0.00    +0.000 OA
ENDROOT
BRANCH   9  12
ATOM     12  C   UNL     1       1.062   8.421  20.867  0.00  0.00    +0.000 A 
ATOM     13  C   UNL     1       1.088   9.228  19.736  0.00  0.00    +0.000 A 
ATOM     14  C   UNL     1       0.764  10.588  19.832  0.00  0.00    +0.000 A 
ATOM     15  C   UNL     1       0.388  11.192  21.046  0.00  0.00    +0.000 A 
ATOM     16  C   UNL     1       0.369  10.348  22.168  0.00  0.00    +0.000 A 
ATOM     17  C   UNL     1       0.703   8.984  22.088  0.00  0.00    +0.000 A 
BRANCH  15  18
ATOM     18  N   UNL     1       0.116  12.551  21.121  0.00  0.00    +0.000 N 
ATOM     19  C   UNL     1       0.210  13.405  19.938  0.00  0.00    +0.000 C 
ATOM     20  C   UNL     1      -0.650  13.130  22.222  0.00  0.00    +0.000 C 
ENDBRANCH  15  18
ENDBRANCH   9  12
BRANCH   1  21
ATOM     21  O   UNL     1       5.731   5.787  15.204  0.00  0.00    +0.000 OA
BRANCH  21  23
ATOM     22  C   UNL     1       6.164   4.010  13.722  0.00  0.00    +0.000 C 
ATOM     23  C   UNL     1       6.704   4.859  14.832  0.00  0.00    +0.000 C 
ATOM     24  O   UNL     1       7.809   4.717  15.337  0.00  0.00    +0.000 OA
ENDBRANCH  21  23
ENDBRANCH   1  21
TORSDOF 4
ENDMDL
MODEL 3
REMARK VINA RESULT:      -7.7      1.199      1.426
REMARK  Name = 
REMARK  7 active torsions:
REMARK  status: ('A' for Active; 'I' for Inactive)
REMARK    1  A    between atoms: C_1  and  C_2
REMARK    2  A    between atoms: C_2  and  O_4
REMARK    3  A    between atoms: O_4  and  C_5
REMARK    4  A    between atoms: C_13  and  C_14
REMARK    5  A    between atoms: C_17  and  N_18
REMARK    6  A    between atoms: N_18  and  C_19
REMARK    7  A    between atoms: N_18  and  C_20
REMARK                            x       y       z     vdW  Elec       q    Type
REMARK                         _______ _______ _______ _____ _____    ______ ____
ROOT
ATOM      1  C   UNL     1       4.706   4.220  17.042  0.00  0.00    +0.000 A 
ATOM      2  C   UNL     1       4.433   3.149  17.917  0.00  0.00    +0.000 A 
ATOM      3  C   UNL     1       3.668   3.347  19.065  0.00  0.00    +0.000 A 
ATOM      4  C   UNL     1       3.186   4.624  19.278  0.00  0.00    +0.000 A 
ATOM      5  C   UNL     1       3.438   5.682  18.406  0.00  0.00    +0.000 A 
ATOM      6  C   UNL     1       4.199   5.507  17.269  0.00  0.00    +0.000 A 
ATOM      7  O   UNL     1       2.838   6.858  18.803  0.00  0.00    +0.000 OA
ATOM      8  C   UNL     1       2.162   6.556  19.985  0.00  0.00    +0.000 C 
ATOM      9  C   UNL     1       1.427   7.402  20.713  0.00  0.00    +0.000 C 
ATOM     10  C   UNL     1       2.348   5.132  20.352  0.00  0.00    +0.000 C 
ATOM     11  O   UNL     1       1.907   4.520  21.303  0.00  0.00    +0.000 OA
ENDROOT
BRANCH   9  12
ATOM     12  C   UNL     1       1.226   8.801  20.349  0.00  0.00    +0.000 A 
ATOM     13  C   UNL     1       0.980   9.754  21.330  0.00  0.00    +0.000 A 
ATOM     14  C   UNL     1       0.767  11.094  20.974  0.00  0.00    +0.000 A 
ATOM     15  C   UNL     1       0.805  11.537  19.640  0.00  0.00    +0.000 A 
ATOM     16  C   UNL     1       1.059  10.550  18.674  0.00  0.00    +0.000 A 
ATOM     17  C   UNL     1       1.263   9.201  19.016  0.00  0.00    +0.000 A 
BRANCH  15  18
ATOM     18  N   UNL     1       0.546  12.861  19.312  0.00  0.00    +0.000 N 
ATOM     19  C   UNL     1       1.496  13.921  19.650  0.00  0.00    +0.000 C 
ATOM     20  C   UNL     1      -0.432  13.232  18.292  0.00  0.00    +0.000 C 
ENDBRANCH  15  18
ENDBRANCH   9  12
BRANCH   1  21
ATOM     21  O   UNL     1       5.379   3.993  15.827  0.00  0.00    +0.000 OA
BRANCH  21  23
ATOM     22  C   UNL     1       6.938   4.905  14.317  0.00  0.00    +0.000 C 
ATOM     23  C   UNL     1       6.687   4.470  15.729  0.00  0.00    +0.000 C 
ATOM     24  O   UNL     1       7.521   4.503  16.622  0.00  0.00    +0.000 OA
ENDBRANCH  21  23
ENDBRANCH   1  21
TORSDOF 4
ENDMDL
MODEL 4
REMARK VINA RESULT:      -7.5      3.361      8.475
REMARK  Name = 
REMARK  7 active torsions:
REMARK  status: ('A' for Active; 'I' for Inactive)
REMARK    1  A    between atoms: C_1  and  C_2
REMARK    2  A    between atoms: C_2  and  O_4
REMARK    3  A    between atoms: O_4  and  C_5
REMARK    4  A    between atoms: C_13  and  C_14
REMARK    5  A    between atoms: C_17  and  N_18
REMARK    6  A    between atoms: N_18  and  C_19
REMARK    7  A    between atoms: N_18  and  C_20
REMARK                            x       y       z     vdW  Elec       q    Type
REMARK                         _______ _______ _______ _____ _____    ______ ____
ROOT
ATOM      1  C   UNL     1       1.186   9.509  19.161  0.00  0.00    +0.000 A 
ATOM      2  C   UNL     1       0.887   8.896  20.394  0.00  0.00    +0.000 A 
ATOM      3  C   UNL     1       1.405   7.640  20.706  0.00  0.00    +0.000 A 
ATOM      4  C   UNL     1       2.226   7.054  19.763  0.00  0.00    +0.000 A 
ATOM      5  C   UNL     1       2.538   7.666  18.549  0.00  0.00    +0.000 A 
ATOM      6  C   UNL     1       2.031   8.904  18.220  0.00  0.00    +0.000 A 
ATOM      7  O   UNL     1       3.395   6.912  17.775  0.00  0.00    +0.000 OA
ATOM      8  C   UNL     1       3.656   5.759  18.514  0.00  0.00    +0.000 C 
ATOM      9  C   UNL     1       4.454   4.750  18.150  0.00  0.00    +0.000 C 
ATOM     10  C   UNL     1       2.930   5.783  19.807  0.00  0.00    +0.000 C 
ATOM     11  O   UNL     1       2.923   4.960  20.699  0.00  0.00    +0.000 OA
ENDROOT
BRANCH   9  12
ATOM     12  C   UNL     1       5.185   4.728  16.886  0.00  0.00    +0.000 A 
ATOM     13  C   UNL     1       4.549   4.339  15.713  0.00  0.00    +0.000 A 
ATOM     14  C   UNL     1       5.260   4.298  14.506  0.00  0.00    +0.000 A 
ATOM     15  C   UNL     1       6.617   4.657  14.415  0.00  0.00    +0.000 A 
ATOM     16  C   UNL     1       7.228   5.048  15.617  0.00  0.00    +0.000 A 
ATOM     17  C   UNL     1       6.530   5.082  16.837  0.00  0.00    +0.000 A 
BRANCH  15  18
ATOM     18  N   UNL     1       7.308   4.565  13.214  0.00  0.00    +0.000 N 
ATOM     19  C   UNL     1       6.834   3.697  12.136  0.00  0.00    +0.000 C 
ATOM     20  C   UNL     1       8.269   5.581  12.791  0.00  0.00    +0.000 C 
ENDBRANCH  15  18
ENDBRANCH   9  12
BRANCH   1  21
ATOM     21  O   UNL     1       0.757  10.824  18.897  0.00  0.00    +0.000 OA
BRANCH  21  23
ATOM     22  C   UNL     1      -0.981  12.401  18.715  0.00  0.00    +0.000 C 
ATOM     23  C   UNL     1      -0.557  10.987  18.459  0.00  0.00    +0.000 C 
ATOM     24  O   UNL     1      -1.278  10.125  17.975  0.00  0.00    +0.000 OA
ENDBRANCH  21  23
ENDBRANCH   1  21
TORSDOF 4
ENDMDL
MODEL 5
REMARK VINA RESULT:      -7.5      1.051      1.255
REMARK  Name = 
REMARK  7 active torsions:
REMARK  status: ('A' for Active; 'I' for Inactive)
REMARK    1  A    between atoms: C_1  and  C_2
REMARK    2  A    between atoms: C_2  and  O_4
REMARK    3  A    between atoms: O_4  and  C_5
REMARK    4  A    between atoms: C_13  and  C_14
REMARK    5  A    between atoms: C_17  and  N_18
REMARK    6  A    between atoms: N_18  and  C_19
REMARK    7  A    between atoms: N_18  and  C_20
REMARK                            x       y       z     vdW  Elec       q    Type
REMARK                         _______ _______ _______ _____ _____    ______ ____
ROOT
ATOM      1  C   UNL     1       4.917   5.964  16.657  0.00  0.00    +0.000 A 
ATOM      2  C   UNL     1       4.816   4.786  17.425  0.00  0.00    +0.000 A 
ATOM      3  C   UNL     1       4.012   4.749  18.564  0.00  0.00    +0.000 A 
ATOM      4  C   UNL     1       3.320   5.903  18.875  0.00  0.00    +0.000 A 
ATOM      5  C   UNL     1       3.403   7.064  18.107  0.00  0.00    +0.000 A 
ATOM      6  C   UNL     1       4.198   7.122  16.982  0.00  0.00    +0.000 A 
ATOM      7  O   UNL     1       2.609   8.083  18.589  0.00  0.00    +0.000 OA
ATOM      8  C   UNL     1       1.977   7.565  19.719  0.00  0.00    +0.000 C 
ATOM      9  C   UNL     1       1.101   8.207  20.498  0.00  0.00    +0.000 C 
ATOM     10  C   UNL     1       2.394   6.164  19.965  0.00  0.00    +0.000 C 
ATOM     11  O   UNL     1       2.048   5.403  20.844  0.00  0.00    +0.000 OA
ENDROOT
BRANCH   9  12
ATOM     12  C   UNL     1       0.673   9.582  20.252  0.00  0.00    +0.000 A 
ATOM     13  C   UNL     1       1.020  10.594  21.139  0.00  0.00    +0.000 A 
ATOM     14  C   UNL     1       0.590  11.909  20.911  0.00  0.00    +0.000 A 
ATOM     15  C   UNL     1      -0.183  12.269  19.792  0.00  0.00    +0.000 A 
ATOM     16  C   UNL     1      -0.513  11.223  18.915  0.00  0.00    +0.000 A 
ATOM     17  C   UNL     1      -0.099   9.898  19.138  0.00  0.00    +0.000 A 
BRANCH  15  18
ATOM     18  N   UNL     1      -0.633  13.570  19.615  0.00  0.00    +0.000 N 
ATOM     19  C   UNL     1      -1.679  14.129  20.471  0.00  0.00    +0.000 C 
ATOM     20  C   UNL     1       0.144  14.568  18.885  0.00  0.00    +0.000 C 
ENDBRANCH  15  18
ENDBRANCH   9  12
BRANCH   1  21
ATOM     21  O   UNL     1       5.636   5.964  15.447  0.00  0.00    +0.000 OA
BRANCH  21  23
ATOM     22  C   UNL     1       6.157   4.013  14.237  0.00  0.00    +0.000 C 
ATOM     23  C   UNL     1       6.611   4.979  15.288  0.00  0.00    +0.000 C 
ATOM     24  O   UNL     1       7.656   4.878  15.917  0.00  0.00    +0.000 OA
ENDBRANCH  21  23
ENDBRANCH   1  21
TORSDOF 4
ENDMDL
MODEL 6
REMARK VINA RESULT:      -7.5      3.330      8.340
REMARK  Name = 
REMARK  7 active torsions:
REMARK  status: ('A' for Active; 'I' for Inactive)
REMARK    1  A    between atoms: C_1  and  C_2
REMARK    2  A    between atoms: C_2  and  O_4
REMARK    3  A    between atoms: O_4  and  C_5
REMARK    4  A    between atoms: C_13  and  C_14
REMARK    5  A    between atoms: C_17  and  N_18
REMARK    6  A    between atoms: N_18  and  C_19
REMARK    7  A    between atoms: N_18  and  C_20
REMARK                            x       y       z     vdW  Elec       q    Type
REMARK                         _______ _______ _______ _____ _____    ______ ____
ROOT
ATOM      1  C   UNL     1       1.253   9.577  18.978  0.00  0.00    +0.000 A 
ATOM      2  C   UNL     1       0.946   9.006  20.229  0.00  0.00    +0.000 A 
ATOM      3  C   UNL     1       1.454   7.756  20.582  0.00  0.00    +0.000 A 
ATOM      4  C   UNL     1       2.275   7.136  19.660  0.00  0.00    +0.000 A 
ATOM      5  C   UNL     1       2.595   7.706  18.429  0.00  0.00    +0.000 A 
ATOM      6  C   UNL     1       2.097   8.937  18.060  0.00  0.00    +0.000 A 
ATOM      7  O   UNL     1       3.448   6.922  17.682  0.00  0.00    +0.000 OA
ATOM      8  C   UNL     1       3.699   5.792  18.459  0.00  0.00    +0.000 C 
ATOM      9  C   UNL     1       4.491   4.767  18.129  0.00  0.00    +0.000 C 
ATOM     10  C   UNL     1       2.969   5.861  19.747  0.00  0.00    +0.000 C 
ATOM     11  O   UNL     1       2.953   5.067  20.665  0.00  0.00    +0.000 OA
ENDROOT
BRANCH   9  12
ATOM     12  C   UNL     1       5.226   4.699  16.869  0.00  0.00    +0.000 A 
ATOM     13  C   UNL     1       6.503   5.238  16.772  0.00  0.00    +0.000 A 
ATOM     14  C   UNL     1       7.198   5.190  15.555  0.00  0.00    +0.000 A 
ATOM     15  C   UNL     1       6.660   4.594  14.400  0.00  0.00    +0.000 A 
ATOM     16  C   UNL     1       5.369   4.057  14.534  0.00  0.00    +0.000 A 
ATOM     17  C   UNL     1       4.657   4.109  15.745  0.00  0.00    +0.000 A 
BRANCH  15  18
ATOM     18  N   UNL     1       7.351   4.600  13.196  0.00  0.00    +0.000 N 
ATOM     19  C   UNL     1       6.915   3.771  12.073  0.00  0.00    +0.000 C 
ATOM     20  C   UNL     1       8.262   5.681  12.828  0.00  0.00    +0.000 C 
ENDBRANCH  15  18
ENDBRANCH   9  12
BRANCH   1  21
ATOM     21  O   UNL     1       0.835  10.886  18.672  0.00  0.00    +0.000 OA
BRANCH  21  23
ATOM     22  C   UNL     1       1.560  12.566  20.152  0.00  0.00    +0.000 C 
ATOM     23  C   UNL     1       1.775  11.905  18.825  0.00  0.00    +0.000 C 
ATOM     24  O   UNL     1       2.622  12.245  18.011  0.00  0.00    +0.000 OA
ENDBRANCH  21  23
ENDBRANCH   1  21
TORSDOF 4
ENDMDL
MODEL 7
REMARK VINA RESULT:      -7.4      1.081      1.472
REMARK  Name = 
REMARK  7 active torsions:
REMARK  status: ('A' for Active; 'I' for Inactive)
REMARK    1  A    between atoms: C_1  and  C_2
REMARK    2  A    between atoms: C_2  and  O_4
REMARK    3  A    between atoms: O_4  and  C_5
REMARK    4  A    between atoms: C_13  and  C_14
REMARK    5  A    between atoms: C_17  and  N_18
REMARK    6  A    between atoms: N_18  and  C_19
REMARK    7  A    between atoms: N_18  and  C_20
REMARK                            x       y       z     vdW  Elec       q    Type
REMARK                         _______ _______ _______ _____ _____    ______ ____
ROOT
ATOM      1  C   UNL     1       4.847   4.561  17.108  0.00  0.00    +0.000 A 
ATOM      2  C   UNL     1       4.518   3.420  17.867  0.00  0.00    +0.000 A 
ATOM      3  C   UNL     1       3.670   3.521  18.969  0.00  0.00    +0.000 A 
ATOM      4  C   UNL     1       3.168   4.776  19.254  0.00  0.00    +0.000 A 
ATOM      5  C   UNL     1       3.477   5.904  18.495  0.00  0.00    +0.000 A 
ATOM      6  C   UNL     1       4.318   5.825  17.406  0.00  0.00    +0.000 A 
ATOM      7  O   UNL     1       2.844   7.043  18.946  0.00  0.00    +0.000 OA
ATOM      8  C   UNL     1       2.086   6.642  20.046  0.00  0.00    +0.000 C 
ATOM      9  C   UNL     1       1.297   7.424  20.788  0.00  0.00    +0.000 C 
ATOM     10  C   UNL     1       2.253   5.192  20.305  0.00  0.00    +0.000 C 
ATOM     11  O   UNL     1       1.747   4.502  21.166  0.00  0.00    +0.000 OA
ENDROOT
BRANCH   9  12
ATOM     12  C   UNL     1       1.115   8.850  20.530  0.00  0.00    +0.000 A 
ATOM     13  C   UNL     1       0.905   9.733  21.582  0.00  0.00    +0.000 A 
ATOM     14  C   UNL     1       0.710  11.098  21.328  0.00  0.00    +0.000 A 
ATOM     15  C   UNL     1       0.733  11.637  20.029  0.00  0.00    +0.000 A 
ATOM     16  C   UNL     1       0.950  10.718  18.990  0.00  0.00    +0.000 A 
ATOM     17  C   UNL     1       1.135   9.344  19.229  0.00  0.00    +0.000 A 
BRANCH  15  18
ATOM     18  N   UNL     1       0.492  12.985  19.803  0.00  0.00    +0.000 N 
ATOM     19  C   UNL     1       0.040  13.461  18.496  0.00  0.00    +0.000 C 
ATOM     20  C   UNL     1       0.275  13.929  20.896  0.00  0.00    +0.000 C 
ENDBRANCH  15  18
ENDBRANCH   9  12
BRANCH   1  21
ATOM     21  O   UNL     1       5.607   4.437  15.930  0.00  0.00    +0.000 OA
BRANCH  21  23
ATOM     22  C   UNL     1       7.559   4.569  17.240  0.00  0.00    +0.000 C 
ATOM     23  C   UNL     1       6.901   4.960  15.952  0.00  0.00    +0.000 C 
ATOM     24  O   UNL     1       7.421   5.656  15.092  0.00  0.00    +0.000 OA
ENDBRANCH  21  23
ENDBRANCH   1  21
TORSDOF 4
ENDMDL
MODEL 8
REMARK VINA RESULT:      -7.4      0.944      1.187
REMARK  Name = 
REMARK  7 active torsions:
REMARK  status: ('A' for Active; 'I' for Inactive)
REMARK    1  A    between atoms: C_1  and  C_2
REMARK    2  A    between atoms: C_2  and  O_4
REMARK    3  A    between atoms: O_4  and  C_5
REMARK    4  A    between atoms: C_13  and  C_14
REMARK    5  A    between atoms: C_17  and  N_18
REMARK    6  A    between atoms: N_18  and  C_19
REMARK    7  A    between atoms: N_18  and  C_20
REMARK                            x       y       z     vdW  Elec       q    Type
REMARK                         _______ _______ _______ _____ _____    ______ ____
ROOT
ATOM      1  C   UNL     1       4.636   5.552  17.152  0.00  0.00    +0.000 A 
ATOM      2  C   UNL     1       4.443   4.257  17.675  0.00  0.00    +0.000 A 
ATOM      3  C   UNL     1       3.607   4.053  18.772  0.00  0.00    +0.000 A 
ATOM      4  C   UNL     1       2.977   5.167  19.290  0.00  0.00    +0.000 A 
ATOM      5  C   UNL     1       3.151   6.446  18.764  0.00  0.00    +0.000 A 
ATOM      6  C   UNL     1       3.978   6.670  17.684  0.00  0.00    +0.000 A 
ATOM      7  O   UNL     1       2.405   7.402  19.422  0.00  0.00    +0.000 OA
ATOM      8  C   UNL     1       1.713   6.717  20.419  0.00  0.00    +0.000 C 
ATOM      9  C   UNL     1       0.854   7.252  21.294  0.00  0.00    +0.000 C 
ATOM     10  C   UNL     1       2.038   5.271  20.395  0.00  0.00    +0.000 C 
ATOM     11  O   UNL     1       1.624   4.379  21.105  0.00  0.00    +0.000 OA
ENDROOT
BRANCH   9  12
ATOM     12  C   UNL     1       0.516   8.672  21.313  0.00  0.00    +0.000 A 
ATOM     13  C   UNL     1      -0.007   9.254  22.462  0.00  0.00    +0.000 A 
ATOM     14  C   UNL     1      -0.350  10.614  22.470  0.00  0.00    +0.000 A 
ATOM     15  C   UNL     1      -0.173  11.445  21.350  0.00  0.00    +0.000 A 
ATOM     16  C   UNL     1       0.361  10.827  20.207  0.00  0.00    +0.000 A 
ATOM     17  C   UNL     1       0.698   9.462  20.182  0.00  0.00    +0.000 A 
BRANCH  15  18
ATOM     18  N   UNL     1      -0.563  12.778  21.371  0.00  0.00    +0.000 N 
ATOM     19  C   UNL     1      -0.764  13.483  22.636  0.00  0.00    +0.000 C 
ATOM     20  C   UNL     1      -0.403  13.652  20.213  0.00  0.00    +0.000 C 
ENDBRANCH  15  18
ENDBRANCH   9  12
BRANCH   1  21
ATOM     21  O   UNL     1       5.387   5.740  15.976  0.00  0.00    +0.000 OA
BRANCH  21  23
ATOM     22  C   UNL     1       7.273   6.521  17.149  0.00  0.00    +0.000 C 
ATOM     23  C   UNL     1       6.771   5.600  16.079  0.00  0.00    +0.000 C 
ATOM     24  O   UNL     1       7.485   4.879  15.396  0.00  0.00    +0.000 OA
ENDBRANCH  21  23
ENDBRANCH   1  21
TORSDOF 4
ENDMDL
MODEL 9
REMARK VINA RESULT:      -7.3      1.473      1.884
REMARK  Name = 
REMARK  7 active torsions:
REMARK  status: ('A' for Active; 'I' for Inactive)
REMARK    1  A    between atoms: C_1  and  C_2
REMARK    2  A    between atoms: C_2  and  O_4
REMARK    3  A    between atoms: O_4  and  C_5
REMARK    4  A    between atoms: C_13  and  C_14
REMARK    5  A    between atoms: C_17  and  N_18
REMARK    6  A    between atoms: N_18  and  C_19
REMARK    7  A    between atoms: N_18  and  C_20
REMARK                            x       y       z     vdW  Elec       q    Type
REMARK                         _______ _______ _______ _____ _____    ______ ____
ROOT
ATOM      1  C   UNL     1       6.665   5.458  16.111  0.00  0.00    +0.000 A 
ATOM      2  C   UNL     1       6.685   4.241  16.820  0.00  0.00    +0.000 A 
ATOM      3  C   UNL     1       5.811   4.026  17.885  0.00  0.00    +0.000 A 
ATOM      4  C   UNL     1       4.931   5.048  18.183  0.00  0.00    +0.000 A 
ATOM      5  C   UNL     1       4.897   6.247  17.472  0.00  0.00    +0.000 A 
ATOM      6  C   UNL     1       5.757   6.480  16.421  0.00  0.00    +0.000 A 
ATOM      7  O   UNL     1       3.924   7.111  17.927  0.00  0.00    +0.000 OA
ATOM      8  C   UNL     1       3.292   6.449  18.979  0.00  0.00    +0.000 C 
ATOM      9  C   UNL     1       2.272   6.914  19.707  0.00  0.00    +0.000 C 
ATOM     10  C   UNL     1       3.896   5.113  19.202  0.00  0.00    +0.000 C 
ATOM     11  O   UNL     1       3.603   4.265  20.019  0.00  0.00    +0.000 OA
ENDROOT
BRANCH   9  12
ATOM     12  C   UNL     1       1.662   8.221  19.482  0.00  0.00    +0.000 A 
ATOM     13  C   UNL     1       1.095   8.923  20.539  0.00  0.00    +0.000 A 
ATOM     14  C   UNL     1       0.491  10.168  20.315  0.00  0.00    +0.000 A 
ATOM     15  C   UNL     1       0.442  10.767  19.043  0.00  0.00    +0.000 A 
ATOM     16  C   UNL     1       1.027  10.034  17.999  0.00  0.00    +0.000 A 
ATOM     17  C   UNL     1       1.625   8.778  18.207  0.00  0.00    +0.000 A 
BRANCH  15  18
ATOM     18  N   UNL     1      -0.201  11.981  18.842  0.00  0.00    +0.000 N 
ATOM     19  C   UNL     1      -1.455  12.054  18.094  0.00  0.00    +0.000 C 
ATOM     20  C   UNL     1       0.076  13.153  19.668  0.00  0.00    +0.000 C 
ENDBRANCH  15  18
ENDBRANCH   9  12
BRANCH   1  21
ATOM     21  O   UNL     1       7.467   5.628  14.966  0.00  0.00    +0.000 OA
BRANCH  21  23
ATOM     22  C   UNL     1       7.952   5.374  12.677  0.00  0.00    +0.000 C 
ATOM     23  C   UNL     1       7.084   4.936  13.816  0.00  0.00    +0.000 C 
ATOM     24  O   UNL     1       6.171   4.128  13.720  0.00  0.00    +0.000 OA
ENDBRANCH  21  23
ENDBRANCH   1  21
TORSDOF 4
ENDMDL
