MODEL 1
REMARK VINA RESULT:      -8.9      0.000      0.000
REMARK  Name = 
REMARK  5 active torsions:
REMARK  status: ('A' for Active; 'I' for Inactive)
REMARK    1  A    between atoms: C_2  and  C_3
REMARK    2  A    between atoms: C_7  and  N_8
REMARK    3  A    between atoms: N_8  and  C_9
REMARK    4  A    between atoms: C_13  and  C_14
REMARK    5  A    between atoms: C_14  and  O_16
REMARK                            x       y       z     vdW  Elec       q    Type
REMARK                         _______ _______ _______ _____ _____    ______ ____
ROOT
ATOM      1  C   UNL     1       3.399   4.481  18.240  0.00  0.00    +0.000 A 
ATOM      2  N   UNL     1       3.107   5.744  17.838  0.00  0.00    +0.000 NA
ATOM      3  C   UNL     1       2.510   6.581  18.673  0.00  0.00    +0.000 A 
ATOM      4  C   UNL     1       2.291   7.863  18.200  0.00  0.00    +0.000 A 
ATOM      5  C   UNL     1       1.669   8.828  18.990  0.00  0.00    +0.000 A 
ATOM      6  C   UNL     1       1.293   8.502  20.292  0.00  0.00    +0.000 A 
ATOM      7  C   UNL     1       1.519   7.209  20.780  0.00  0.00    +0.000 A 
ATOM      8  C   UNL     1       2.135   6.218  19.974  0.00  0.00    +0.000 A 
ATOM      9  C   UNL     1       2.433   4.872  20.375  0.00  0.00    +0.000 A 
ATOM     10  C   UNL     1       2.160   4.336  21.633  0.00  0.00    +0.000 A 
ATOM     11  N   UNL     1       2.452   3.079  22.019  0.00  0.00    +0.000 NA
ATOM     12  C   UNL     1       3.047   2.320  21.097  0.00  0.00    +0.000 A 
ATOM     13  N   UNL     1       3.370   2.702  19.854  0.00  0.00    +0.000 NA
ATOM     14  C   UNL     1       3.065   3.974  19.501  0.00  0.00    +0.000 A 
ENDROOT
BRANCH   1  15
ATOM     15  N   UNL     1       4.094   3.660  17.315  0.00  0.00    +0.000 N 
ATOM     16  H   UNL     1       4.201   2.710  17.663  0.00  0.00    +0.000 HD
BRANCH  15  21
ATOM     17  C   UNL     1       6.242   4.109  14.286  0.00  0.00    +0.000 A 
ATOM     18  C   UNL     1       7.276   4.882  14.810  0.00  0.00    +0.000 A 
ATOM     19  C   UNL     1       7.241   5.264  16.152  0.00  0.00    +0.000 A 
ATOM     20  C   UNL     1       6.173   4.874  16.970  0.00  0.00    +0.000 A 
ATOM     21  C   UNL     1       5.135   4.085  16.462  0.00  0.00    +0.000 A 
ATOM     22  C   UNL     1       5.181   3.723  15.107  0.00  0.00    +0.000 A 
BRANCH  17  24
ATOM     23  C   UNL     1       6.296   3.260  11.797  0.00  0.00    +0.000 C 
ATOM     24  C   UNL     1       6.261   3.675  12.921  0.00  0.00    +0.000 C 
ENDBRANCH  17  24
ENDBRANCH  15  21
ENDBRANCH   1  15
BRANCH   5  25
ATOM     25  C   UNL     1       1.458  10.210  18.493  0.00  0.00    +0.000 C 
ATOM     26  O   UNL     1       0.761  11.017  19.085  0.00  0.00    +0.000 OA
BRANCH  25  27
ATOM     27  O   UNL     1       2.068  10.487  17.322  0.00  0.00    +0.000 OA
ATOM     28  H   UNL     1       1.586  11.064  16.701  0.00  0.00    +0.000 HD
ENDBRANCH  25  27
ENDBRANCH   5  25
TORSDOF 5
ENDMDL
MODEL 2
REMARK VINA RESULT:      -8.7      2.828      7.140
REMARK  Name = 
REMARK  5 active torsions:
REMARK  status: ('A' for Active; 'I' for Inactive)
REMARK    1  A    between atoms: C_2  and  C_3
REMARK    2  A    between atoms: C_7  and  N_8
REMARK    3  A    between atoms: N_8  and  C_9
REMARK    4  A    between atoms: C_13  and  C_14
REMARK    5  A    between atoms: C_14  and  O_16
REMARK                            x       y       z     vdW  Elec       q    Type
REMARK                         _______ _______ _______ _____ _____    ______ ____
ROOT
ATOM      1  C   UNL     1       2.700   5.741  19.778  0.00  0.00    +0.000 A 
ATOM      2  N   UNL     1       3.817   6.149  19.124  0.00  0.00    +0.000 NA
ATOM      3  C   UNL     1       4.326   5.402  18.155  0.00  0.00    +0.000 A 
ATOM      4  C   UNL     1       5.436   5.914  17.508  0.00  0.00    +0.000 A 
ATOM      5  C   UNL     1       6.057   5.215  16.474  0.00  0.00    +0.000 A 
ATOM      6  C   UNL     1       5.525   3.994  16.064  0.00  0.00    +0.000 A 
ATOM      7  C   UNL     1       4.396   3.474  16.709  0.00  0.00    +0.000 A 
ATOM      8  C   UNL     1       3.771   4.173  17.773  0.00  0.00    +0.000 A 
ATOM      9  C   UNL     1       2.603   3.746  18.490  0.00  0.00    +0.000 A 
ATOM     10  C   UNL     1       1.899   2.568  18.239  0.00  0.00    +0.000 A 
ATOM     11  N   UNL     1       0.794   2.172  18.899  0.00  0.00    +0.000 NA
ATOM     12  C   UNL     1       0.372   2.997  19.859  0.00  0.00    +0.000 A 
ATOM     13  N   UNL     1       0.945   4.156  20.205  0.00  0.00    +0.000 NA
ATOM     14  C   UNL     1       2.053   4.526  19.519  0.00  0.00    +0.000 A 
ENDROOT
BRANCH   1  15
ATOM     15  N   UNL     1       2.177   6.619  20.761  0.00  0.00    +0.000 N 
ATOM     16  H   UNL     1       1.763   6.109  21.538  0.00  0.00    +0.000 HD
BRANCH  15  21
ATOM     17  C   UNL     1       0.225   9.779  21.208  0.00  0.00    +0.000 A 
ATOM     18  C   UNL     1       0.322  10.329  19.933  0.00  0.00    +0.000 A 
ATOM     19  C   UNL     1       1.048   9.662  18.946  0.00  0.00    +0.000 A 
ATOM     20  C   UNL     1       1.678   8.445  19.233  0.00  0.00    +0.000 A 
ATOM     21  C   UNL     1       1.578   7.871  20.505  0.00  0.00    +0.000 A 
ATOM     22  C   UNL     1       0.856   8.564  21.488  0.00  0.00    +0.000 A 
BRANCH  17  24
ATOM     23  C   UNL     1      -1.176  10.909  23.126  0.00  0.00    +0.000 C 
ATOM     24  C   UNL     1      -0.536  10.422  22.237  0.00  0.00    +0.000 C 
ENDBRANCH  17  24
ENDBRANCH  15  21
ENDBRANCH   1  15
BRANCH   5  25
ATOM     25  C   UNL     1       7.231   5.776  15.763  0.00  0.00    +0.000 C 
ATOM     26  O   UNL     1       7.644   5.307  14.715  0.00  0.00    +0.000 OA
BRANCH  25  27
ATOM     27  O   UNL     1       7.821   6.818  16.383  0.00  0.00    +0.000 OA
ATOM     28  H   UNL     1       7.576   6.972  17.315  0.00  0.00    +0.000 HD
ENDBRANCH  25  27
ENDBRANCH   5  25
TORSDOF 5
ENDMDL
MODEL 3
REMARK VINA RESULT:      -8.4      1.130      1.347
REMARK  Name = 
REMARK  5 active torsions:
REMARK  status: ('A' for Active; 'I' for Inactive)
REMARK    1  A    between atoms: C_2  and  C_3
REMARK    2  A    between atoms: C_7  and  N_8
REMARK    3  A    between atoms: N_8  and  C_9
REMARK    4  A    between atoms: C_13  and  C_14
REMARK    5  A    between atoms: C_14  and  O_16
REMARK                            x       y       z     vdW  Elec       q    Type
REMARK                         _______ _______ _______ _____ _____    ______ ____
ROOT
ATOM      1  C   UNL     1       4.747   4.402  17.949  0.00  0.00    +0.000 A 
ATOM      2  N   UNL     1       4.333   5.620  17.517  0.00  0.00    +0.000 NA
ATOM      3  C   UNL     1       3.443   6.303  18.221  0.00  0.00    +0.000 A 
ATOM      4  C   UNL     1       3.111   7.555  17.735  0.00  0.00    +0.000 A 
ATOM      5  C   UNL     1       2.184   8.363  18.391  0.00  0.00    +0.000 A 
ATOM      6  C   UNL     1       1.609   7.912  19.578  0.00  0.00    +0.000 A 
ATOM      7  C   UNL     1       1.947   6.649  20.080  0.00  0.00    +0.000 A 
ATOM      8  C   UNL     1       2.876   5.816  19.406  0.00  0.00    +0.000 A 
ATOM      9  C   UNL     1       3.309   4.517  19.838  0.00  0.00    +0.000 A 
ATOM     10  C   UNL     1       2.879   3.878  21.000  0.00  0.00    +0.000 A 
ATOM     11  N   UNL     1       3.294   2.666  21.416  0.00  0.00    +0.000 NA
ATOM     12  C   UNL     1       4.188   2.064  20.629  0.00  0.00    +0.000 A 
ATOM     13  N   UNL     1       4.689   2.559  19.490  0.00  0.00    +0.000 NA
ATOM     14  C   UNL     1       4.252   3.782  19.102  0.00  0.00    +0.000 A 
ENDROOT
BRANCH   1  15
ATOM     15  N   UNL     1       5.747   3.755  17.179  0.00  0.00    +0.000 N 
ATOM     16  H   UNL     1       6.512   3.422  17.760  0.00  0.00    +0.000 HD
BRANCH  15  21
ATOM     17  C   UNL     1       5.822   3.999  13.447  0.00  0.00    +0.000 A 
ATOM     18  C   UNL     1       6.967   4.768  13.257  0.00  0.00    +0.000 A 
ATOM     19  C   UNL     1       7.690   5.216  14.364  0.00  0.00    +0.000 A 
ATOM     20  C   UNL     1       7.268   4.895  15.661  0.00  0.00    +0.000 A 
ATOM     21  C   UNL     1       6.128   4.111  15.867  0.00  0.00    +0.000 A 
ATOM     22  C   UNL     1       5.407   3.682  14.742  0.00  0.00    +0.000 A 
BRANCH  17  24
ATOM     23  C   UNL     1       4.423   3.040  11.437  0.00  0.00    +0.000 C 
ATOM     24  C   UNL     1       5.073   3.499  12.333  0.00  0.00    +0.000 C 
ENDBRANCH  17  24
ENDBRANCH  15  21
ENDBRANCH   1  15
BRANCH   5  25
ATOM     25  C   UNL     1       1.848   9.716  17.885  0.00  0.00    +0.000 C 
ATOM     26  O   UNL     1       2.700  10.559  17.660  0.00  0.00    +0.000 OA
BRANCH  25  27
ATOM     27  O   UNL     1       0.528   9.947  17.728  0.00  0.00    +0.000 OA
ATOM     28  H   UNL     1       0.276  10.784  17.295  0.00  0.00    +0.000 HD
ENDBRANCH  25  27
ENDBRANCH   5  25
TORSDOF 5
ENDMDL
MODEL 4
REMARK VINA RESULT:      -8.2      2.889      7.039
REMARK  Name = 
REMARK  5 active torsions:
REMARK  status: ('A' for Active; 'I' for Inactive)
REMARK    1  A    between atoms: C_2  and  C_3
REMARK    2  A    between atoms: C_7  and  N_8
REMARK    3  A    between atoms: N_8  and  C_9
REMARK    4  A    between atoms: C_13  and  C_14
REMARK    5  A    between atoms: C_14  and  O_16
REMARK                            x       y       z     vdW  Elec       q    Type
REMARK                         _______ _______ _______ _____ _____    ______ ____
ROOT
ATOM      1  C   UNL     1       2.934   5.946  19.431  0.00  0.00    +0.000 A 
ATOM      2  N   UNL     1       3.944   6.182  18.556  0.00  0.00    +0.000 NA
ATOM      3  C   UNL     1       4.317   5.236  17.706  0.00  0.00    +0.000 A 
ATOM      4  C   UNL     1       5.321   5.575  16.817  0.00  0.00    +0.000 A 
ATOM      5  C   UNL     1       5.795   4.660  15.879  0.00  0.00    +0.000 A 
ATOM      6  C   UNL     1       5.220   3.391  15.815  0.00  0.00    +0.000 A 
ATOM      7  C   UNL     1       4.197   3.044  16.707  0.00  0.00    +0.000 A 
ATOM      8  C   UNL     1       3.723   3.966  17.675  0.00  0.00    +0.000 A 
ATOM      9  C   UNL     1       2.672   3.727  18.622  0.00  0.00    +0.000 A 
ATOM     10  C   UNL     1       1.948   2.539  18.727  0.00  0.00    +0.000 A 
ATOM     11  N   UNL     1       0.950   2.315  19.604  0.00  0.00    +0.000 NA
ATOM     12  C   UNL     1       0.661   3.334  20.416  0.00  0.00    +0.000 A 
ATOM     13  N   UNL     1       1.269   4.527  20.425  0.00  0.00    +0.000 NA
ATOM     14  C   UNL     1       2.266   4.719  19.528  0.00  0.00    +0.000 A 
ENDROOT
BRANCH   1  15
ATOM     15  N   UNL     1       2.547   7.024  20.269  0.00  0.00    +0.000 N 
ATOM     16  H   UNL     1       2.334   6.708  21.211  0.00  0.00    +0.000 HD
BRANCH  15  21
ATOM     17  C   UNL     1       0.336  10.040  20.342  0.00  0.00    +0.000 A 
ATOM     18  C   UNL     1       0.295  10.368  18.990  0.00  0.00    +0.000 A 
ATOM     19  C   UNL     1       1.016   9.603  18.071  0.00  0.00    +0.000 A 
ATOM     20  C   UNL     1       1.777   8.510  18.504  0.00  0.00    +0.000 A 
ATOM     21  C   UNL     1       1.816   8.159  19.857  0.00  0.00    +0.000 A 
ATOM     22  C   UNL     1       1.097   8.948  20.768  0.00  0.00    +0.000 A 
BRANCH  17  24
ATOM     23  C   UNL     1      -1.088  11.406  22.080  0.00  0.00    +0.000 C 
ATOM     24  C   UNL     1      -0.414  10.786  21.308  0.00  0.00    +0.000 C 
ENDBRANCH  17  24
ENDBRANCH  15  21
ENDBRANCH   1  15
BRANCH   5  25
ATOM     25  C   UNL     1       6.853   5.031  14.908  0.00  0.00    +0.000 C 
ATOM     26  O   UNL     1       7.745   5.815  15.184  0.00  0.00    +0.000 OA
BRANCH  25  27
ATOM     27  O   UNL     1       6.728   4.460  13.693  0.00  0.00    +0.000 OA
ATOM     28  H   UNL     1       7.479   3.921  13.380  0.00  0.00    +0.000 HD
ENDBRANCH  25  27
ENDBRANCH   5  25
TORSDOF 5
ENDMDL
MODEL 5
REMARK VINA RESULT:      -8.1      3.354      7.387
REMARK  Name = 
REMARK  5 active torsions:
REMARK  status: ('A' for Active; 'I' for Inactive)
REMARK    1  A    between atoms: C_2  and  C_3
REMARK    2  A    between atoms: C_7  and  N_8
REMARK    3  A    between atoms: N_8  and  C_9
REMARK    4  A    between atoms: C_13  and  C_14
REMARK    5  A    between atoms: C_14  and  O_16
REMARK                            x       y       z     vdW  Elec       q    Type
REMARK                         _______ _______ _______ _____ _____    ______ ____
ROOT
ATOM      1  C   UNL     1       5.284   3.766  18.063  0.00  0.00    +0.000 A 
ATOM      2  N   UNL     1       4.971   3.327  16.818  0.00  0.00    +0.000 NA
ATOM      3  C   UNL     1       5.607   3.819  15.764  0.00  0.00    +0.000 A 
ATOM      4  C   UNL     1       5.260   3.283  14.537  0.00  0.00    +0.000 A 
ATOM      5  C   UNL     1       5.861   3.723  13.360  0.00  0.00    +0.000 A 
ATOM      6  C   UNL     1       6.856   4.698  13.428  0.00  0.00    +0.000 A 
ATOM      7  C   UNL     1       7.218   5.239  14.668  0.00  0.00    +0.000 A 
ATOM      8  C   UNL     1       6.596   4.806  15.867  0.00  0.00    +0.000 A 
ATOM      9  C   UNL     1       6.900   5.274  17.190  0.00  0.00    +0.000 A 
ATOM     10  C   UNL     1       7.868   6.232  17.494  0.00  0.00    +0.000 A 
ATOM     11  N   UNL     1       8.166   6.663  18.735  0.00  0.00    +0.000 NA
ATOM     12  C   UNL     1       7.461   6.105  19.721  0.00  0.00    +0.000 A 
ATOM     13  N   UNL     1       6.507   5.176  19.576  0.00  0.00    +0.000 NA
ATOM     14  C   UNL     1       6.234   4.764  18.315  0.00  0.00    +0.000 A 
ENDROOT
BRANCH   1  15
ATOM     15  N   UNL     1       4.607   3.152  19.148  0.00  0.00    +0.000 N 
ATOM     16  H   UNL     1       4.794   2.154  19.190  0.00  0.00    +0.000 HD
BRANCH  15  21
ATOM     17  C   UNL     1       1.766   5.215  20.438  0.00  0.00    +0.000 A 
ATOM     18  C   UNL     1       0.819   4.226  20.695  0.00  0.00    +0.000 A 
ATOM     19  C   UNL     1       1.122   2.892  20.420  0.00  0.00    +0.000 A 
ATOM     20  C   UNL     1       2.370   2.546  19.887  0.00  0.00    +0.000 A 
ATOM     21  C   UNL     1       3.337   3.526  19.637  0.00  0.00    +0.000 A 
ATOM     22  C   UNL     1       3.008   4.863  19.907  0.00  0.00    +0.000 A 
BRANCH  17  24
ATOM     23  C   UNL     1       1.325   7.756  20.955  0.00  0.00    +0.000 C 
ATOM     24  C   UNL     1       1.499   6.590  20.736  0.00  0.00    +0.000 C 
ENDBRANCH  17  24
ENDBRANCH  15  21
ENDBRANCH   1  15
BRANCH   5  25
ATOM     25  C   UNL     1       5.509   3.131  12.046  0.00  0.00    +0.000 C 
ATOM     26  O   UNL     1       4.555   3.517  11.391  0.00  0.00    +0.000 OA
BRANCH  25  27
ATOM     27  O   UNL     1       6.304   2.114  11.655  0.00  0.00    +0.000 OA
ATOM     28  H   UNL     1       6.955   2.309  10.955  0.00  0.00    +0.000 HD
ENDBRANCH  25  27
ENDBRANCH   5  25
TORSDOF 5
ENDMDL
MODEL 6
REMARK VINA RESULT:      -8.0      1.159      2.327
REMARK  Name = 
REMARK  5 active torsions:
REMARK  status: ('A' for Active; 'I' for Inactive)
REMARK    1  A    between atoms: C_2  and  C_3
REMARK    2  A    between atoms: C_7  and  N_8
REMARK    3  A    between atoms: N_8  and  C_9
REMARK    4  A    between atoms: C_13  and  C_14
REMARK    5  A    between atoms: C_14  and  O_16
REMARK                            x       y       z     vdW  Elec       q    Type
REMARK                         _______ _______ _______ _____ _____    ______ ____
ROOT
ATOM      1  C   UNL     1       3.026   5.109  18.278  0.00  0.00    +0.000 A 
ATOM      2  N   UNL     1       2.671   6.404  18.082  0.00  0.00    +0.000 NA
ATOM      3  C   UNL     1       2.081   7.083  19.055  0.00  0.00    +0.000 A 
ATOM      4  C   UNL     1       1.796   8.410  18.788  0.00  0.00    +0.000 A 
ATOM      5  C   UNL     1       1.174   9.220  19.736  0.00  0.00    +0.000 A 
ATOM      6  C   UNL     1       0.868   8.690  20.988  0.00  0.00    +0.000 A 
ATOM      7  C   UNL     1       1.161   7.349  21.268  0.00  0.00    +0.000 A 
ATOM      8  C   UNL     1       1.777   6.515  20.300  0.00  0.00    +0.000 A 
ATOM      9  C   UNL     1       2.140   5.139  20.483  0.00  0.00    +0.000 A 
ATOM     10  C   UNL     1       1.943   4.411  21.657  0.00  0.00    +0.000 A 
ATOM     11  N   UNL     1       2.295   3.124  21.838  0.00  0.00    +0.000 NA
ATOM     12  C   UNL     1       2.877   2.535  20.791  0.00  0.00    +0.000 A 
ATOM     13  N   UNL     1       3.131   3.111  19.608  0.00  0.00    +0.000 NA
ATOM     14  C   UNL     1       2.765   4.407  19.462  0.00  0.00    +0.000 A 
ENDROOT
BRANCH   1  15
ATOM     15  N   UNL     1       3.708   4.464  17.215  0.00  0.00    +0.000 N 
ATOM     16  H   UNL     1       3.508   3.467  17.192  0.00  0.00    +0.000 HD
BRANCH  15  21
ATOM     17  C   UNL     1       6.969   6.240  16.762  0.00  0.00    +0.000 A 
ATOM     18  C   UNL     1       7.508   5.529  15.692  0.00  0.00    +0.000 A 
ATOM     19  C   UNL     1       6.799   4.458  15.147  0.00  0.00    +0.000 A 
ATOM     20  C   UNL     1       5.551   4.097  15.670  0.00  0.00    +0.000 A 
ATOM     21  C   UNL     1       4.989   4.810  16.734  0.00  0.00    +0.000 A 
ATOM     22  C   UNL     1       5.724   5.875  17.279  0.00  0.00    +0.000 A 
BRANCH  17  24
ATOM     23  C   UNL     1       8.179   8.327  17.808  0.00  0.00    +0.000 C 
ATOM     24  C   UNL     1       7.656   7.362  17.327  0.00  0.00    +0.000 C 
ENDBRANCH  17  24
ENDBRANCH  15  21
ENDBRANCH   1  15
BRANCH   5  25
ATOM     25  C   UNL     1       0.892  10.650  19.460  0.00  0.00    +0.000 C 
ATOM     26  O   UNL     1       0.914  11.500  20.334  0.00  0.00    +0.000 OA
BRANCH  25  27
ATOM     27  O   UNL     1       0.579  10.925  18.177  0.00  0.00    +0.000 OA
ATOM     28  H   UNL     1      -0.296  10.628  17.864  0.00  0.00    +0.000 HD
ENDBRANCH  25  27
ENDBRANCH   5  25
TORSDOF 5
ENDMDL
MODEL 7
REMARK VINA RESULT:      -7.9      2.815      6.620
REMARK  Name = 
REMARK  5 active torsions:
REMARK  status: ('A' for Active; 'I' for Inactive)
REMARK    1  A    between atoms: C_2  and  C_3
REMARK    2  A    between atoms: C_7  and  N_8
REMARK    3  A    between atoms: N_8  and  C_9
REMARK    4  A    between atoms: C_13  and  C_14
REMARK    5  A    between atoms: C_14  and  O_16
REMARK                            x       y       z     vdW  Elec       q    Type
REMARK                         _______ _______ _______ _____ _____    ______ ____
ROOT
ATOM      1  C   UNL     1       2.611   5.660  19.912  0.00  0.00    +0.000 A 
ATOM      2  N   UNL     1       3.734   6.110  19.296  0.00  0.00    +0.000 NA
ATOM      3  C   UNL     1       4.258   5.424  18.292  0.00  0.00    +0.000 A 
ATOM      4  C   UNL     1       5.374   5.977  17.690  0.00  0.00    +0.000 A 
ATOM      5  C   UNL     1       6.011   5.343  16.626  0.00  0.00    +0.000 A 
ATOM      6  C   UNL     1       5.490   4.145  16.137  0.00  0.00    +0.000 A 
ATOM      7  C   UNL     1       4.356   3.583  16.737  0.00  0.00    +0.000 A 
ATOM      8  C   UNL     1       3.714   4.217  17.832  0.00  0.00    +0.000 A 
ATOM      9  C   UNL     1       2.540   3.743  18.508  0.00  0.00    +0.000 A 
ATOM     10  C   UNL     1       1.844   2.580  18.179  0.00  0.00    +0.000 A 
ATOM     11  N   UNL     1       0.733   2.140  18.801  0.00  0.00    +0.000 NA
ATOM     12  C   UNL     1       0.295   2.906  19.802  0.00  0.00    +0.000 A 
ATOM     13  N   UNL     1       0.859   4.046  20.223  0.00  0.00    +0.000 NA
ATOM     14  C   UNL     1       1.973   4.460  19.574  0.00  0.00    +0.000 A 
ENDROOT
BRANCH   1  15
ATOM     15  N   UNL     1       2.071   6.477  20.938  0.00  0.00    +0.000 N 
ATOM     16  H   UNL     1       1.730   5.922  21.719  0.00  0.00    +0.000 HD
BRANCH  15  21
ATOM     17  C   UNL     1       1.113   9.847  19.628  0.00  0.00    +0.000 A 
ATOM     18  C   UNL     1       0.009  10.135  20.427  0.00  0.00    +0.000 A 
ATOM     19  C   UNL     1      -0.419   9.204  21.375  0.00  0.00    +0.000 A 
ATOM     20  C   UNL     1       0.255   7.985  21.524  0.00  0.00    +0.000 A 
ATOM     21  C   UNL     1       1.374   7.688  20.739  0.00  0.00    +0.000 A 
ATOM     22  C   UNL     1       1.781   8.630  19.781  0.00  0.00    +0.000 A 
BRANCH  17  24
ATOM     23  C   UNL     1       2.054  11.577  17.886  0.00  0.00    +0.000 C 
ATOM     24  C   UNL     1       1.596  10.791  18.666  0.00  0.00    +0.000 C 
ENDBRANCH  17  24
ENDBRANCH  15  21
ENDBRANCH   1  15
BRANCH   5  25
ATOM     25  C   UNL     1       7.191   5.949  15.963  0.00  0.00    +0.000 C 
ATOM     26  O   UNL     1       7.663   5.500  14.932  0.00  0.00    +0.000 OA
BRANCH  25  27
ATOM     27  O   UNL     1       7.717   7.010  16.609  0.00  0.00    +0.000 OA
ATOM     28  H   UNL     1       7.289   7.874  16.457  0.00  0.00    +0.000 HD
ENDBRANCH  25  27
ENDBRANCH   5  25
TORSDOF 5
ENDMDL
MODEL 8
REMARK VINA RESULT:      -7.8      4.517      8.248
REMARK  Name = 
REMARK  5 active torsions:
REMARK  status: ('A' for Active; 'I' for Inactive)
REMARK    1  A    between atoms: C_2  and  C_3
REMARK    2  A    between atoms: C_7  and  N_8
REMARK    3  A    between atoms: N_8  and  C_9
REMARK    4  A    between atoms: C_13  and  C_14
REMARK    5  A    between atoms: C_14  and  O_16
REMARK                            x       y       z     vdW  Elec       q    Type
REMARK                         _______ _______ _______ _____ _____    ______ ____
ROOT
ATOM      1  C   UNL     1       0.061  10.522  19.094  0.00  0.00    +0.000 A 
ATOM      2  N   UNL     1       0.785   9.673  18.321  0.00  0.00    +0.000 NA
ATOM      3  C   UNL     1       1.435   8.663  18.880  0.00  0.00    +0.000 A 
ATOM      4  C   UNL     1       2.108   7.817  18.016  0.00  0.00    +0.000 A 
ATOM      5  C   UNL     1       2.828   6.723  18.490  0.00  0.00    +0.000 A 
ATOM      6  C   UNL     1       2.839   6.457  19.859  0.00  0.00    +0.000 A 
ATOM      7  C   UNL     1       2.153   7.304  20.738  0.00  0.00    +0.000 A 
ATOM      8  C   UNL     1       1.433   8.430  20.262  0.00  0.00    +0.000 A 
ATOM      9  C   UNL     1       0.681   9.350  21.066  0.00  0.00    +0.000 A 
ATOM     10  C   UNL     1       0.541   9.269  22.452  0.00  0.00    +0.000 A 
ATOM     11  N   UNL     1      -0.177  10.122  23.208  0.00  0.00    +0.000 NA
ATOM     12  C   UNL     1      -0.786  11.105  22.544  0.00  0.00    +0.000 A 
ATOM     13  N   UNL     1      -0.741  11.303  21.220  0.00  0.00    +0.000 NA
ATOM     14  C   UNL     1      -0.013  10.425  20.489  0.00  0.00    +0.000 A 
ENDROOT
BRANCH   1  15
ATOM     15  N   UNL     1      -0.658  11.544  18.422  0.00  0.00    +0.000 N 
ATOM     16  H   UNL     1      -0.486  12.457  18.835  0.00  0.00    +0.000 HD
BRANCH  15  21
ATOM     17  C   UNL     1      -3.384  10.789  15.975  0.00  0.00    +0.000 A 
ATOM     18  C   UNL     1      -4.503  11.207  16.691  0.00  0.00    +0.000 A 
ATOM     19  C   UNL     1      -4.347  11.714  17.982  0.00  0.00    +0.000 A 
ATOM     20  C   UNL     1      -3.073  11.802  18.557  0.00  0.00    +0.000 A 
ATOM     21  C   UNL     1      -1.938  11.400  17.845  0.00  0.00    +0.000 A 
ATOM     22  C   UNL     1      -2.117  10.880  16.554  0.00  0.00    +0.000 A 
BRANCH  17  24
ATOM     23  C   UNL     1      -3.661   9.899  13.516  0.00  0.00    +0.000 C 
ATOM     24  C   UNL     1      -3.505  10.291  14.637  0.00  0.00    +0.000 C 
ENDBRANCH  17  24
ENDBRANCH  15  21
ENDBRANCH   1  15
BRANCH   5  25
ATOM     25  C   UNL     1       3.528   5.801  17.563  0.00  0.00    +0.000 C 
ATOM     26  O   UNL     1       4.398   6.182  16.798  0.00  0.00    +0.000 OA
BRANCH  25  27
ATOM     27  O   UNL     1       3.102   4.522  17.611  0.00  0.00    +0.000 OA
ATOM     28  H   UNL     1       3.361   3.943  16.870  0.00  0.00    +0.000 HD
ENDBRANCH  25  27
ENDBRANCH   5  25
TORSDOF 5
ENDMDL
MODEL 9
REMARK VINA RESULT:      -7.7      4.451      7.393
REMARK  Name = 
REMARK  5 active torsions:
REMARK  status: ('A' for Active; 'I' for Inactive)
REMARK    1  A    between atoms: C_2  and  C_3
REMARK    2  A    between atoms: C_7  and  N_8
REMARK    3  A    between atoms: N_8  and  C_9
REMARK    4  A    between atoms: C_13  and  C_14
REMARK    5  A    between atoms: C_14  and  O_16
REMARK                            x       y       z     vdW  Elec       q    Type
REMARK                         _______ _______ _______ _____ _____    ______ ____
ROOT
ATOM      1  C   UNL     1       0.104  10.032  19.729  0.00  0.00    +0.000 A 
ATOM      2  N   UNL     1      -0.339   9.713  18.486  0.00  0.00    +0.000 NA
ATOM      3  C   UNL     1      -1.438  10.280  18.010  0.00  0.00    +0.000 A 
ATOM      4  C   UNL     1      -1.793   9.935  16.719  0.00  0.00    +0.000 A 
ATOM      5  C   UNL     1      -2.930  10.468  16.115  0.00  0.00    +0.000 A 
ATOM      6  C   UNL     1      -3.703  11.392  16.816  0.00  0.00    +0.000 A 
ATOM      7  C   UNL     1      -3.345  11.752  18.121  0.00  0.00    +0.000 A 
ATOM      8  C   UNL     1      -2.198  11.199  18.747  0.00  0.00    +0.000 A 
ATOM      9  C   UNL     1      -1.727  11.509  20.067  0.00  0.00    +0.000 A 
ATOM     10  C   UNL     1      -2.333  12.414  20.938  0.00  0.00    +0.000 A 
ATOM     11  N   UNL     1      -1.886  12.719  22.171  0.00  0.00    +0.000 NA
ATOM     12  C   UNL     1      -0.775  12.086  22.552  0.00  0.00    +0.000 A 
ATOM     13  N   UNL     1      -0.089  11.197  21.821  0.00  0.00    +0.000 NA
ATOM     14  C   UNL     1      -0.565  10.916  20.584  0.00  0.00    +0.000 A 
ENDROOT
BRANCH   1  15
ATOM     15  N   UNL     1       1.319   9.434  20.149  0.00  0.00    +0.000 N 
ATOM     16  H   UNL     1       2.036  10.131  20.334  0.00  0.00    +0.000 HD
BRANCH  15  21
ATOM     17  C   UNL     1       2.238   5.810  20.029  0.00  0.00    +0.000 A 
ATOM     18  C   UNL     1       2.906   5.748  18.809  0.00  0.00    +0.000 A 
ATOM     19  C   UNL     1       3.027   6.899  18.029  0.00  0.00    +0.000 A 
ATOM     20  C   UNL     1       2.480   8.112  18.469  0.00  0.00    +0.000 A 
ATOM     21  C   UNL     1       1.819   8.193  19.699  0.00  0.00    +0.000 A 
ATOM     22  C   UNL     1       1.695   7.021  20.462  0.00  0.00    +0.000 A 
BRANCH  17  24
ATOM     23  C   UNL     1       2.077   3.672  21.554  0.00  0.00    +0.000 C 
ATOM     24  C   UNL     1       2.120   4.654  20.868  0.00  0.00    +0.000 C 
ENDBRANCH  17  24
ENDBRANCH  15  21
ENDBRANCH   1  15
BRANCH   5  25
ATOM     25  C   UNL     1      -3.297  10.119  14.720  0.00  0.00    +0.000 C 
ATOM     26  O   UNL     1      -2.460   9.878  13.867  0.00  0.00    +0.000 OA
BRANCH  25  27
ATOM     27  O   UNL     1      -4.622  10.123  14.468  0.00  0.00    +0.000 OA
ATOM     28  H   UNL     1      -5.031   9.265  14.252  0.00  0.00    +0.000 HD
ENDBRANCH  25  27
ENDBRANCH   5  25
TORSDOF 5
ENDMDL
