MODEL 1
REMARK VINA RESULT:      -7.9      0.000      0.000
REMARK  Name = 
REMARK  3 active torsions:
REMARK  status: ('A' for Active; 'I' for Inactive)
REMARK    1  A    between atoms: C_2  and  C_3
REMARK    2  A    between atoms: C_3  and  C_4
REMARK    3  A    between atoms: C_3  and  N_10
REMARK                            x       y       z     vdW  Elec       q    Type
REMARK                         _______ _______ _______ _____ _____    ______ ____
ROOT
ATOM      1  C   UNL     1       3.908   5.087  19.625  0.00  0.00    +0.000 C 
ENDROOT
BRANCH   1   3
ATOM      2  O   UNL     1       6.299   5.531  19.770  0.00  0.00    +0.000 OA
ATOM      3  C   UNL     1       5.376   5.101  19.072  0.00  0.00    +0.000 C 
ATOM      4  N   UNL     1       5.655   4.647  17.786  0.00  0.00    +0.000 N 
ATOM      5  C   UNL     1       7.073   4.631  17.389  0.00  0.00    +0.000 C 
ATOM      6  C   UNL     1       7.240   4.904  15.896  0.00  0.00    +0.000 C 
ATOM      7  O   UNL     1       6.462   3.983  15.122  0.00  0.00    +0.000 OA
ATOM      8  C   UNL     1       5.069   4.128  15.428  0.00  0.00    +0.000 C 
ATOM      9  C   UNL     1       4.783   3.854  16.919  0.00  0.00    +0.000 C 
ENDBRANCH   1   3
BRANCH   1  10
ATOM     10  C   UNL     1       3.150   6.354  19.140  0.00  0.00    +0.000 A 
ATOM     11  C   UNL     1       3.314   6.890  17.851  0.00  0.00    +0.000 A 
ATOM     12  C   UNL     1       2.739   8.121  17.508  0.00  0.00    +0.000 A 
ATOM     13  C   UNL     1       1.960   8.818  18.429  0.00  0.00    +0.000 A 
ATOM     14  C   UNL     1       1.704   8.257  19.673  0.00  0.00    +0.000 A 
ATOM     15  C   UNL     1       2.266   7.027  20.010  0.00  0.00    +0.000 A 
ENDBRANCH   1  10
BRANCH   1  16
ATOM     16  N   UNL     1       3.202   3.803  19.307  0.00  0.00    +0.000 NA
ATOM     17  C   UNL     1       1.749   3.900  19.070  0.00  0.00    +0.000 C 
ATOM     18  C   UNL     1       0.856   3.793  20.323  0.00  0.00    +0.000 C 
ATOM     19  O   UNL     1       1.163   2.634  21.104  0.00  0.00    +0.000 OA
ATOM     20  C   UNL     1       2.548   2.616  21.471  0.00  0.00    +0.000 C 
ATOM     21  C   UNL     1       3.447   2.670  20.227  0.00  0.00    +0.000 C 
ENDBRANCH   1  16
TORSDOF 3
ENDMDL
MODEL 2
REMARK VINA RESULT:      -7.8      0.147      1.058
REMARK  Name = 
REMARK  3 active torsions:
REMARK  status: ('A' for Active; 'I' for Inactive)
REMARK    1  A    between atoms: C_2  and  C_3
REMARK    2  A    between atoms: C_3  and  C_4
REMARK    3  A    between atoms: C_3  and  N_10
REMARK                            x       y       z     vdW  Elec       q    Type
REMARK                         _______ _______ _______ _____ _____    ______ ____
ROOT
ATOM      1  C   UNL     1       3.977   5.080  19.620  0.00  0.00    +0.000 C 
ENDROOT
BRANCH   1   3
ATOM      2  O   UNL     1       6.389   5.369  19.798  0.00  0.00    +0.000 OA
ATOM      3  C   UNL     1       5.448   5.026  19.077  0.00  0.00    +0.000 C 
ATOM      4  N   UNL     1       5.710   4.607  17.775  0.00  0.00    +0.000 N 
ATOM      5  C   UNL     1       7.127   4.520  17.387  0.00  0.00    +0.000 C 
ATOM      6  C   UNL     1       7.324   4.842  15.907  0.00  0.00    +0.000 C 
ATOM      7  O   UNL     1       6.497   4.003  15.092  0.00  0.00    +0.000 OA
ATOM      8  C   UNL     1       5.113   4.220  15.395  0.00  0.00    +0.000 C 
ATOM      9  C   UNL     1       4.798   3.906  16.871  0.00  0.00    +0.000 C 
ENDBRANCH   1   3
BRANCH   1  10
ATOM     10  C   UNL     1       3.297   6.402  19.169  0.00  0.00    +0.000 A 
ATOM     11  C   UNL     1       2.407   7.118  19.990  0.00  0.00    +0.000 A 
ATOM     12  C   UNL     1       1.693   8.213  19.488  0.00  0.00    +0.000 A 
ATOM     13  C   UNL     1       1.881   8.639  18.175  0.00  0.00    +0.000 A 
ATOM     14  C   UNL     1       2.828   8.007  17.380  0.00  0.00    +0.000 A 
ATOM     15  C   UNL     1       3.548   6.925  17.883  0.00  0.00    +0.000 A 
ENDBRANCH   1  10
BRANCH   1  16
ATOM     16  N   UNL     1       3.201   3.849  19.259  0.00  0.00    +0.000 NA
ATOM     17  C   UNL     1       1.750   4.029  19.057  0.00  0.00    +0.000 C 
ATOM     18  C   UNL     1       0.877   3.908  20.323  0.00  0.00    +0.000 C 
ATOM     19  O   UNL     1       1.140   2.699  21.043  0.00  0.00    +0.000 OA
ATOM     20  C   UNL     1       2.529   2.595  21.379  0.00  0.00    +0.000 C 
ATOM     21  C   UNL     1       3.406   2.663  20.120  0.00  0.00    +0.000 C 
ENDBRANCH   1  16
TORSDOF 3
ENDMDL
MODEL 3
REMARK VINA RESULT:      -7.4      1.479      1.952
REMARK  Name = 
REMARK  3 active torsions:
REMARK  status: ('A' for Active; 'I' for Inactive)
REMARK    1  A    between atoms: C_2  and  C_3
REMARK    2  A    between atoms: C_3  and  C_4
REMARK    3  A    between atoms: C_3  and  N_10
REMARK                            x       y       z     vdW  Elec       q    Type
REMARK                         _______ _______ _______ _____ _____    ______ ____
ROOT
ATOM      1  C   UNL     1       3.267   4.914  18.827  0.00  0.00    +0.000 C 
ENDROOT
BRANCH   1   3
ATOM      2  O   UNL     1       3.212   3.983  16.576  0.00  0.00    +0.000 OA
ATOM      3  C   UNL     1       3.836   4.677  17.384  0.00  0.00    +0.000 C 
ATOM      4  N   UNL     1       5.056   5.230  17.001  0.00  0.00    +0.000 N 
ATOM      5  C   UNL     1       5.465   5.011  15.604  0.00  0.00    +0.000 C 
ATOM      6  C   UNL     1       6.983   4.907  15.474  0.00  0.00    +0.000 C 
ATOM      7  O   UNL     1       7.620   6.059  16.041  0.00  0.00    +0.000 OA
ATOM      8  C   UNL     1       7.317   6.159  17.438  0.00  0.00    +0.000 C 
ATOM      9  C   UNL     1       5.801   6.287  17.684  0.00  0.00    +0.000 C 
ENDBRANCH   1   3
BRANCH   1  10
ATOM     10  C   UNL     1       2.565   6.299  18.895  0.00  0.00    +0.000 A 
ATOM     11  C   UNL     1       2.288   7.068  17.752  0.00  0.00    +0.000 A 
ATOM     12  C   UNL     1       1.803   8.377  17.869  0.00  0.00    +0.000 A 
ATOM     13  C   UNL     1       1.550   8.927  19.122  0.00  0.00    +0.000 A 
ATOM     14  C   UNL     1       1.723   8.150  20.259  0.00  0.00    +0.000 A 
ATOM     15  C   UNL     1       2.193   6.843  20.143  0.00  0.00    +0.000 A 
ENDBRANCH   1  10
BRANCH   1  16
ATOM     16  N   UNL     1       2.403   3.777  19.282  0.00  0.00    +0.000 NA
ATOM     17  C   UNL     1       1.570   4.028  20.474  0.00  0.00    +0.000 C 
ATOM     18  C   UNL     1       2.240   3.738  21.833  0.00  0.00    +0.000 C 
ATOM     19  O   UNL     1       2.809   2.426  21.882  0.00  0.00    +0.000 OA
ATOM     20  C   UNL     1       3.740   2.231  20.812  0.00  0.00    +0.000 C 
ATOM     21  C   UNL     1       3.071   2.467  19.450  0.00  0.00    +0.000 C 
ENDBRANCH   1  16
TORSDOF 3
ENDMDL
MODEL 4
REMARK VINA RESULT:      -7.3      1.469      2.174
REMARK  Name = 
REMARK  3 active torsions:
REMARK  status: ('A' for Active; 'I' for Inactive)
REMARK    1  A    between atoms: C_2  and  C_3
REMARK    2  A    between atoms: C_3  and  C_4
REMARK    3  A    between atoms: C_3  and  N_10
REMARK                            x       y       z     vdW  Elec       q    Type
REMARK                         _______ _______ _______ _____ _____    ______ ____
ROOT
ATOM      1  C   UNL     1       3.422   5.400  19.491  0.00  0.00    +0.000 C 
ENDROOT
BRANCH   1   3
ATOM      2  O   UNL     1       2.778   4.685  17.253  0.00  0.00    +0.000 OA
ATOM      3  C   UNL     1       3.708   5.000  18.001  0.00  0.00    +0.000 C 
ATOM      4  N   UNL     1       5.010   4.979  17.508  0.00  0.00    +0.000 N 
ATOM      5  C   UNL     1       5.165   4.664  16.079  0.00  0.00    +0.000 C 
ATOM      6  C   UNL     1       6.467   3.911  15.809  0.00  0.00    +0.000 C 
ATOM      7  O   UNL     1       7.589   4.642  16.317  0.00  0.00    +0.000 OA
ATOM      8  C   UNL     1       7.478   4.805  17.737  0.00  0.00    +0.000 C 
ATOM      9  C   UNL     1       6.198   5.574  18.122  0.00  0.00    +0.000 C 
ENDBRANCH   1   3
BRANCH   1  10
ATOM     10  C   UNL     1       2.543   6.682  19.533  0.00  0.00    +0.000 A 
ATOM     11  C   UNL     1       2.414   7.551  18.436  0.00  0.00    +0.000 A 
ATOM     12  C   UNL     1       1.746   8.775  18.567  0.00  0.00    +0.000 A 
ATOM     13  C   UNL     1       1.162   9.136  19.779  0.00  0.00    +0.000 A 
ATOM     14  C   UNL     1       1.192   8.247  20.845  0.00  0.00    +0.000 A 
ATOM     15  C   UNL     1       1.847   7.024  20.711  0.00  0.00    +0.000 A 
ENDBRANCH   1  10
BRANCH   1  16
ATOM     16  N   UNL     1       2.859   4.257  20.280  0.00  0.00    +0.000 NA
ATOM     17  C   UNL     1       3.593   2.980  20.191  0.00  0.00    +0.000 C 
ATOM     18  C   UNL     1       3.188   2.053  19.027  0.00  0.00    +0.000 C 
ATOM     19  O   UNL     1       1.775   1.827  18.987  0.00  0.00    +0.000 OA
ATOM     20  C   UNL     1       1.060   3.065  18.914  0.00  0.00    +0.000 C 
ATOM     21  C   UNL     1       1.417   3.977  20.098  0.00  0.00    +0.000 C 
ENDBRANCH   1  16
TORSDOF 3
ENDMDL
MODEL 5
REMARK VINA RESULT:      -7.1      1.357      2.148
REMARK  Name = 
REMARK  3 active torsions:
REMARK  status: ('A' for Active; 'I' for Inactive)
REMARK    1  A    between atoms: C_2  and  C_3
REMARK    2  A    between atoms: C_3  and  C_4
REMARK    3  A    between atoms: C_3  and  N_10
REMARK                            x       y       z     vdW  Elec       q    Type
REMARK                         _______ _______ _______ _____ _____    ______ ____
ROOT
ATOM      1  C   UNL     1       3.187   4.998  18.964  0.00  0.00    +0.000 C 
ENDROOT
BRANCH   1   3
ATOM      2  O   UNL     1       2.894   4.229  16.671  0.00  0.00    +0.000 OA
ATOM      3  C   UNL     1       3.683   4.667  17.513  0.00  0.00    +0.000 C 
ATOM      4  N   UNL     1       5.018   4.847  17.160  0.00  0.00    +0.000 N 
ATOM      5  C   UNL     1       5.367   4.580  15.755  0.00  0.00    +0.000 C 
ATOM      6  C   UNL     1       6.787   4.033  15.624  0.00  0.00    +0.000 C 
ATOM      7  O   UNL     1       7.728   4.915  16.247  0.00  0.00    +0.000 OA
ATOM      8  C   UNL     1       7.447   5.038  17.647  0.00  0.00    +0.000 C 
ATOM      9  C   UNL     1       6.033   5.602  17.894  0.00  0.00    +0.000 C 
ENDBRANCH   1   3
BRANCH   1  10
ATOM     10  C   UNL     1       2.655   6.457  19.020  0.00  0.00    +0.000 A 
ATOM     11  C   UNL     1       2.149   7.037  20.196  0.00  0.00    +0.000 A 
ATOM     12  C   UNL     1       1.532   8.294  20.167  0.00  0.00    +0.000 A 
ATOM     13  C   UNL     1       1.442   9.010  18.976  0.00  0.00    +0.000 A 
ATOM     14  C   UNL     1       2.023   8.499  17.824  0.00  0.00    +0.000 A 
ATOM     15  C   UNL     1       2.649   7.253  17.855  0.00  0.00    +0.000 A 
ENDBRANCH   1  10
BRANCH   1  16
ATOM     16  N   UNL     1       2.208   3.980  19.467  0.00  0.00    +0.000 NA
ATOM     17  C   UNL     1       1.550   4.288  20.751  0.00  0.00    +0.000 C 
ATOM     18  C   UNL     1       2.301   3.828  22.018  0.00  0.00    +0.000 C 
ATOM     19  O   UNL     1       2.662   2.445  21.955  0.00  0.00    +0.000 OA
ATOM     20  C   UNL     1       3.439   2.171  20.783  0.00  0.00    +0.000 C 
ATOM     21  C   UNL     1       2.679   2.578  19.512  0.00  0.00    +0.000 C 
ENDBRANCH   1  16
TORSDOF 3
ENDMDL
MODEL 6
REMARK VINA RESULT:      -7.1      2.537      5.899
REMARK  Name = 
REMARK  3 active torsions:
REMARK  status: ('A' for Active; 'I' for Inactive)
REMARK    1  A    between atoms: C_2  and  C_3
REMARK    2  A    between atoms: C_3  and  C_4
REMARK    3  A    between atoms: C_3  and  N_10
REMARK                            x       y       z     vdW  Elec       q    Type
REMARK                         _______ _______ _______ _____ _____    ______ ____
ROOT
ATOM      1  C   UNL     1       3.888   6.414  18.269  0.00  0.00    +0.000 C 
ENDROOT
BRANCH   1   3
ATOM      2  O   UNL     1       2.869   8.144  16.890  0.00  0.00    +0.000 OA
ATOM      3  C   UNL     1       2.914   7.615  18.004  0.00  0.00    +0.000 C 
ATOM      4  N   UNL     1       2.101   8.108  19.022  0.00  0.00    +0.000 N 
ATOM      5  C   UNL     1       1.168   9.186  18.652  0.00  0.00    +0.000 C 
ATOM      6  C   UNL     1       0.939  10.151  19.812  0.00  0.00    +0.000 C 
ATOM      7  O   UNL     1       0.500   9.446  20.980  0.00  0.00    +0.000 OA
ATOM      8  C   UNL     1       1.497   8.505  21.398  0.00  0.00    +0.000 C 
ATOM      9  C   UNL     1       1.795   7.465  20.299  0.00  0.00    +0.000 C 
ENDBRANCH   1   3
BRANCH   1  10
ATOM     10  C   UNL     1       3.071   5.138  18.615  0.00  0.00    +0.000 A 
ATOM     11  C   UNL     1       1.995   4.690  17.830  0.00  0.00    +0.000 A 
ATOM     12  C   UNL     1       1.184   3.632  18.262  0.00  0.00    +0.000 A 
ATOM     13  C   UNL     1       1.455   2.979  19.462  0.00  0.00    +0.000 A 
ATOM     14  C   UNL     1       2.572   3.342  20.203  0.00  0.00    +0.000 A 
ATOM     15  C   UNL     1       3.386   4.386  19.766  0.00  0.00    +0.000 A 
ENDBRANCH   1  10
BRANCH   1  16
ATOM     16  N   UNL     1       4.859   6.221  17.143  0.00  0.00    +0.000 NA
ATOM     17  C   UNL     1       5.328   4.841  16.916  0.00  0.00    +0.000 C 
ATOM     18  C   UNL     1       6.567   4.411  17.729  0.00  0.00    +0.000 C 
ATOM     19  O   UNL     1       7.647   5.340  17.592  0.00  0.00    +0.000 OA
ATOM     20  C   UNL     1       7.236   6.661  17.964  0.00  0.00    +0.000 C 
ATOM     21  C   UNL     1       6.035   7.120  17.124  0.00  0.00    +0.000 C 
ENDBRANCH   1  16
TORSDOF 3
ENDMDL
MODEL 7
REMARK VINA RESULT:      -7.1      1.103      1.552
REMARK  Name = 
REMARK  3 active torsions:
REMARK  status: ('A' for Active; 'I' for Inactive)
REMARK    1  A    between atoms: C_2  and  C_3
REMARK    2  A    between atoms: C_3  and  C_4
REMARK    3  A    between atoms: C_3  and  N_10
REMARK                            x       y       z     vdW  Elec       q    Type
REMARK                         _______ _______ _______ _____ _____    ______ ____
ROOT
ATOM      1  C   UNL     1       3.611   4.870  19.060  0.00  0.00    +0.000 C 
ENDROOT
BRANCH   1   3
ATOM      2  O   UNL     1       5.942   4.967  19.763  0.00  0.00    +0.000 OA
ATOM      3  C   UNL     1       5.159   4.940  18.809  0.00  0.00    +0.000 C 
ATOM      4  N   UNL     1       5.667   4.989  17.513  0.00  0.00    +0.000 N 
ATOM      5  C   UNL     1       7.133   4.976  17.384  0.00  0.00    +0.000 C 
ATOM      6  C   UNL     1       7.596   5.783  16.172  0.00  0.00    +0.000 C 
ATOM      7  O   UNL     1       6.952   5.319  14.979  0.00  0.00    +0.000 OA
ATOM      8  C   UNL     1       5.532   5.482  15.083  0.00  0.00    +0.000 C 
ATOM      9  C   UNL     1       4.954   4.688  16.272  0.00  0.00    +0.000 C 
ENDBRANCH   1   3
BRANCH   1  10
ATOM     10  C   UNL     1       3.012   6.304  19.057  0.00  0.00    +0.000 A 
ATOM     11  C   UNL     1       2.279   6.824  20.138  0.00  0.00    +0.000 A 
ATOM     12  C   UNL     1       1.620   8.055  20.031  0.00  0.00    +0.000 A 
ATOM     13  C   UNL     1       1.711   8.807  18.862  0.00  0.00    +0.000 A 
ATOM     14  C   UNL     1       2.510   8.357  17.820  0.00  0.00    +0.000 A 
ATOM     15  C   UNL     1       3.177   7.138  17.931  0.00  0.00    +0.000 A 
ENDBRANCH   1  10
BRANCH   1  16
ATOM     16  N   UNL     1       2.932   3.931  18.110  0.00  0.00    +0.000 NA
ATOM     17  C   UNL     1       1.463   4.042  18.022  0.00  0.00    +0.000 C 
ATOM     18  C   UNL     1       0.664   3.200  19.038  0.00  0.00    +0.000 C 
ATOM     19  O   UNL     1       1.067   1.827  19.031  0.00  0.00    +0.000 OA
ATOM     20  C   UNL     1       2.473   1.705  19.274  0.00  0.00    +0.000 C 
ATOM     21  C   UNL     1       3.281   2.498  18.236  0.00  0.00    +0.000 C 
ENDBRANCH   1  16
TORSDOF 3
ENDMDL
MODEL 8
REMARK VINA RESULT:      -7.0      1.467      2.398
REMARK  Name = 
REMARK  3 active torsions:
REMARK  status: ('A' for Active; 'I' for Inactive)
REMARK    1  A    between atoms: C_2  and  C_3
REMARK    2  A    between atoms: C_3  and  C_4
REMARK    3  A    between atoms: C_3  and  N_10
REMARK                            x       y       z     vdW  Elec       q    Type
REMARK                         _______ _______ _______ _____ _____    ______ ____
ROOT
ATOM      1  C   UNL     1       3.393   5.522  19.492  0.00  0.00    +0.000 C 
ENDROOT
BRANCH   1   3
ATOM      2  O   UNL     1       2.741   4.797  17.260  0.00  0.00    +0.000 OA
ATOM      3  C   UNL     1       3.675   5.095  18.009  0.00  0.00    +0.000 C 
ATOM      4  N   UNL     1       4.979   5.029  17.524  0.00  0.00    +0.000 N 
ATOM      5  C   UNL     1       5.133   4.691  16.099  0.00  0.00    +0.000 C 
ATOM      6  C   UNL     1       6.413   3.897  15.847  0.00  0.00    +0.000 C 
ATOM      7  O   UNL     1       7.554   4.601  16.352  0.00  0.00    +0.000 OA
ATOM      8  C   UNL     1       7.439   4.785  17.769  0.00  0.00    +0.000 C 
ATOM      9  C   UNL     1       6.180   5.596  18.137  0.00  0.00    +0.000 C 
ENDBRANCH   1   3
BRANCH   1  10
ATOM     10  C   UNL     1       2.624   6.873  19.514  0.00  0.00    +0.000 A 
ATOM     11  C   UNL     1       1.940   7.339  20.650  0.00  0.00    +0.000 A 
ATOM     12  C   UNL     1       1.127   8.477  20.580  0.00  0.00    +0.000 A 
ATOM     13  C   UNL     1       1.014   9.193  19.390  0.00  0.00    +0.000 A 
ATOM     14  C   UNL     1       1.760   8.806  18.285  0.00  0.00    +0.000 A 
ATOM     15  C   UNL     1       2.579   7.680  18.358  0.00  0.00    +0.000 A 
ENDBRANCH   1  10
BRANCH   1  16
ATOM     16  N   UNL     1       2.719   4.432  20.271  0.00  0.00    +0.000 NA
ATOM     17  C   UNL     1       3.420   3.135  20.316  0.00  0.00    +0.000 C 
ATOM     18  C   UNL     1       3.108   2.163  19.160  0.00  0.00    +0.000 C 
ATOM     19  O   UNL     1       1.701   1.970  18.986  0.00  0.00    +0.000 OA
ATOM     20  C   UNL     1       1.033   3.221  18.784  0.00  0.00    +0.000 C 
ATOM     21  C   UNL     1       1.296   4.180  19.955  0.00  0.00    +0.000 C 
ENDBRANCH   1  16
TORSDOF 3
ENDMDL
MODEL 9
REMARK VINA RESULT:      -7.0      2.611      5.976
REMARK  Name = 
REMARK  3 active torsions:
REMARK  status: ('A' for Active; 'I' for Inactive)
REMARK    1  A    between atoms: C_2  and  C_3
REMARK    2  A    between atoms: C_3  and  C_4
REMARK    3  A    between atoms: C_3  and  N_10
REMARK                            x       y       z     vdW  Elec       q    Type
REMARK                         _______ _______ _______ _____ _____    ______ ____
ROOT
ATOM      1  C   UNL     1       3.678   6.427  18.407  0.00  0.00    +0.000 C 
ENDROOT
BRANCH   1   3
ATOM      2  O   UNL     1       2.725   8.155  16.978  0.00  0.00    +0.000 OA
ATOM      3  C   UNL     1       2.762   7.666  18.111  0.00  0.00    +0.000 C 
ATOM      4  N   UNL     1       1.993   8.239  19.121  0.00  0.00    +0.000 N 
ATOM      5  C   UNL     1       1.111   9.349  18.725  0.00  0.00    +0.000 C 
ATOM      6  C   UNL     1       0.953  10.369  19.851  0.00  0.00    +0.000 C 
ATOM      7  O   UNL     1       0.499   9.732  21.051  0.00  0.00    +0.000 OA
ATOM      8  C   UNL     1       1.454   8.757  21.490  0.00  0.00    +0.000 C 
ATOM      9  C   UNL     1       1.677   7.662  20.428  0.00  0.00    +0.000 C 
ENDBRANCH   1   3
BRANCH   1  10
ATOM     10  C   UNL     1       2.802   5.208  18.808  0.00  0.00    +0.000 A 
ATOM     11  C   UNL     1       2.953   4.534  20.033  0.00  0.00    +0.000 A 
ATOM     12  C   UNL     1       2.258   3.345  20.287  0.00  0.00    +0.000 A 
ATOM     13  C   UNL     1       1.372   2.829  19.344  0.00  0.00    +0.000 A 
ATOM     14  C   UNL     1       1.134   3.532  18.171  0.00  0.00    +0.000 A 
ATOM     15  C   UNL     1       1.816   4.722  17.923  0.00  0.00    +0.000 A 
ENDBRANCH   1  10
BRANCH   1  16
ATOM     16  N   UNL     1       4.621   6.145  17.276  0.00  0.00    +0.000 NA
ATOM     17  C   UNL     1       5.130   4.764  17.182  0.00  0.00    +0.000 C 
ATOM     18  C   UNL     1       6.406   4.461  17.995  0.00  0.00    +0.000 C 
ATOM     19  O   UNL     1       7.449   5.403  17.726  0.00  0.00    +0.000 OA
ATOM     20  C   UNL     1       7.005   6.743  17.968  0.00  0.00    +0.000 C 
ATOM     21  C   UNL     1       5.764   7.072  17.124  0.00  0.00    +0.000 C 
ENDBRANCH   1  16
TORSDOF 3
ENDMDL
