MODEL 1
REMARK VINA RESULT:      -9.3      0.000      0.000
REMARK  Name = 
REMARK  7 active torsions:
REMARK  status: ('A' for Active; 'I' for Inactive)
REMARK    1  A    between atoms: C_1  and  O_2
REMARK    2  A    between atoms: O_2  and  C_3
REMARK    3  A    between atoms: C_7  and  C_8
REMARK    4  A    between atoms: C_11  and  N_12
REMARK    5  A    between atoms: C_13  and  C_15
REMARK    6  A    between atoms: C_20  and  O_21
REMARK    7  A    between atoms: O_21  and  C_22
REMARK                            x       y       z     vdW  Elec       q    Type
REMARK                         _______ _______ _______ _____ _____    ______ ____
ROOT
ATOM      1  N   UNL     1       2.164   7.722  20.000  0.00  0.00    +0.000 N 
ATOM      2  C   UNL     1       2.089   6.347  20.136  0.00  0.00    +0.000 C 
ATOM      3  O   UNL     1       1.293   5.750  20.854  0.00  0.00    +0.000 OA
ATOM      4  H   UNL     1       2.858   8.108  19.379  0.00  0.00    +0.000 HD
ENDROOT
BRANCH   2   5
ATOM      5  C   UNL     1       3.026   5.510  19.319  0.00  0.00    +0.000 A 
ATOM      6  C   UNL     1       2.455   4.801  18.250  0.00  0.00    +0.000 A 
ATOM      7  C   UNL     1       3.254   4.264  17.245  0.00  0.00    +0.000 A 
ATOM      8  C   UNL     1       4.639   4.430  17.308  0.00  0.00    +0.000 A 
ATOM      9  C   UNL     1       5.427   4.312  16.163  0.00  0.00    +0.000 A 
ATOM     10  C   UNL     1       6.770   4.668  16.257  0.00  0.00    +0.000 A 
ATOM     11  C   UNL     1       7.402   4.702  17.496  0.00  0.00    +0.000 A 
ATOM     12  C   UNL     1       6.625   4.880  18.627  0.00  0.00    +0.000 A 
ATOM     13  C   UNL     1       5.234   4.891  18.509  0.00  0.00    +0.000 A 
ATOM     14  C   UNL     1       4.415   5.484  19.486  0.00  0.00    +0.000 A 
BRANCH  10  15
ATOM     15  O   UNL     1       7.366   5.195  15.138  0.00  0.00    +0.000 OA
ATOM     16  C   UNL     1       6.803   4.636  13.933  0.00  0.00    +0.000 C 
ENDBRANCH  10  15
ENDBRANCH   2   5
BRANCH   1  20
ATOM     17  C   UNL     1      -0.218  10.680  21.956  0.00  0.00    +0.000 A 
ATOM     18  C   UNL     1       0.393   9.655  22.688  0.00  0.00    +0.000 A 
ATOM     19  C   UNL     1       1.167   8.663  22.070  0.00  0.00    +0.000 A 
ATOM     20  C   UNL     1       1.376   8.673  20.691  0.00  0.00    +0.000 A 
ATOM     21  C   UNL     1       0.780   9.691  19.943  0.00  0.00    +0.000 A 
ATOM     22  C   UNL     1      -0.002  10.675  20.564  0.00  0.00    +0.000 A 
BRANCH  17  27
ATOM     23  C   UNL     1      -3.142  12.319  23.773  0.00  0.00    +0.000 A 
ATOM     24  C   UNL     1      -2.770  13.660  23.720  0.00  0.00    +0.000 A 
ATOM     25  C   UNL     1      -1.562  14.034  23.138  0.00  0.00    +0.000 A 
ATOM     26  C   UNL     1      -0.722  13.064  22.594  0.00  0.00    +0.000 A 
ATOM     27  C   UNL     1      -1.076  11.703  22.601  0.00  0.00    +0.000 A 
ATOM     28  C   UNL     1      -2.296  11.350  23.219  0.00  0.00    +0.000 A 
BRANCH  23  30
ATOM     29  C   UNL     1      -5.452  12.881  23.940  0.00  0.00    +0.000 C 
ATOM     30  O   UNL     1      -4.352  12.090  24.369  0.00  0.00    +0.000 OA
ENDBRANCH  23  30
ENDBRANCH  17  27
ENDBRANCH   1  20
TORSDOF 5
ENDMDL
MODEL 2
REMARK VINA RESULT:      -8.8      2.054     11.325
REMARK  Name = 
REMARK  7 active torsions:
REMARK  status: ('A' for Active; 'I' for Inactive)
REMARK    1  A    between atoms: C_1  and  O_2
REMARK    2  A    between atoms: O_2  and  C_3
REMARK    3  A    between atoms: C_7  and  C_8
REMARK    4  A    between atoms: C_11  and  N_12
REMARK    5  A    between atoms: C_13  and  C_15
REMARK    6  A    between atoms: C_20  and  O_21
REMARK    7  A    between atoms: O_21  and  C_22
REMARK                            x       y       z     vdW  Elec       q    Type
REMARK                         _______ _______ _______ _____ _____    ______ ____
ROOT
ATOM      1  N   UNL     1      -0.031   9.977  20.060  0.00  0.00    +0.000 N 
ATOM      2  C   UNL     1       0.165  10.968  21.006  0.00  0.00    +0.000 C 
ATOM      3  O   UNL     1       1.232  11.213  21.561  0.00  0.00    +0.000 OA
ATOM      4  H   UNL     1      -0.953   9.862  19.667  0.00  0.00    +0.000 HD
ENDROOT
BRANCH   2   5
ATOM      5  C   UNL     1      -1.001  11.838  21.363  0.00  0.00    +0.000 A 
ATOM      6  C   UNL     1      -1.580  12.564  20.311  0.00  0.00    +0.000 A 
ATOM      7  C   UNL     1      -2.841  13.137  20.451  0.00  0.00    +0.000 A 
ATOM      8  C   UNL     1      -3.530  12.989  21.655  0.00  0.00    +0.000 A 
ATOM      9  C   UNL     1      -4.916  13.147  21.710  0.00  0.00    +0.000 A 
ATOM     10  C   UNL     1      -5.564  12.807  22.895  0.00  0.00    +0.000 A 
ATOM     11  C   UNL     1      -4.855  12.752  24.091  0.00  0.00    +0.000 A 
ATOM     12  C   UNL     1      -3.489  12.534  24.038  0.00  0.00    +0.000 A 
ATOM     13  C   UNL     1      -2.847  12.507  22.799  0.00  0.00    +0.000 A 
ATOM     14  C   UNL     1      -1.601  11.879  22.627  0.00  0.00    +0.000 A 
BRANCH  10  15
ATOM     15  O   UNL     1      -6.843  12.316  22.800  0.00  0.00    +0.000 OA
ATOM     16  C   UNL     1      -7.232  12.132  21.423  0.00  0.00    +0.000 C 
ENDBRANCH  10  15
ENDBRANCH   2   5
BRANCH   1  20
ATOM     17  C   UNL     1       2.887   7.252  18.539  0.00  0.00    +0.000 A 
ATOM     18  C   UNL     1       2.341   7.076  19.816  0.00  0.00    +0.000 A 
ATOM     19  C   UNL     1       1.393   7.963  20.345  0.00  0.00    +0.000 A 
ATOM     20  C   UNL     1       0.940   9.054  19.603  0.00  0.00    +0.000 A 
ATOM     21  C   UNL     1       1.467   9.244  18.325  0.00  0.00    +0.000 A 
ATOM     22  C   UNL     1       2.422   8.360  17.803  0.00  0.00    +0.000 A 
BRANCH  17  27
ATOM     23  C   UNL     1       5.551   5.769  16.250  0.00  0.00    +0.000 A 
ATOM     24  C   UNL     1       5.807   4.559  16.891  0.00  0.00    +0.000 A 
ATOM     25  C   UNL     1       5.156   4.237  18.078  0.00  0.00    +0.000 A 
ATOM     26  C   UNL     1       4.232   5.125  18.626  0.00  0.00    +0.000 A 
ATOM     27  C   UNL     1       3.923   6.343  17.995  0.00  0.00    +0.000 A 
ATOM     28  C   UNL     1       4.617   6.654  16.804  0.00  0.00    +0.000 A 
BRANCH  23  30
ATOM     29  C   UNL     1       6.540   4.809  14.305  0.00  0.00    +0.000 C 
ATOM     30  O   UNL     1       6.255   5.958  15.093  0.00  0.00    +0.000 OA
ENDBRANCH  23  30
ENDBRANCH  17  27
ENDBRANCH   1  20
TORSDOF 5
ENDMDL
MODEL 3
REMARK VINA RESULT:      -8.8      1.186      1.557
REMARK  Name = 
REMARK  7 active torsions:
REMARK  status: ('A' for Active; 'I' for Inactive)
REMARK    1  A    between atoms: C_1  and  O_2
REMARK    2  A    between atoms: O_2  and  C_3
REMARK    3  A    between atoms: C_7  and  C_8
REMARK    4  A    between atoms: C_11  and  N_12
REMARK    5  A    between atoms: C_13  and  C_15
REMARK    6  A    between atoms: C_20  and  O_21
REMARK    7  A    between atoms: O_21  and  C_22
REMARK                            x       y       z     vdW  Elec       q    Type
REMARK                         _______ _______ _______ _____ _____    ______ ____
ROOT
ATOM      1  N   UNL     1       2.168   7.633  19.664  0.00  0.00    +0.000 N 
ATOM      2  C   UNL     1       2.179   6.279  19.951  0.00  0.00    +0.000 C 
ATOM      3  O   UNL     1       1.425   5.719  20.742  0.00  0.00    +0.000 OA
ATOM      4  H   UNL     1       2.834   7.988  18.995  0.00  0.00    +0.000 HD
ENDROOT
BRANCH   2   5
ATOM      5  C   UNL     1       3.159   5.414  19.219  0.00  0.00    +0.000 A 
ATOM      6  C   UNL     1       2.628   4.570  18.232  0.00  0.00    +0.000 A 
ATOM      7  C   UNL     1       3.456   3.977  17.283  0.00  0.00    +0.000 A 
ATOM      8  C   UNL     1       4.829   4.222  17.322  0.00  0.00    +0.000 A 
ATOM      9  C   UNL     1       5.622   4.030  16.190  0.00  0.00    +0.000 A 
ATOM     10  C   UNL     1       6.944   4.466  16.239  0.00  0.00    +0.000 A 
ATOM     11  C   UNL     1       7.573   4.661  17.465  0.00  0.00    +0.000 A 
ATOM     12  C   UNL     1       6.788   4.912  18.576  0.00  0.00    +0.000 A 
ATOM     13  C   UNL     1       5.398   4.836  18.465  0.00  0.00    +0.000 A 
ATOM     14  C   UNL     1       4.548   5.481  19.381  0.00  0.00    +0.000 A 
BRANCH  10  15
ATOM     15  O   UNL     1       7.510   4.907  15.069  0.00  0.00    +0.000 OA
ATOM     16  C   UNL     1       6.754   4.466  13.922  0.00  0.00    +0.000 C 
ENDBRANCH  10  15
ENDBRANCH   2   5
BRANCH   1  20
ATOM     17  C   UNL     1      -0.374  10.643  21.314  0.00  0.00    +0.000 A 
ATOM     18  C   UNL     1       0.278   9.724  22.144  0.00  0.00    +0.000 A 
ATOM     19  C   UNL     1       1.106   8.717  21.628  0.00  0.00    +0.000 A 
ATOM     20  C   UNL     1       1.328   8.606  20.256  0.00  0.00    +0.000 A 
ATOM     21  C   UNL     1       0.691   9.516  19.410  0.00  0.00    +0.000 A 
ATOM     22  C   UNL     1      -0.144  10.516  19.930  0.00  0.00    +0.000 A 
BRANCH  17  27
ATOM     23  C   UNL     1      -2.336  13.891  21.684  0.00  0.00    +0.000 A 
ATOM     24  C   UNL     1      -2.925  13.705  22.932  0.00  0.00    +0.000 A 
ATOM     25  C   UNL     1      -2.726  12.521  23.637  0.00  0.00    +0.000 A 
ATOM     26  C   UNL     1      -1.923  11.518  23.097  0.00  0.00    +0.000 A 
ATOM     27  C   UNL     1      -1.287  11.679  21.853  0.00  0.00    +0.000 A 
ATOM     28  C   UNL     1      -1.526  12.881  21.150  0.00  0.00    +0.000 A 
BRANCH  23  30
ATOM     29  C   UNL     1      -3.001  16.164  21.959  0.00  0.00    +0.000 C 
ATOM     30  O   UNL     1      -2.611  15.098  21.102  0.00  0.00    +0.000 OA
ENDBRANCH  23  30
ENDBRANCH  17  27
ENDBRANCH   1  20
TORSDOF 5
ENDMDL
MODEL 4
REMARK VINA RESULT:      -8.7      1.838     11.470
REMARK  Name = 
REMARK  7 active torsions:
REMARK  status: ('A' for Active; 'I' for Inactive)
REMARK    1  A    between atoms: C_1  and  O_2
REMARK    2  A    between atoms: O_2  and  C_3
REMARK    3  A    between atoms: C_7  and  C_8
REMARK    4  A    between atoms: C_11  and  N_12
REMARK    5  A    between atoms: C_13  and  C_15
REMARK    6  A    between atoms: C_20  and  O_21
REMARK    7  A    between atoms: O_21  and  C_22
REMARK                            x       y       z     vdW  Elec       q    Type
REMARK                         _______ _______ _______ _____ _____    ______ ____
ROOT
ATOM      1  N   UNL     1       0.037  10.309  20.161  0.00  0.00    +0.000 N 
ATOM      2  C   UNL     1       0.020  10.654  21.501  0.00  0.00    +0.000 C 
ATOM      3  O   UNL     1       0.785  10.214  22.354  0.00  0.00    +0.000 OA
ATOM      4  H   UNL     1      -0.640  10.733  19.546  0.00  0.00    +0.000 HD
ENDROOT
BRANCH   2   5
ATOM      5  C   UNL     1      -0.985  11.671  21.951  0.00  0.00    +0.000 A 
ATOM      6  C   UNL     1      -1.160  12.784  21.114  0.00  0.00    +0.000 A 
ATOM      7  C   UNL     1      -2.272  13.610  21.253  0.00  0.00    +0.000 A 
ATOM      8  C   UNL     1      -3.216  13.328  22.241  0.00  0.00    +0.000 A 
ATOM      9  C   UNL     1      -4.516  13.826  22.152  0.00  0.00    +0.000 A 
ATOM     10  C   UNL     1      -5.457  13.360  23.067  0.00  0.00    +0.000 A 
ATOM     11  C   UNL     1      -5.046  12.794  24.269  0.00  0.00    +0.000 A 
ATOM     12  C   UNL     1      -3.777  12.245  24.339  0.00  0.00    +0.000 A 
ATOM     13  C   UNL     1      -2.908  12.388  23.256  0.00  0.00    +0.000 A 
ATOM     14  C   UNL     1      -1.815  11.523  23.067  0.00  0.00    +0.000 A 
BRANCH  10  15
ATOM     15  O   UNL     1      -6.762  13.272  22.646  0.00  0.00    +0.000 OA
ATOM     16  C   UNL     1      -7.513  12.350  23.462  0.00  0.00    +0.000 C 
ENDBRANCH  10  15
ENDBRANCH   2   5
BRANCH   1  20
ATOM     17  C   UNL     1       2.664   7.399  18.464  0.00  0.00    +0.000 A 
ATOM     18  C   UNL     1       2.230   8.497  17.711  0.00  0.00    +0.000 A 
ATOM     19  C   UNL     1       1.357   9.458  18.238  0.00  0.00    +0.000 A 
ATOM     20  C   UNL     1       0.899   9.366  19.552  0.00  0.00    +0.000 A 
ATOM     21  C   UNL     1       1.324   8.282  20.322  0.00  0.00    +0.000 A 
ATOM     22  C   UNL     1       2.190   7.317  19.788  0.00  0.00    +0.000 A 
BRANCH  17  27
ATOM     23  C   UNL     1       5.405   5.707  16.425  0.00  0.00    +0.000 A 
ATOM     24  C   UNL     1       5.160   4.366  16.712  0.00  0.00    +0.000 A 
ATOM     25  C   UNL     1       4.142   4.007  17.592  0.00  0.00    +0.000 A 
ATOM     26  C   UNL     1       3.354   4.994  18.181  0.00  0.00    +0.000 A 
ATOM     27  C   UNL     1       3.550   6.356  17.895  0.00  0.00    +0.000 A 
ATOM     28  C   UNL     1       4.605   6.692  17.017  0.00  0.00    +0.000 A 
BRANCH  23  30
ATOM     29  C   UNL     1       6.837   4.823  14.737  0.00  0.00    +0.000 C 
ATOM     30  O   UNL     1       6.431   5.920  15.545  0.00  0.00    +0.000 OA
ENDBRANCH  23  30
ENDBRANCH  17  27
ENDBRANCH   1  20
TORSDOF 5
ENDMDL
MODEL 5
REMARK VINA RESULT:      -8.7      1.118      1.350
REMARK  Name = 
REMARK  7 active torsions:
REMARK  status: ('A' for Active; 'I' for Inactive)
REMARK    1  A    between atoms: C_1  and  O_2
REMARK    2  A    between atoms: O_2  and  C_3
REMARK    3  A    between atoms: C_7  and  C_8
REMARK    4  A    between atoms: C_11  and  N_12
REMARK    5  A    between atoms: C_13  and  C_15
REMARK    6  A    between atoms: C_20  and  O_21
REMARK    7  A    between atoms: O_21  and  C_22
REMARK                            x       y       z     vdW  Elec       q    Type
REMARK                         _______ _______ _______ _____ _____    ______ ____
ROOT
ATOM      1  N   UNL     1       2.139   7.811  19.541  0.00  0.00    +0.000 N 
ATOM      2  C   UNL     1       2.170   6.480  19.923  0.00  0.00    +0.000 C 
ATOM      3  O   UNL     1       1.453   5.974  20.781  0.00  0.00    +0.000 OA
ATOM      4  H   UNL     1       2.774   8.120  18.822  0.00  0.00    +0.000 HD
ENDROOT
BRANCH   2   5
ATOM      5  C   UNL     1       3.125   5.569  19.213  0.00  0.00    +0.000 A 
ATOM      6  C   UNL     1       2.570   4.720  18.243  0.00  0.00    +0.000 A 
ATOM      7  C   UNL     1       3.381   4.080  17.310  0.00  0.00    +0.000 A 
ATOM      8  C   UNL     1       4.761   4.285  17.348  0.00  0.00    +0.000 A 
ATOM      9  C   UNL     1       5.551   4.042  16.223  0.00  0.00    +0.000 A 
ATOM     10  C   UNL     1       6.885   4.438  16.267  0.00  0.00    +0.000 A 
ATOM     11  C   UNL     1       7.517   4.642  17.489  0.00  0.00    +0.000 A 
ATOM     12  C   UNL     1       6.737   4.942  18.593  0.00  0.00    +0.000 A 
ATOM     13  C   UNL     1       5.347   4.906  18.479  0.00  0.00    +0.000 A 
ATOM     14  C   UNL     1       4.514   5.597  19.377  0.00  0.00    +0.000 A 
BRANCH  10  15
ATOM     15  O   UNL     1       7.468   4.836  15.088  0.00  0.00    +0.000 OA
ATOM     16  C   UNL     1       6.676   4.432  13.951  0.00  0.00    +0.000 C 
ENDBRANCH  10  15
ENDBRANCH   2   5
BRANCH   1  20
ATOM     17  C   UNL     1      -0.344  10.927  21.083  0.00  0.00    +0.000 A 
ATOM     18  C   UNL     1       0.282  10.018  21.945  0.00  0.00    +0.000 A 
ATOM     19  C   UNL     1       1.090   8.978  21.465  0.00  0.00    +0.000 A 
ATOM     20  C   UNL     1       1.318   8.820  20.098  0.00  0.00    +0.000 A 
ATOM     21  C   UNL     1       0.707   9.718  19.221  0.00  0.00    +0.000 A 
ATOM     22  C   UNL     1      -0.108  10.752  19.705  0.00  0.00    +0.000 A 
BRANCH  17  27
ATOM     23  C   UNL     1      -1.806  13.675  23.283  0.00  0.00    +0.000 A 
ATOM     24  C   UNL     1      -2.992  13.953  22.608  0.00  0.00    +0.000 A 
ATOM     25  C   UNL     1      -3.303  13.289  21.425  0.00  0.00    +0.000 A 
ATOM     26  C   UNL     1      -2.429  12.329  20.916  0.00  0.00    +0.000 A 
ATOM     27  C   UNL     1      -1.236  11.999  21.584  0.00  0.00    +0.000 A 
ATOM     28  C   UNL     1      -0.935  12.706  22.769  0.00  0.00    +0.000 A 
BRANCH  23  30
ATOM     29  C   UNL     1      -2.789  14.875  25.093  0.00  0.00    +0.000 C 
ATOM     30  O   UNL     1      -1.625  14.397  24.431  0.00  0.00    +0.000 OA
ENDBRANCH  23  30
ENDBRANCH  17  27
ENDBRANCH   1  20
TORSDOF 5
ENDMDL
MODEL 6
REMARK VINA RESULT:      -8.6      1.093      2.015
REMARK  Name = 
REMARK  7 active torsions:
REMARK  status: ('A' for Active; 'I' for Inactive)
REMARK    1  A    between atoms: C_1  and  O_2
REMARK    2  A    between atoms: O_2  and  C_3
REMARK    3  A    between atoms: C_7  and  C_8
REMARK    4  A    between atoms: C_11  and  N_12
REMARK    5  A    between atoms: C_13  and  C_15
REMARK    6  A    between atoms: C_20  and  O_21
REMARK    7  A    between atoms: O_21  and  C_22
REMARK                            x       y       z     vdW  Elec       q    Type
REMARK                         _______ _______ _______ _____ _____    ______ ____
ROOT
ATOM      1  N   UNL     1       2.180   7.798  19.663  0.00  0.00    +0.000 N 
ATOM      2  C   UNL     1       2.153   6.452  19.983  0.00  0.00    +0.000 C 
ATOM      3  O   UNL     1       1.407   5.936  20.809  0.00  0.00    +0.000 OA
ATOM      4  H   UNL     1       2.836   8.115  18.965  0.00  0.00    +0.000 HD
ENDROOT
BRANCH   2   5
ATOM      5  C   UNL     1       3.080   5.537  19.241  0.00  0.00    +0.000 A 
ATOM      6  C   UNL     1       2.497   4.731  18.251  0.00  0.00    +0.000 A 
ATOM      7  C   UNL     1       3.286   4.097  17.295  0.00  0.00    +0.000 A 
ATOM      8  C   UNL     1       4.671   4.263  17.330  0.00  0.00    +0.000 A 
ATOM      9  C   UNL     1       5.448   4.033  16.194  0.00  0.00    +0.000 A 
ATOM     10  C   UNL     1       6.793   4.392  16.241  0.00  0.00    +0.000 A 
ATOM     11  C   UNL     1       7.437   4.542  17.464  0.00  0.00    +0.000 A 
ATOM     12  C   UNL     1       6.671   4.831  18.581  0.00  0.00    +0.000 A 
ATOM     13  C   UNL     1       5.279   4.836  18.474  0.00  0.00    +0.000 A 
ATOM     14  C   UNL     1       4.471   5.523  19.398  0.00  0.00    +0.000 A 
BRANCH  10  15
ATOM     15  O   UNL     1       7.380   4.807  15.070  0.00  0.00    +0.000 OA
ATOM     16  C   UNL     1       6.628   4.364  13.922  0.00  0.00    +0.000 C 
ENDBRANCH  10  15
ENDBRANCH   2   5
BRANCH   1  20
ATOM     17  C   UNL     1      -0.186  10.787  21.593  0.00  0.00    +0.000 A 
ATOM     18  C   UNL     1      -0.075  10.752  20.198  0.00  0.00    +0.000 A 
ATOM     19  C   UNL     1       0.706   9.792  19.540  0.00  0.00    +0.000 A 
ATOM     20  C   UNL     1       1.393   8.813  20.257  0.00  0.00    +0.000 A 
ATOM     21  C   UNL     1       1.292   8.826  21.650  0.00  0.00    +0.000 A 
ATOM     22  C   UNL     1       0.517   9.794  22.305  0.00  0.00    +0.000 A 
BRANCH  17  27
ATOM     23  C   UNL     1      -1.268  14.160  23.000  0.00  0.00    +0.000 A 
ATOM     24  C   UNL     1      -2.398  13.794  23.728  0.00  0.00    +0.000 A 
ATOM     25  C   UNL     1      -2.836  12.472  23.734  0.00  0.00    +0.000 A 
ATOM     26  C   UNL     1      -2.135  11.505  23.017  0.00  0.00    +0.000 A 
ATOM     27  C   UNL     1      -0.973  11.829  22.294  0.00  0.00    +0.000 A 
ATOM     28  C   UNL     1      -0.565  13.181  22.287  0.00  0.00    +0.000 A 
BRANCH  23  30
ATOM     29  C   UNL     1       0.353  15.873  22.656  0.00  0.00    +0.000 C 
ATOM     30  O   UNL     1      -0.947  15.487  23.082  0.00  0.00    +0.000 OA
ENDBRANCH  23  30
ENDBRANCH  17  27
ENDBRANCH   1  20
TORSDOF 5
ENDMDL
MODEL 7
REMARK VINA RESULT:      -8.6      2.059     11.418
REMARK  Name = 
REMARK  7 active torsions:
REMARK  status: ('A' for Active; 'I' for Inactive)
REMARK    1  A    between atoms: C_1  and  O_2
REMARK    2  A    between atoms: O_2  and  C_3
REMARK    3  A    between atoms: C_7  and  C_8
REMARK    4  A    between atoms: C_11  and  N_12
REMARK    5  A    between atoms: C_13  and  C_15
REMARK    6  A    between atoms: C_20  and  O_21
REMARK    7  A    between atoms: O_21  and  C_22
REMARK                            x       y       z     vdW  Elec       q    Type
REMARK                         _______ _______ _______ _____ _____    ______ ____
ROOT
ATOM      1  N   UNL     1      -0.204  10.263  20.482  0.00  0.00    +0.000 N 
ATOM      2  C   UNL     1       0.142  11.394  21.202  0.00  0.00    +0.000 C 
ATOM      3  O   UNL     1       1.290  11.767  21.424  0.00  0.00    +0.000 OA
ATOM      4  H   UNL     1      -1.182  10.051  20.360  0.00  0.00    +0.000 HD
ENDROOT
BRANCH   2   5
ATOM      5  C   UNL     1      -0.965  12.258  21.725  0.00  0.00    +0.000 A 
ATOM      6  C   UNL     1      -1.319  13.361  20.934  0.00  0.00    +0.000 A 
ATOM      7  C   UNL     1      -2.522  14.031  21.145  0.00  0.00    +0.000 A 
ATOM      8  C   UNL     1      -3.377  13.600  22.160  0.00  0.00    +0.000 A 
ATOM      9  C   UNL     1      -4.733  13.927  22.139  0.00  0.00    +0.000 A 
ATOM     10  C   UNL     1      -5.565  13.317  23.075  0.00  0.00    +0.000 A 
ATOM     11  C   UNL     1      -5.032  12.775  24.240  0.00  0.00    +0.000 A 
ATOM     12  C   UNL     1      -3.701  12.394  24.241  0.00  0.00    +0.000 A 
ATOM     13  C   UNL     1      -2.906  12.680  23.129  0.00  0.00    +0.000 A 
ATOM     14  C   UNL     1      -1.720  11.971  22.868  0.00  0.00    +0.000 A 
BRANCH  10  15
ATOM     15  O   UNL     1      -6.864  13.070  22.703  0.00  0.00    +0.000 OA
ATOM     16  C   UNL     1      -7.760  13.184  23.828  0.00  0.00    +0.000 C 
ENDBRANCH  10  15
ENDBRANCH   2   5
BRANCH   1  20
ATOM     17  C   UNL     1       2.474   7.486  18.647  0.00  0.00    +0.000 A 
ATOM     18  C   UNL     1       2.099   7.339  19.988  0.00  0.00    +0.000 A 
ATOM     19  C   UNL     1       1.234   8.244  20.619  0.00  0.00    +0.000 A 
ATOM     20  C   UNL     1       0.693   9.324  19.921  0.00  0.00    +0.000 A 
ATOM     21  C   UNL     1       1.049   9.485  18.581  0.00  0.00    +0.000 A 
ATOM     22  C   UNL     1       1.923   8.584  17.956  0.00  0.00    +0.000 A 
BRANCH  17  27
ATOM     23  C   UNL     1       5.572   6.144  16.877  0.00  0.00    +0.000 A 
ATOM     24  C   UNL     1       5.188   4.828  16.630  0.00  0.00    +0.000 A 
ATOM     25  C   UNL     1       3.952   4.360  17.068  0.00  0.00    +0.000 A 
ATOM     26  C   UNL     1       3.086   5.215  17.747  0.00  0.00    +0.000 A 
ATOM     27  C   UNL     1       3.425   6.558  17.990  0.00  0.00    +0.000 A 
ATOM     28  C   UNL     1       4.695   6.999  17.556  0.00  0.00    +0.000 A 
BRANCH  23  30
ATOM     29  C   UNL     1       7.663   7.230  17.240  0.00  0.00    +0.000 C 
ATOM     30  O   UNL     1       6.808   6.474  16.392  0.00  0.00    +0.000 OA
ENDBRANCH  23  30
ENDBRANCH  17  27
ENDBRANCH   1  20
TORSDOF 5
ENDMDL
MODEL 8
REMARK VINA RESULT:      -8.5      2.227     11.160
REMARK  Name = 
REMARK  7 active torsions:
REMARK  status: ('A' for Active; 'I' for Inactive)
REMARK    1  A    between atoms: C_1  and  O_2
REMARK    2  A    between atoms: O_2  and  C_3
REMARK    3  A    between atoms: C_7  and  C_8
REMARK    4  A    between atoms: C_11  and  N_12
REMARK    5  A    between atoms: C_13  and  C_15
REMARK    6  A    between atoms: C_20  and  O_21
REMARK    7  A    between atoms: O_21  and  C_22
REMARK                            x       y       z     vdW  Elec       q    Type
REMARK                         _______ _______ _______ _____ _____    ______ ____
ROOT
ATOM      1  N   UNL     1      -0.058  10.258  20.331  0.00  0.00    +0.000 N 
ATOM      2  C   UNL     1       0.310  11.314  21.148  0.00  0.00    +0.000 C 
ATOM      3  O   UNL     1       1.463  11.594  21.464  0.00  0.00    +0.000 OA
ATOM      4  H   UNL     1      -1.037  10.120  20.135  0.00  0.00    +0.000 HD
ENDROOT
BRANCH   2   5
ATOM      5  C   UNL     1      -0.773  12.212  21.664  0.00  0.00    +0.000 A 
ATOM      6  C   UNL     1      -1.015  13.381  20.926  0.00  0.00    +0.000 A 
ATOM      7  C   UNL     1      -2.186  14.110  21.113  0.00  0.00    +0.000 A 
ATOM      8  C   UNL     1      -3.123  13.673  22.051  0.00  0.00    +0.000 A 
ATOM      9  C   UNL     1      -4.454  14.085  21.977  0.00  0.00    +0.000 A 
ATOM     10  C   UNL     1      -5.373  13.472  22.825  0.00  0.00    +0.000 A 
ATOM     11  C   UNL     1      -4.942  12.829  23.981  0.00  0.00    +0.000 A 
ATOM     12  C   UNL     1      -3.638  12.368  24.030  0.00  0.00    +0.000 A 
ATOM     13  C   UNL     1      -2.764  12.669  22.984  0.00  0.00    +0.000 A 
ATOM     14  C   UNL     1      -1.608  11.904  22.744  0.00  0.00    +0.000 A 
BRANCH  10  15
ATOM     15  O   UNL     1      -6.661  13.330  22.368  0.00  0.00    +0.000 OA
ATOM     16  C   UNL     1      -6.763  12.248  21.420  0.00  0.00    +0.000 C 
ENDBRANCH  10  15
ENDBRANCH   2   5
BRANCH   1  20
ATOM     17  C   UNL     1       2.541   7.427  18.465  0.00  0.00    +0.000 A 
ATOM     18  C   UNL     1       2.195   7.299  19.816  0.00  0.00    +0.000 A 
ATOM     19  C   UNL     1       1.357   8.222  20.456  0.00  0.00    +0.000 A 
ATOM     20  C   UNL     1       0.814   9.302  19.759  0.00  0.00    +0.000 A 
ATOM     21  C   UNL     1       1.141   9.444  18.410  0.00  0.00    +0.000 A 
ATOM     22  C   UNL     1       1.989   8.525  17.775  0.00  0.00    +0.000 A 
BRANCH  17  27
ATOM     23  C   UNL     1       4.159   4.182  17.290  0.00  0.00    +0.000 A 
ATOM     24  C   UNL     1       5.286   4.670  16.633  0.00  0.00    +0.000 A 
ATOM     25  C   UNL     1       5.505   6.041  16.530  0.00  0.00    +0.000 A 
ATOM     26  C   UNL     1       4.598   6.933  17.099  0.00  0.00    +0.000 A 
ATOM     27  C   UNL     1       3.464   6.480  17.797  0.00  0.00    +0.000 A 
ATOM     28  C   UNL     1       3.255   5.084  17.864  0.00  0.00    +0.000 A 
BRANCH  23  30
ATOM     29  C   UNL     1       3.189   2.241  18.278  0.00  0.00    +0.000 C 
ATOM     30  O   UNL     1       4.067   2.817  17.320  0.00  0.00    +0.000 OA
ENDBRANCH  23  30
ENDBRANCH  17  27
ENDBRANCH   1  20
TORSDOF 5
ENDMDL
MODEL 9
REMARK VINA RESULT:      -8.5      2.209     11.261
REMARK  Name = 
REMARK  7 active torsions:
REMARK  status: ('A' for Active; 'I' for Inactive)
REMARK    1  A    between atoms: C_1  and  O_2
REMARK    2  A    between atoms: O_2  and  C_3
REMARK    3  A    between atoms: C_7  and  C_8
REMARK    4  A    between atoms: C_11  and  N_12
REMARK    5  A    between atoms: C_13  and  C_15
REMARK    6  A    between atoms: C_20  and  O_21
REMARK    7  A    between atoms: O_21  and  C_22
REMARK                            x       y       z     vdW  Elec       q    Type
REMARK                         _______ _______ _______ _____ _____    ______ ____
ROOT
ATOM      1  N   UNL     1      -0.015  10.403  20.739  0.00  0.00    +0.000 N 
ATOM      2  C   UNL     1       0.430  11.589  21.299  0.00  0.00    +0.000 C 
ATOM      3  O   UNL     1       1.566  12.040  21.187  0.00  0.00    +0.000 OA
ATOM      4  H   UNL     1      -0.972  10.127  20.894  0.00  0.00    +0.000 HD
ENDROOT
BRANCH   2   5
ATOM      5  C   UNL     1      -0.554  12.411  22.074  0.00  0.00    +0.000 A 
ATOM      6  C   UNL     1      -0.429  13.804  21.957  0.00  0.00    +0.000 A 
ATOM      7  C   UNL     1      -1.462  14.647  22.356  0.00  0.00    +0.000 A 
ATOM      8  C   UNL     1      -2.631  14.097  22.882  0.00  0.00    +0.000 A 
ATOM      9  C   UNL     1      -3.824  14.821  22.887  0.00  0.00    +0.000 A 
ATOM     10  C   UNL     1      -4.990  14.153  23.254  0.00  0.00    +0.000 A 
ATOM     11  C   UNL     1      -4.922  12.983  24.003  0.00  0.00    +0.000 A 
ATOM     12  C   UNL     1      -3.760  12.233  23.951  0.00  0.00    +0.000 A 
ATOM     13  C   UNL     1      -2.654  12.731  23.259  0.00  0.00    +0.000 A 
ATOM     14  C   UNL     1      -1.631  11.884  22.796  0.00  0.00    +0.000 A 
BRANCH  10  15
ATOM     15  O   UNL     1      -6.164  14.556  22.666  0.00  0.00    +0.000 OA
ATOM     16  C   UNL     1      -6.595  13.616  21.660  0.00  0.00    +0.000 C 
ENDBRANCH  10  15
ENDBRANCH   2   5
BRANCH   1  20
ATOM     17  C   UNL     1       2.374   7.580  18.602  0.00  0.00    +0.000 A 
ATOM     18  C   UNL     1       1.867   8.717  17.962  0.00  0.00    +0.000 A 
ATOM     19  C   UNL     1       1.068   9.652  18.636  0.00  0.00    +0.000 A 
ATOM     20  C   UNL     1       0.763   9.491  19.988  0.00  0.00    +0.000 A 
ATOM     21  C   UNL     1       1.264   8.367  20.646  0.00  0.00    +0.000 A 
ATOM     22  C   UNL     1       2.054   7.429  19.966  0.00  0.00    +0.000 A 
BRANCH  17  27
ATOM     23  C   UNL     1       3.699   4.221  17.380  0.00  0.00    +0.000 A 
ATOM     24  C   UNL     1       4.786   4.628  16.610  0.00  0.00    +0.000 A 
ATOM     25  C   UNL     1       5.069   5.981  16.449  0.00  0.00    +0.000 A 
ATOM     26  C   UNL     1       4.268   6.937  17.071  0.00  0.00    +0.000 A 
ATOM     27  C   UNL     1       3.180   6.566  17.881  0.00  0.00    +0.000 A 
ATOM     28  C   UNL     1       2.902   5.187  18.006  0.00  0.00    +0.000 A 
BRANCH  23  30
ATOM     29  C   UNL     1       2.794   2.356  18.558  0.00  0.00    +0.000 C 
ATOM     30  O   UNL     1       3.536   2.864  17.456  0.00  0.00    +0.000 OA
ENDBRANCH  23  30
ENDBRANCH  17  27
ENDBRANCH   1  20
TORSDOF 5
ENDMDL
