MODEL 1
REMARK VINA RESULT:      -6.6      0.000      0.000
REMARK  Name = 
REMARK  10 active torsions:
REMARK  status: ('A' for Active; 'I' for Inactive)
REMARK    1  A    between atoms: C_1  and  O_2
REMARK    2  A    between atoms: O_2  and  C_3
REMARK    3  A    between atoms: C_8  and  C_9
REMARK    4  A    between atoms: C_9  and  O_10
REMARK    5  A    between atoms: C_9  and  C_11
REMARK    6  A    between atoms: C_9  and  C_30
REMARK    7  A    between atoms: N_13  and  N_14
REMARK    8  A    between atoms: N_14  and  C_23
REMARK    9  A    between atoms: C_15  and  C_17
REMARK   10  A    between atoms: C_28  and  C_29
REMARK                            x       y       z     vdW  Elec       q    Type
REMARK                         _______ _______ _______ _____ _____    ______ ____
ROOT
ATOM      1  C   UNL     1      -3.887  13.329  20.625  0.00  0.00    +0.000 C 
ATOM      2  O   UNL     1      -3.401  14.462  20.647  0.00  0.00    +0.000 OA
ATOM      3  N   UNL     1      -3.465  12.296  21.472  0.00  0.00    +0.000 N 
ATOM      4  H   UNL     1      -3.954  11.405  21.432  0.00  0.00    +0.000 HD
ENDROOT
BRANCH   3   5
ATOM      5  N   UNL     1      -2.409  12.438  22.419  0.00  0.00    +0.000 N 
ATOM      6  C   UNL     1      -1.211  11.697  22.292  0.00  0.00    +0.000 C 
ATOM      7  O   UNL     1      -0.512  11.355  23.250  0.00  0.00    +0.000 OA
BRANCH   5   8
ATOM      8  C   UNL     1      -2.482  13.471  23.430  0.00  0.00    +0.000 A 
ATOM      9  C   UNL     1      -1.546  14.525  23.354  0.00  0.00    +0.000 A 
ATOM     10  C   UNL     1      -1.529  15.594  24.254  0.00  0.00    +0.000 A 
ATOM     11  C   UNL     1      -2.468  15.637  25.265  0.00  0.00    +0.000 A 
ATOM     12  C   UNL     1      -3.419  14.619  25.365  0.00  0.00    +0.000 A 
ATOM     13  C   UNL     1      -3.441  13.525  24.464  0.00  0.00    +0.000 A 
ATOM     14  C   UNL     1      -4.462  12.454  24.725  0.00  0.00    +0.000 C 
ENDBRANCH   5   8
BRANCH   6  15
ATOM     15  C   UNL     1      -0.671  11.401  20.935  0.00  0.00    +0.000 A 
ATOM     16  C   UNL     1      -0.256  12.420  20.075  0.00  0.00    +0.000 A 
ATOM     17  C   UNL     1       0.269  12.100  18.822  0.00  0.00    +0.000 A 
ATOM     18  C   UNL     1       0.408  10.764  18.448  0.00  0.00    +0.000 A 
ATOM     19  C   UNL     1       0.029   9.743  19.321  0.00  0.00    +0.000 A 
ATOM     20  C   UNL     1      -0.506  10.062  20.565  0.00  0.00    +0.000 A 
ENDBRANCH   6  15
ENDBRANCH   3   5
BRANCH   1  21
ATOM     21  C   UNL     1      -4.972  12.871  19.569  0.00  0.00    +0.000 C 
BRANCH  21  27
ATOM     22  C   UNL     1      -6.682  12.472  21.518  0.00  0.00    +0.000 A 
ATOM     23  C   UNL     1      -7.605  11.619  22.143  0.00  0.00    +0.000 A 
ATOM     24  C   UNL     1      -7.906  10.367  21.610  0.00  0.00    +0.000 A 
ATOM     25  C   UNL     1      -7.288   9.946  20.442  0.00  0.00    +0.000 A 
ATOM     26  C   UNL     1      -6.375  10.781  19.815  0.00  0.00    +0.000 A 
ATOM     27  C   UNL     1      -6.033  12.052  20.338  0.00  0.00    +0.000 A 
BRANCH  22  29
ATOM     28  C   UNL     1      -7.345  14.721  21.925  0.00  0.00    +0.000 C 
ATOM     29  O   UNL     1      -6.346  13.704  22.021  0.00  0.00    +0.000 OA
ENDBRANCH  22  29
ENDBRANCH  21  27
BRANCH  21  30
ATOM     30  C   UNL     1      -4.373  12.066  18.400  0.00  0.00    +0.000 A 
ATOM     31  C   UNL     1      -3.179  11.366  18.278  0.00  0.00    +0.000 A 
ATOM     32  C   UNL     1      -2.991  10.781  16.988  0.00  0.00    +0.000 A 
ATOM     33  C   UNL     1      -4.050  11.023  16.150  0.00  0.00    +0.000 A 
ATOM     34  S   UNL     1      -5.268  11.946  16.914  0.00  0.00    +0.000 S 
ENDBRANCH  21  30
BRANCH  21  35
ATOM     35  O   UNL     1      -5.463  14.077  18.954  0.00  0.00    +0.000 OA
ATOM     36  H   UNL     1      -5.982  13.783  18.183  0.00  0.00    +0.000 HD
ENDBRANCH  21  35
ENDBRANCH   1  21
TORSDOF 8
ENDMDL
MODEL 2
REMARK VINA RESULT:      -6.5      2.144      5.568
REMARK  Name = 
REMARK  10 active torsions:
REMARK  status: ('A' for Active; 'I' for Inactive)
REMARK    1  A    between atoms: C_1  and  O_2
REMARK    2  A    between atoms: O_2  and  C_3
REMARK    3  A    between atoms: C_8  and  C_9
REMARK    4  A    between atoms: C_9  and  O_10
REMARK    5  A    between atoms: C_9  and  C_11
REMARK    6  A    between atoms: C_9  and  C_30
REMARK    7  A    between atoms: N_13  and  N_14
REMARK    8  A    between atoms: N_14  and  C_23
REMARK    9  A    between atoms: C_15  and  C_17
REMARK   10  A    between atoms: C_28  and  C_29
REMARK                            x       y       z     vdW  Elec       q    Type
REMARK                         _______ _______ _______ _____ _____    ______ ____
ROOT
ATOM      1  C   UNL     1      -3.962  13.113  20.678  0.00  0.00    +0.000 C 
ATOM      2  O   UNL     1      -3.380  13.474  19.654  0.00  0.00    +0.000 OA
ATOM      3  N   UNL     1      -3.293  12.736  21.850  0.00  0.00    +0.000 N 
ATOM      4  H   UNL     1      -3.846  12.505  22.672  0.00  0.00    +0.000 HD
ENDROOT
BRANCH   3   5
ATOM      5  N   UNL     1      -1.873  12.696  21.967  0.00  0.00    +0.000 N 
ATOM      6  C   UNL     1      -1.135  13.856  22.303  0.00  0.00    +0.000 C 
ATOM      7  O   UNL     1       0.025  14.059  21.934  0.00  0.00    +0.000 OA
BRANCH   5   8
ATOM      8  C   UNL     1      -1.182  11.426  21.908  0.00  0.00    +0.000 A 
ATOM      9  C   UNL     1      -1.013  10.719  23.120  0.00  0.00    +0.000 A 
ATOM     10  C   UNL     1      -0.387   9.472  23.192  0.00  0.00    +0.000 A 
ATOM     11  C   UNL     1       0.089   8.890  22.034  0.00  0.00    +0.000 A 
ATOM     12  C   UNL     1      -0.071   9.552  20.815  0.00  0.00    +0.000 A 
ATOM     13  C   UNL     1      -0.697  10.822  20.730  0.00  0.00    +0.000 A 
ATOM     14  C   UNL     1      -0.736  11.466  19.372  0.00  0.00    +0.000 C 
ENDBRANCH   5   8
BRANCH   6  15
ATOM     15  C   UNL     1      -1.717  14.847  23.250  0.00  0.00    +0.000 A 
ATOM     16  C   UNL     1      -1.667  14.654  24.633  0.00  0.00    +0.000 A 
ATOM     17  C   UNL     1      -2.200  15.621  25.488  0.00  0.00    +0.000 A 
ATOM     18  C   UNL     1      -2.749  16.788  24.960  0.00  0.00    +0.000 A 
ATOM     19  C   UNL     1      -2.766  17.000  23.581  0.00  0.00    +0.000 A 
ATOM     20  C   UNL     1      -2.247  16.031  22.727  0.00  0.00    +0.000 A 
ENDBRANCH   6  15
ENDBRANCH   3   5
BRANCH   1  21
ATOM     21  C   UNL     1      -5.531  12.930  20.765  0.00  0.00    +0.000 C 
BRANCH  21  27
ATOM     22  C   UNL     1      -6.294  12.712  18.265  0.00  0.00    +0.000 A 
ATOM     23  C   UNL     1      -6.812  13.328  17.114  0.00  0.00    +0.000 A 
ATOM     24  C   UNL     1      -7.176  14.673  17.118  0.00  0.00    +0.000 A 
ATOM     25  C   UNL     1      -7.027  15.426  18.272  0.00  0.00    +0.000 A 
ATOM     26  C   UNL     1      -6.517  14.829  19.416  0.00  0.00    +0.000 A 
ATOM     27  C   UNL     1      -6.122  13.469  19.442  0.00  0.00    +0.000 A 
BRANCH  22  29
ATOM     28  C   UNL     1      -4.762  11.053  17.514  0.00  0.00    +0.000 C 
ATOM     29  O   UNL     1      -5.908  11.396  18.296  0.00  0.00    +0.000 OA
ENDBRANCH  22  29
ENDBRANCH  21  27
BRANCH  21  30
ATOM     30  C   UNL     1      -6.153  13.628  21.989  0.00  0.00    +0.000 A 
ATOM     31  C   UNL     1      -5.800  14.788  22.668  0.00  0.00    +0.000 A 
ATOM     32  C   UNL     1      -6.636  15.066  23.793  0.00  0.00    +0.000 A 
ATOM     33  C   UNL     1      -7.627  14.130  23.947  0.00  0.00    +0.000 A 
ATOM     34  S   UNL     1      -7.554  12.924  22.738  0.00  0.00    +0.000 S 
ENDBRANCH  21  30
BRANCH  21  35
ATOM     35  O   UNL     1      -5.756  11.528  21.004  0.00  0.00    +0.000 OA
ATOM     36  H   UNL     1      -6.045  11.465  21.933  0.00  0.00    +0.000 HD
ENDBRANCH  21  35
ENDBRANCH   1  21
TORSDOF 8
ENDMDL
MODEL 3
REMARK VINA RESULT:      -6.5      1.746      4.466
REMARK  Name = 
REMARK  10 active torsions:
REMARK  status: ('A' for Active; 'I' for Inactive)
REMARK    1  A    between atoms: C_1  and  O_2
REMARK    2  A    between atoms: O_2  and  C_3
REMARK    3  A    between atoms: C_8  and  C_9
REMARK    4  A    between atoms: C_9  and  O_10
REMARK    5  A    between atoms: C_9  and  C_11
REMARK    6  A    between atoms: C_9  and  C_30
REMARK    7  A    between atoms: N_13  and  N_14
REMARK    8  A    between atoms: N_14  and  C_23
REMARK    9  A    between atoms: C_15  and  C_17
REMARK   10  A    between atoms: C_28  and  C_29
REMARK                            x       y       z     vdW  Elec       q    Type
REMARK                         _______ _______ _______ _____ _____    ______ ____
ROOT
ATOM      1  C   UNL     1      -3.403  12.866  21.448  0.00  0.00    +0.000 C 
ATOM      2  O   UNL     1      -3.451  12.212  22.491  0.00  0.00    +0.000 OA
ATOM      3  N   UNL     1      -2.207  13.168  20.783  0.00  0.00    +0.000 N 
ATOM      4  H   UNL     1      -2.256  13.666  19.898  0.00  0.00    +0.000 HD
ENDROOT
BRANCH   3   5
ATOM      5  N   UNL     1      -0.922  12.782  21.264  0.00  0.00    +0.000 N 
ATOM      6  C   UNL     1      -0.050  13.725  21.856  0.00  0.00    +0.000 C 
ATOM      7  O   UNL     1       1.181  13.638  21.817  0.00  0.00    +0.000 OA
BRANCH   5   8
ATOM      8  C   UNL     1      -0.562  11.380  21.308  0.00  0.00    +0.000 A 
ATOM      9  C   UNL     1      -0.498  10.763  22.577  0.00  0.00    +0.000 A 
ATOM     10  C   UNL     1      -0.187   9.411  22.750  0.00  0.00    +0.000 A 
ATOM     11  C   UNL     1       0.066   8.632  21.639  0.00  0.00    +0.000 A 
ATOM     12  C   UNL     1      -0.000   9.203  20.367  0.00  0.00    +0.000 A 
ATOM     13  C   UNL     1      -0.307  10.575  20.178  0.00  0.00    +0.000 A 
ATOM     14  C   UNL     1      -0.269  11.088  18.766  0.00  0.00    +0.000 C 
ENDBRANCH   5   8
BRANCH   6  15
ATOM     15  C   UNL     1      -0.613  14.831  22.679  0.00  0.00    +0.000 A 
ATOM     16  C   UNL     1      -0.694  16.138  22.191  0.00  0.00    +0.000 A 
ATOM     17  C   UNL     1      -1.254  17.142  22.984  0.00  0.00    +0.000 A 
ATOM     18  C   UNL     1      -1.760  16.829  24.245  0.00  0.00    +0.000 A 
ATOM     19  C   UNL     1      -1.714  15.517  24.719  0.00  0.00    +0.000 A 
ATOM     20  C   UNL     1      -1.145  14.519  23.934  0.00  0.00    +0.000 A 
ENDBRANCH   6  15
ENDBRANCH   3   5
BRANCH   1  21
ATOM     21  C   UNL     1      -4.674  13.536  20.786  0.00  0.00    +0.000 C 
BRANCH  21  27
ATOM     22  C   UNL     1      -5.990  14.448  22.864  0.00  0.00    +0.000 A 
ATOM     23  C   UNL     1      -7.039  14.282  23.783  0.00  0.00    +0.000 A 
ATOM     24  C   UNL     1      -7.914  13.200  23.691  0.00  0.00    +0.000 A 
ATOM     25  C   UNL     1      -7.754  12.266  22.679  0.00  0.00    +0.000 A 
ATOM     26  C   UNL     1      -6.722  12.420  21.765  0.00  0.00    +0.000 A 
ATOM     27  C   UNL     1      -5.805  13.497  21.839  0.00  0.00    +0.000 A 
BRANCH  22  29
ATOM     28  C   UNL     1      -5.371  16.495  23.907  0.00  0.00    +0.000 C 
ATOM     29  O   UNL     1      -5.098  15.488  22.931  0.00  0.00    +0.000 OA
ENDBRANCH  22  29
ENDBRANCH  21  27
BRANCH  21  30
ATOM     30  C   UNL     1      -5.100  12.853  19.472  0.00  0.00    +0.000 A 
ATOM     31  C   UNL     1      -4.660  11.690  18.852  0.00  0.00    +0.000 A 
ATOM     32  C   UNL     1      -5.307  11.431  17.604  0.00  0.00    +0.000 A 
ATOM     33  C   UNL     1      -6.244  12.385  17.297  0.00  0.00    +0.000 A 
ATOM     34  S   UNL     1      -6.349  13.585  18.509  0.00  0.00    +0.000 S 
ENDBRANCH  21  30
BRANCH  21  35
ATOM     35  O   UNL     1      -4.265  14.856  20.382  0.00  0.00    +0.000 OA
ATOM     36  H   UNL     1      -4.470  14.914  19.431  0.00  0.00    +0.000 HD
ENDBRANCH  21  35
ENDBRANCH   1  21
TORSDOF 8
ENDMDL
MODEL 4
REMARK VINA RESULT:      -6.5      3.821      5.574
REMARK  Name = 
REMARK  10 active torsions:
REMARK  status: ('A' for Active; 'I' for Inactive)
REMARK    1  A    between atoms: C_1  and  O_2
REMARK    2  A    between atoms: O_2  and  C_3
REMARK    3  A    between atoms: C_8  and  C_9
REMARK    4  A    between atoms: C_9  and  O_10
REMARK    5  A    between atoms: C_9  and  C_11
REMARK    6  A    between atoms: C_9  and  C_30
REMARK    7  A    between atoms: N_13  and  N_14
REMARK    8  A    between atoms: N_14  and  C_23
REMARK    9  A    between atoms: C_15  and  C_17
REMARK   10  A    between atoms: C_28  and  C_29
REMARK                            x       y       z     vdW  Elec       q    Type
REMARK                         _______ _______ _______ _____ _____    ______ ____
ROOT
ATOM      1  C   UNL     1      -0.380  13.384  19.970  0.00  0.00    +0.000 C 
ATOM      2  O   UNL     1      -0.132  13.418  21.176  0.00  0.00    +0.000 OA
ATOM      3  N   UNL     1      -0.473  14.532  19.172  0.00  0.00    +0.000 N 
ATOM      4  H   UNL     1      -0.625  14.417  18.173  0.00  0.00    +0.000 HD
ENDROOT
BRANCH   3   5
ATOM      5  N   UNL     1      -0.326  15.856  19.679  0.00  0.00    +0.000 N 
ATOM      6  C   UNL     1       0.944  16.361  20.044  0.00  0.00    +0.000 C 
ATOM      7  O   UNL     1       1.116  17.211  20.922  0.00  0.00    +0.000 OA
BRANCH   5   8
ATOM      8  C   UNL     1      -1.456  16.760  19.667  0.00  0.00    +0.000 A 
ATOM      9  C   UNL     1      -1.512  17.719  18.631  0.00  0.00    +0.000 A 
ATOM     10  C   UNL     1      -2.563  18.631  18.495  0.00  0.00    +0.000 A 
ATOM     11  C   UNL     1      -3.602  18.600  19.404  0.00  0.00    +0.000 A 
ATOM     12  C   UNL     1      -3.587  17.658  20.435  0.00  0.00    +0.000 A 
ATOM     13  C   UNL     1      -2.523  16.734  20.589  0.00  0.00    +0.000 A 
ATOM     14  C   UNL     1      -2.585  15.825  21.784  0.00  0.00    +0.000 C 
ENDBRANCH   5   8
BRANCH   6  15
ATOM     15  C   UNL     1       2.147  15.955  19.265  0.00  0.00    +0.000 A 
ATOM     16  C   UNL     1       3.042  14.997  19.748  0.00  0.00    +0.000 A 
ATOM     17  C   UNL     1       4.144  14.624  18.975  0.00  0.00    +0.000 A 
ATOM     18  C   UNL     1       4.327  15.185  17.711  0.00  0.00    +0.000 A 
ATOM     19  C   UNL     1       3.414  16.115  17.212  0.00  0.00    +0.000 A 
ATOM     20  C   UNL     1       2.323  16.496  17.987  0.00  0.00    +0.000 A 
ENDBRANCH   6  15
ENDBRANCH   3   5
BRANCH   1  21
ATOM     21  C   UNL     1      -0.729  12.051  19.193  0.00  0.00    +0.000 C 
BRANCH  21  27
ATOM     22  C   UNL     1      -2.978  11.343  18.045  0.00  0.00    +0.000 A 
ATOM     23  C   UNL     1      -4.382  11.380  18.038  0.00  0.00    +0.000 A 
ATOM     24  C   UNL     1      -5.091  12.026  19.050  0.00  0.00    +0.000 A 
ATOM     25  C   UNL     1      -4.408  12.646  20.085  0.00  0.00    +0.000 A 
ATOM     26  C   UNL     1      -3.021  12.615  20.103  0.00  0.00    +0.000 A 
ATOM     27  C   UNL     1      -2.269  11.982  19.082  0.00  0.00    +0.000 A 
BRANCH  22  29
ATOM     28  C   UNL     1      -2.792  10.783  15.739  0.00  0.00    +0.000 C 
ATOM     29  O   UNL     1      -2.245  10.733  17.058  0.00  0.00    +0.000 OA
ENDBRANCH  22  29
ENDBRANCH  21  27
BRANCH  21  30
ATOM     30  C   UNL     1      -0.153  10.792  19.869  0.00  0.00    +0.000 A 
ATOM     31  C   UNL     1      -0.421  10.199  21.097  0.00  0.00    +0.000 A 
ATOM     32  C   UNL     1       0.375   9.041  21.356  0.00  0.00    +0.000 A 
ATOM     33  C   UNL     1       1.224   8.752  20.318  0.00  0.00    +0.000 A 
ATOM     34  S   UNL     1       1.059   9.867  19.033  0.00  0.00    +0.000 S 
ENDBRANCH  21  30
BRANCH  21  35
ATOM     35  O   UNL     1      -0.031  12.128  17.936  0.00  0.00    +0.000 OA
ATOM     36  H   UNL     1       0.424  11.271  17.837  0.00  0.00    +0.000 HD
ENDBRANCH  21  35
ENDBRANCH   1  21
TORSDOF 8
ENDMDL
MODEL 5
REMARK VINA RESULT:      -6.4      2.305      5.691
REMARK  Name = 
REMARK  10 active torsions:
REMARK  status: ('A' for Active; 'I' for Inactive)
REMARK    1  A    between atoms: C_1  and  O_2
REMARK    2  A    between atoms: O_2  and  C_3
REMARK    3  A    between atoms: C_8  and  C_9
REMARK    4  A    between atoms: C_9  and  O_10
REMARK    5  A    between atoms: C_9  and  C_11
REMARK    6  A    between atoms: C_9  and  C_30
REMARK    7  A    between atoms: N_13  and  N_14
REMARK    8  A    between atoms: N_14  and  C_23
REMARK    9  A    between atoms: C_15  and  C_17
REMARK   10  A    between atoms: C_28  and  C_29
REMARK                            x       y       z     vdW  Elec       q    Type
REMARK                         _______ _______ _______ _____ _____    ______ ____
ROOT
ATOM      1  C   UNL     1      -1.508  13.626  20.123  0.00  0.00    +0.000 C 
ATOM      2  O   UNL     1      -1.268  14.835  20.119  0.00  0.00    +0.000 OA
ATOM      3  N   UNL     1      -2.672  13.075  20.675  0.00  0.00    +0.000 N 
ATOM      4  H   UNL     1      -2.822  12.073  20.588  0.00  0.00    +0.000 HD
ENDROOT
BRANCH   3   5
ATOM      5  N   UNL     1      -3.679  13.850  21.319  0.00  0.00    +0.000 N 
ATOM      6  C   UNL     1      -4.994  13.916  20.800  0.00  0.00    +0.000 C 
ATOM      7  O   UNL     1      -5.737  14.891  20.942  0.00  0.00    +0.000 OA
BRANCH   5   8
ATOM      8  C   UNL     1      -3.412  14.446  22.611  0.00  0.00    +0.000 A 
ATOM      9  C   UNL     1      -3.016  15.801  22.635  0.00  0.00    +0.000 A 
ATOM     10  C   UNL     1      -2.755  16.497  23.819  0.00  0.00    +0.000 A 
ATOM     11  C   UNL     1      -2.893  15.843  25.028  0.00  0.00    +0.000 A 
ATOM     12  C   UNL     1      -3.295  14.506  25.045  0.00  0.00    +0.000 A 
ATOM     13  C   UNL     1      -3.554  13.787  23.851  0.00  0.00    +0.000 A 
ATOM     14  C   UNL     1      -3.903  12.332  23.999  0.00  0.00    +0.000 C 
ENDBRANCH   5   8
BRANCH   6  15
ATOM     15  C   UNL     1      -5.585  12.716  20.146  0.00  0.00    +0.000 A 
ATOM     16  C   UNL     1      -6.468  11.873  20.827  0.00  0.00    +0.000 A 
ATOM     17  C   UNL     1      -7.023  10.773  20.171  0.00  0.00    +0.000 A 
ATOM     18  C   UNL     1      -6.720  10.539  18.830  0.00  0.00    +0.000 A 
ATOM     19  C   UNL     1      -5.868  11.401  18.137  0.00  0.00    +0.000 A 
ATOM     20  C   UNL     1      -5.305  12.490  18.795  0.00  0.00    +0.000 A 
ENDBRANCH   6  15
ENDBRANCH   3   5
BRANCH   1  21
ATOM     21  C   UNL     1      -0.485  12.538  19.601  0.00  0.00    +0.000 C 
BRANCH  21  27
ATOM     22  C   UNL     1      -0.157  10.055  20.382  0.00  0.00    +0.000 A 
ATOM     23  C   UNL     1      -0.195   9.113  21.422  0.00  0.00    +0.000 A 
ATOM     24  C   UNL     1      -0.504   9.493  22.728  0.00  0.00    +0.000 A 
ATOM     25  C   UNL     1      -0.782  10.821  23.014  0.00  0.00    +0.000 A 
ATOM     26  C   UNL     1      -0.747  11.760  21.994  0.00  0.00    +0.000 A 
ATOM     27  C   UNL     1      -0.453  11.407  20.654  0.00  0.00    +0.000 A 
BRANCH  22  29
ATOM     28  C   UNL     1       1.449   9.248  18.823  0.00  0.00    +0.000 C 
ATOM     29  O   UNL     1       0.125   9.718  19.082  0.00  0.00    +0.000 OA
ENDBRANCH  22  29
ENDBRANCH  21  27
BRANCH  21  30
ATOM     30  C   UNL     1       0.922  13.109  19.341  0.00  0.00    +0.000 A 
ATOM     31  C   UNL     1       1.630  13.317  18.163  0.00  0.00    +0.000 A 
ATOM     32  C   UNL     1       2.942  13.843  18.373  0.00  0.00    +0.000 A 
ATOM     33  C   UNL     1       3.212  14.048  19.703  0.00  0.00    +0.000 A 
ATOM     34  S   UNL     1       1.889  13.615  20.694  0.00  0.00    +0.000 S 
ENDBRANCH  21  30
BRANCH  21  35
ATOM     35  O   UNL     1      -0.953  12.143  18.299  0.00  0.00    +0.000 OA
ATOM     36  H   UNL     1      -0.176  11.771  17.843  0.00  0.00    +0.000 HD
ENDBRANCH  21  35
ENDBRANCH   1  21
TORSDOF 8
ENDMDL
MODEL 6
REMARK VINA RESULT:      -6.3      3.750      5.500
REMARK  Name = 
REMARK  10 active torsions:
REMARK  status: ('A' for Active; 'I' for Inactive)
REMARK    1  A    between atoms: C_1  and  O_2
REMARK    2  A    between atoms: O_2  and  C_3
REMARK    3  A    between atoms: C_8  and  C_9
REMARK    4  A    between atoms: C_9  and  O_10
REMARK    5  A    between atoms: C_9  and  C_11
REMARK    6  A    between atoms: C_9  and  C_30
REMARK    7  A    between atoms: N_13  and  N_14
REMARK    8  A    between atoms: N_14  and  C_23
REMARK    9  A    between atoms: C_15  and  C_17
REMARK   10  A    between atoms: C_28  and  C_29
REMARK                            x       y       z     vdW  Elec       q    Type
REMARK                         _______ _______ _______ _____ _____    ______ ____
ROOT
ATOM      1  C   UNL     1      -0.627  13.563  19.991  0.00  0.00    +0.000 C 
ATOM      2  O   UNL     1      -0.196  13.452  21.140  0.00  0.00    +0.000 OA
ATOM      3  N   UNL     1      -1.051  14.782  19.444  0.00  0.00    +0.000 N 
ATOM      4  H   UNL     1      -1.342  14.801  18.470  0.00  0.00    +0.000 HD
ENDROOT
BRANCH   3   5
ATOM      5  N   UNL     1      -1.059  16.008  20.170  0.00  0.00    +0.000 N 
ATOM      6  C   UNL     1       0.075  16.853  20.191  0.00  0.00    +0.000 C 
ATOM      7  O   UNL     1       0.357  17.598  21.133  0.00  0.00    +0.000 OA
BRANCH   5   8
ATOM      8  C   UNL     1      -2.292  16.488  20.758  0.00  0.00    +0.000 A 
ATOM      9  C   UNL     1      -2.695  15.916  21.985  0.00  0.00    +0.000 A 
ATOM     10  C   UNL     1      -3.850  16.311  22.666  0.00  0.00    +0.000 A 
ATOM     11  C   UNL     1      -4.639  17.308  22.129  0.00  0.00    +0.000 A 
ATOM     12  C   UNL     1      -4.267  17.907  20.923  0.00  0.00    +0.000 A 
ATOM     13  C   UNL     1      -3.102  17.509  20.219  0.00  0.00    +0.000 A 
ATOM     14  C   UNL     1      -2.853  18.174  18.895  0.00  0.00    +0.000 C 
ENDBRANCH   5   8
BRANCH   6  15
ATOM     15  C   UNL     1       0.931  16.961  18.977  0.00  0.00    +0.000 A 
ATOM     16  C   UNL     1       0.639  17.868  17.955  0.00  0.00    +0.000 A 
ATOM     17  C   UNL     1       1.482  17.959  16.845  0.00  0.00    +0.000 A 
ATOM     18  C   UNL     1       2.628  17.168  16.778  0.00  0.00    +0.000 A 
ATOM     19  C   UNL     1       2.942  16.288  17.815  0.00  0.00    +0.000 A 
ATOM     20  C   UNL     1       2.096  16.188  18.915  0.00  0.00    +0.000 A 
ENDBRANCH   6  15
ENDBRANCH   3   5
BRANCH   1  21
ATOM     21  C   UNL     1      -0.857  12.330  19.028  0.00  0.00    +0.000 C 
BRANCH  21  27
ATOM     22  C   UNL     1      -3.030  11.610  17.747  0.00  0.00    +0.000 A 
ATOM     23  C   UNL     1      -4.432  11.533  17.719  0.00  0.00    +0.000 A 
ATOM     24  C   UNL     1      -5.200  11.968  18.798  0.00  0.00    +0.000 A 
ATOM     25  C   UNL     1      -4.580  12.489  19.923  0.00  0.00    +0.000 A 
ATOM     26  C   UNL     1      -3.195  12.569  19.963  0.00  0.00    +0.000 A 
ATOM     27  C   UNL     1      -2.385  12.152  18.878  0.00  0.00    +0.000 A 
BRANCH  22  29
ATOM     28  C   UNL     1      -2.923  10.798  15.513  0.00  0.00    +0.000 C 
ATOM     29  O   UNL     1      -2.241  11.209  16.699  0.00  0.00    +0.000 OA
ENDBRANCH  22  29
ENDBRANCH  21  27
BRANCH  21  30
ATOM     30  C   UNL     1      -0.183  11.039  19.530  0.00  0.00    +0.000 A 
ATOM     31  C   UNL     1      -0.415  10.253  20.652  0.00  0.00    +0.000 A 
ATOM     32  C   UNL     1       0.475   9.141  20.763  0.00  0.00    +0.000 A 
ATOM     33  C   UNL     1       1.361   9.080  19.717  0.00  0.00    +0.000 A 
ATOM     34  S   UNL     1       1.118  10.352  18.603  0.00  0.00    +0.000 S 
ENDBRANCH  21  30
BRANCH  21  35
ATOM     35  O   UNL     1      -0.159  12.642  17.808  0.00  0.00    +0.000 OA
ATOM     36  H   UNL     1      -0.193  13.613  17.729  0.00  0.00    +0.000 HD
ENDBRANCH  21  35
ENDBRANCH   1  21
TORSDOF 8
ENDMDL
MODEL 7
REMARK VINA RESULT:      -6.3      2.261      5.648
REMARK  Name = 
REMARK  10 active torsions:
REMARK  status: ('A' for Active; 'I' for Inactive)
REMARK    1  A    between atoms: C_1  and  O_2
REMARK    2  A    between atoms: O_2  and  C_3
REMARK    3  A    between atoms: C_8  and  C_9
REMARK    4  A    between atoms: C_9  and  O_10
REMARK    5  A    between atoms: C_9  and  C_11
REMARK    6  A    between atoms: C_9  and  C_30
REMARK    7  A    between atoms: N_13  and  N_14
REMARK    8  A    between atoms: N_14  and  C_23
REMARK    9  A    between atoms: C_15  and  C_17
REMARK   10  A    between atoms: C_28  and  C_29
REMARK                            x       y       z     vdW  Elec       q    Type
REMARK                         _______ _______ _______ _____ _____    ______ ____
ROOT
ATOM      1  C   UNL     1      -1.358  13.676  20.239  0.00  0.00    +0.000 C 
ATOM      2  O   UNL     1      -1.156  14.892  20.216  0.00  0.00    +0.000 OA
ATOM      3  N   UNL     1      -2.518  13.100  20.773  0.00  0.00    +0.000 N 
ATOM      4  H   UNL     1      -2.635  12.092  20.704  0.00  0.00    +0.000 HD
ENDROOT
BRANCH   3   5
ATOM      5  N   UNL     1      -3.565  13.856  21.375  0.00  0.00    +0.000 N 
ATOM      6  C   UNL     1      -4.853  13.914  20.791  0.00  0.00    +0.000 C 
ATOM      7  O   UNL     1      -5.614  14.879  20.908  0.00  0.00    +0.000 OA
BRANCH   5   8
ATOM      8  C   UNL     1      -3.371  14.436  22.687  0.00  0.00    +0.000 A 
ATOM      9  C   UNL     1      -3.015  15.802  22.749  0.00  0.00    +0.000 A 
ATOM     10  C   UNL     1      -2.825  16.484  23.954  0.00  0.00    +0.000 A 
ATOM     11  C   UNL     1      -2.995  15.806  25.145  0.00  0.00    +0.000 A 
ATOM     12  C   UNL     1      -3.359  14.459  25.124  0.00  0.00    +0.000 A 
ATOM     13  C   UNL     1      -3.547  13.753  23.909  0.00  0.00    +0.000 A 
ATOM     14  C   UNL     1      -3.860  12.287  24.019  0.00  0.00    +0.000 C 
ENDBRANCH   5   8
BRANCH   6  15
ATOM     15  C   UNL     1      -5.397  12.716  20.093  0.00  0.00    +0.000 A 
ATOM     16  C   UNL     1      -4.873  12.280  18.874  0.00  0.00    +0.000 A 
ATOM     17  C   UNL     1      -5.394  11.137  18.264  0.00  0.00    +0.000 A 
ATOM     18  C   UNL     1      -6.410  10.418  18.891  0.00  0.00    +0.000 A 
ATOM     19  C   UNL     1      -6.909  10.831  20.128  0.00  0.00    +0.000 A 
ATOM     20  C   UNL     1      -6.400  11.977  20.729  0.00  0.00    +0.000 A 
ENDBRANCH   6  15
ENDBRANCH   3   5
BRANCH   1  21
ATOM     21  C   UNL     1      -0.289  12.611  19.766  0.00  0.00    +0.000 C 
BRANCH  21  27
ATOM     22  C   UNL     1      -0.152  10.075  20.425  0.00  0.00    +0.000 A 
ATOM     23  C   UNL     1      -0.276   9.089  21.416  0.00  0.00    +0.000 A 
ATOM     24  C   UNL     1      -0.586   9.424  22.733  0.00  0.00    +0.000 A 
ATOM     25  C   UNL     1      -0.776  10.752  23.082  0.00  0.00    +0.000 A 
ATOM     26  C   UNL     1      -0.654  11.736  22.111  0.00  0.00    +0.000 A 
ATOM     27  C   UNL     1      -0.358  11.430  20.760  0.00  0.00    +0.000 A 
BRANCH  22  29
ATOM     28  C   UNL     1       1.413   9.202  18.859  0.00  0.00    +0.000 C 
ATOM     29  O   UNL     1       0.133   9.784  19.115  0.00  0.00    +0.000 OA
ENDBRANCH  22  29
ENDBRANCH  21  27
BRANCH  21  30
ATOM     30  C   UNL     1       1.136  13.188  19.671  0.00  0.00    +0.000 A 
ATOM     31  C   UNL     1       1.976  13.737  20.632  0.00  0.00    +0.000 A 
ATOM     32  C   UNL     1       3.224  14.193  20.106  0.00  0.00    +0.000 A 
ATOM     33  C   UNL     1       3.330  13.969  18.756  0.00  0.00    +0.000 A 
ATOM     34  S   UNL     1       1.936  13.208  18.127  0.00  0.00    +0.000 S 
ENDBRANCH  21  30
BRANCH  21  35
ATOM     35  O   UNL     1      -0.629  12.281  18.406  0.00  0.00    +0.000 OA
ATOM     36  H   UNL     1      -0.569  13.119  17.912  0.00  0.00    +0.000 HD
ENDBRANCH  21  35
ENDBRANCH   1  21
TORSDOF 8
ENDMDL
MODEL 8
REMARK VINA RESULT:      -6.3      3.063      5.923
REMARK  Name = 
REMARK  10 active torsions:
REMARK  status: ('A' for Active; 'I' for Inactive)
REMARK    1  A    between atoms: C_1  and  O_2
REMARK    2  A    between atoms: O_2  and  C_3
REMARK    3  A    between atoms: C_8  and  C_9
REMARK    4  A    between atoms: C_9  and  O_10
REMARK    5  A    between atoms: C_9  and  C_11
REMARK    6  A    between atoms: C_9  and  C_30
REMARK    7  A    between atoms: N_13  and  N_14
REMARK    8  A    between atoms: N_14  and  C_23
REMARK    9  A    between atoms: C_15  and  C_17
REMARK   10  A    between atoms: C_28  and  C_29
REMARK                            x       y       z     vdW  Elec       q    Type
REMARK                         _______ _______ _______ _____ _____    ______ ____
ROOT
ATOM      1  C   UNL     1      -0.774  13.620  21.554  0.00  0.00    +0.000 C 
ATOM      2  O   UNL     1       0.227  13.639  22.271  0.00  0.00    +0.000 OA
ATOM      3  N   UNL     1      -1.281  14.758  20.912  0.00  0.00    +0.000 N 
ATOM      4  H   UNL     1      -2.080  14.650  20.292  0.00  0.00    +0.000 HD
ENDROOT
BRANCH   3   5
ATOM      5  N   UNL     1      -0.713  16.058  21.053  0.00  0.00    +0.000 N 
ATOM      6  C   UNL     1      -1.228  16.981  21.993  0.00  0.00    +0.000 C 
ATOM      7  O   UNL     1      -1.182  18.206  21.844  0.00  0.00    +0.000 OA
BRANCH   5   8
ATOM      8  C   UNL     1       0.509  16.388  20.352  0.00  0.00    +0.000 A 
ATOM      9  C   UNL     1       1.723  16.269  21.065  0.00  0.00    +0.000 A 
ATOM     10  C   UNL     1       2.970  16.534  20.494  0.00  0.00    +0.000 A 
ATOM     11  C   UNL     1       3.035  16.925  19.171  0.00  0.00    +0.000 A 
ATOM     12  C   UNL     1       1.858  17.042  18.429  0.00  0.00    +0.000 A 
ATOM     13  C   UNL     1       0.585  16.784  19.000  0.00  0.00    +0.000 A 
ATOM     14  C   UNL     1      -0.610  17.022  18.121  0.00  0.00    +0.000 C 
ENDBRANCH   5   8
BRANCH   6  15
ATOM     15  C   UNL     1      -1.750  16.488  23.297  0.00  0.00    +0.000 A 
ATOM     16  C   UNL     1      -3.122  16.402  23.549  0.00  0.00    +0.000 A 
ATOM     17  C   UNL     1      -3.572  15.908  24.775  0.00  0.00    +0.000 A 
ATOM     18  C   UNL     1      -2.653  15.472  25.728  0.00  0.00    +0.000 A 
ATOM     19  C   UNL     1      -1.283  15.522  25.463  0.00  0.00    +0.000 A 
ATOM     20  C   UNL     1      -0.834  16.026  24.247  0.00  0.00    +0.000 A 
ENDBRANCH   6  15
ENDBRANCH   3   5
BRANCH   1  21
ATOM     21  C   UNL     1      -1.672  12.334  21.352  0.00  0.00    +0.000 C 
BRANCH  21  27
ATOM     22  C   UNL     1      -4.177  13.050  21.660  0.00  0.00    +0.000 A 
ATOM     23  C   UNL     1      -5.271  13.234  22.520  0.00  0.00    +0.000 A 
ATOM     24  C   UNL     1      -5.185  12.917  23.875  0.00  0.00    +0.000 A 
ATOM     25  C   UNL     1      -4.003  12.410  24.393  0.00  0.00    +0.000 A 
ATOM     26  C   UNL     1      -2.916  12.223  23.552  0.00  0.00    +0.000 A 
ATOM     27  C   UNL     1      -2.963  12.550  22.175  0.00  0.00    +0.000 A 
BRANCH  22  29
ATOM     28  C   UNL     1      -5.512  13.590  19.766  0.00  0.00    +0.000 C 
ATOM     29  O   UNL     1      -4.216  13.367  20.326  0.00  0.00    +0.000 OA
ENDBRANCH  22  29
ENDBRANCH  21  27
BRANCH  21  30
ATOM     30  C   UNL     1      -0.957  11.030  21.754  0.00  0.00    +0.000 A 
ATOM     31  C   UNL     1      -0.734  10.443  22.994  0.00  0.00    +0.000 A 
ATOM     32  C   UNL     1       0.017   9.229  22.923  0.00  0.00    +0.000 A 
ATOM     33  C   UNL     1       0.340   8.894  21.632  0.00  0.00    +0.000 A 
ATOM     34  S   UNL     1      -0.264  10.032  20.510  0.00  0.00    +0.000 S 
ENDBRANCH  21  30
BRANCH  21  35
ATOM     35  O   UNL     1      -1.872  12.205  19.932  0.00  0.00    +0.000 OA
ATOM     36  H   UNL     1      -2.660  11.642  19.829  0.00  0.00    +0.000 HD
ENDBRANCH  21  35
ENDBRANCH   1  21
TORSDOF 8
ENDMDL
MODEL 9
REMARK VINA RESULT:      -6.3      2.306      5.422
REMARK  Name = 
REMARK  10 active torsions:
REMARK  status: ('A' for Active; 'I' for Inactive)
REMARK    1  A    between atoms: C_1  and  O_2
REMARK    2  A    between atoms: O_2  and  C_3
REMARK    3  A    between atoms: C_8  and  C_9
REMARK    4  A    between atoms: C_9  and  O_10
REMARK    5  A    between atoms: C_9  and  C_11
REMARK    6  A    between atoms: C_9  and  C_30
REMARK    7  A    between atoms: N_13  and  N_14
REMARK    8  A    between atoms: N_14  and  C_23
REMARK    9  A    between atoms: C_15  and  C_17
REMARK   10  A    between atoms: C_28  and  C_29
REMARK                            x       y       z     vdW  Elec       q    Type
REMARK                         _______ _______ _______ _____ _____    ______ ____
ROOT
ATOM      1  C   UNL     1      -3.784  13.082  20.875  0.00  0.00    +0.000 C 
ATOM      2  O   UNL     1      -3.368  12.887  19.731  0.00  0.00    +0.000 OA
ATOM      3  N   UNL     1      -2.951  13.115  22.001  0.00  0.00    +0.000 N 
ATOM      4  H   UNL     1      -3.363  13.337  22.903  0.00  0.00    +0.000 HD
ENDROOT
BRANCH   3   5
ATOM      5  N   UNL     1      -1.544  12.889  21.944  0.00  0.00    +0.000 N 
ATOM      6  C   UNL     1      -0.627  13.953  22.114  0.00  0.00    +0.000 C 
ATOM      7  O   UNL     1       0.492  13.981  21.594  0.00  0.00    +0.000 OA
BRANCH   5   8
ATOM      8  C   UNL     1      -1.034  11.536  21.882  0.00  0.00    +0.000 A 
ATOM      9  C   UNL     1      -1.004  10.795  23.083  0.00  0.00    +0.000 A 
ATOM     10  C   UNL     1      -0.558   9.471  23.150  0.00  0.00    +0.000 A 
ATOM     11  C   UNL     1      -0.132   8.847  21.995  0.00  0.00    +0.000 A 
ATOM     12  C   UNL     1      -0.160   9.543  20.785  0.00  0.00    +0.000 A 
ATOM     13  C   UNL     1      -0.601  10.888  20.706  0.00  0.00    +0.000 A 
ATOM     14  C   UNL     1      -0.508  11.552  19.361  0.00  0.00    +0.000 C 
ENDBRANCH   5   8
BRANCH   6  15
ATOM     15  C   UNL     1      -0.950  15.056  23.061  0.00  0.00    +0.000 A 
ATOM     16  C   UNL     1      -1.072  16.379  22.628  0.00  0.00    +0.000 A 
ATOM     17  C   UNL     1      -1.402  17.381  23.543  0.00  0.00    +0.000 A 
ATOM     18  C   UNL     1      -1.641  17.052  24.877  0.00  0.00    +0.000 A 
ATOM     19  C   UNL     1      -1.557  15.726  25.304  0.00  0.00    +0.000 A 
ATOM     20  C   UNL     1      -1.215  14.729  24.395  0.00  0.00    +0.000 A 
ENDBRANCH   6  15
ENDBRANCH   3   5
BRANCH   1  21
ATOM     21  C   UNL     1      -5.320  13.216  21.227  0.00  0.00    +0.000 C 
BRANCH  21  27
ATOM     22  C   UNL     1      -6.583  12.136  19.197  0.00  0.00    +0.000 A 
ATOM     23  C   UNL     1      -7.236  12.307  17.967  0.00  0.00    +0.000 A 
ATOM     24  C   UNL     1      -7.422  13.576  17.419  0.00  0.00    +0.000 A 
ATOM     25  C   UNL     1      -6.956  14.694  18.093  0.00  0.00    +0.000 A 
ATOM     26  C   UNL     1      -6.309  14.537  19.310  0.00  0.00    +0.000 A 
ATOM     27  C   UNL     1      -6.089  13.262  19.887  0.00  0.00    +0.000 A 
BRANCH  22  29
ATOM     28  C   UNL     1      -6.923   9.784  19.069  0.00  0.00    +0.000 C 
ATOM     29  O   UNL     1      -6.365  10.903  19.760  0.00  0.00    +0.000 OA
ENDBRANCH  22  29
ENDBRANCH  21  27
BRANCH  21  30
ATOM     30  C   UNL     1      -5.633  14.444  22.102  0.00  0.00    +0.000 A 
ATOM     31  C   UNL     1      -4.923  15.616  22.337  0.00  0.00    +0.000 A 
ATOM     32  C   UNL     1      -5.566  16.496  23.261  0.00  0.00    +0.000 A 
ATOM     33  C   UNL     1      -6.765  15.997  23.705  0.00  0.00    +0.000 A 
ATOM     34  S   UNL     1      -7.118  14.478  23.006  0.00  0.00    +0.000 S 
ENDBRANCH  21  30
BRANCH  21  35
ATOM     35  O   UNL     1      -5.635  12.091  22.070  0.00  0.00    +0.000 OA
ATOM     36  H   UNL     1      -5.918  12.474  22.921  0.00  0.00    +0.000 HD
ENDBRANCH  21  35
ENDBRANCH   1  21
TORSDOF 8
ENDMDL
