MODEL 1
REMARK VINA RESULT:      -8.8      0.000      0.000
REMARK  Name = 
REMARK  6 active torsions:
REMARK  status: ('A' for Active; 'I' for Inactive)
REMARK    1  A    between atoms: C_2  and  C_3
REMARK    2  A    between atoms: C_8  and  C_9
REMARK    3  A    between atoms: C_12  and  C_13
REMARK    4  A    between atoms: C_13  and  O_14
REMARK    5  A    between atoms: O_14  and  C_15
REMARK    6  A    between atoms: C_20  and  N_21
REMARK                            x       y       z     vdW  Elec       q    Type
REMARK                         _______ _______ _______ _____ _____    ______ ____
ROOT
ATOM      1  C   UNL     1       1.267   9.443  19.002  0.00  0.00    +0.000 A 
ATOM      2  C   UNL     1       1.218   8.804  20.256  0.00  0.00    +0.000 A 
ATOM      3  C   UNL     1       1.795   7.543  20.468  0.00  0.00    +0.000 A 
ATOM      4  C   UNL     1       2.414   6.859  19.421  0.00  0.00    +0.000 A 
ATOM      5  C   UNL     1       2.472   7.476  18.168  0.00  0.00    +0.000 A 
ATOM      6  C   UNL     1       1.937   8.756  17.974  0.00  0.00    +0.000 A 
ENDROOT
BRANCH   1  12
ATOM      7  C   UNL     1      -0.674  11.027  18.409  0.00  0.00    +0.000 A 
ATOM      8  C   UNL     1      -1.151  12.327  18.161  0.00  0.00    +0.000 A 
ATOM      9  C   UNL     1      -0.322  13.429  18.339  0.00  0.00    +0.000 A 
ATOM     10  C   UNL     1       0.989  13.235  18.751  0.00  0.00    +0.000 A 
ATOM     11  C   UNL     1       1.477  11.940  18.956  0.00  0.00    +0.000 A 
ATOM     12  C   UNL     1       0.668  10.792  18.792  0.00  0.00    +0.000 A 
BRANCH   7  14
ATOM     13  O   UNL     1      -2.444   9.864  17.350  0.00  0.00    +0.000 OA
ATOM     14  C   UNL     1      -1.674   9.942  18.302  0.00  0.00    +0.000 C 
ENDBRANCH   7  14
ENDBRANCH   1  12
BRANCH   4  15
ATOM     15  C   UNL     1       3.068   5.522  19.644  0.00  0.00    +0.000 C 
BRANCH  15  16
ATOM     16  O   UNL     1       3.223   4.837  18.399  0.00  0.00    +0.000 OA
BRANCH  16  17
ATOM     17  C   UNL     1       4.557   4.339  18.179  0.00  0.00    +0.000 C 
ATOM     18  C   UNL     1       5.608   5.430  18.474  0.00  0.00    +0.000 C 
ATOM     19  O   UNL     1       6.840   5.307  17.774  0.00  0.00    +0.000 OA
ATOM     20  C   UNL     1       6.699   5.097  16.474  0.00  0.00    +0.000 A 
ATOM     21  N   UNL     1       7.555   5.480  15.561  0.00  0.00    +0.000 NA
ATOM     22  C   UNL     1       7.067   4.936  14.387  0.00  0.00    +0.000 A 
ATOM     23  C   UNL     1       5.914   4.202  14.615  0.00  0.00    +0.000 A 
ATOM     24  N   UNL     1       5.680   4.362  15.950  0.00  0.00    +0.000 N 
ATOM     25  C   UNL     1       4.626   3.781  16.746  0.00  0.00    +0.000 C 
BRANCH  22  26
ATOM     26  N   UNL     1       7.762   5.117  13.129  0.00  0.00    +0.000 N 
ATOM     27  O   UNL     1       7.335   4.464  12.165  0.00  0.00    +0.000 OA
ATOM     28  O   UNL     1       8.713   5.911  13.105  0.00  0.00    +0.000 OA
ENDBRANCH  22  26
ENDBRANCH  16  17
ENDBRANCH  15  16
ENDBRANCH   4  15
TORSDOF 6
ENDMDL
MODEL 2
REMARK VINA RESULT:      -8.5      1.241      1.768
REMARK  Name = 
REMARK  6 active torsions:
REMARK  status: ('A' for Active; 'I' for Inactive)
REMARK    1  A    between atoms: C_2  and  C_3
REMARK    2  A    between atoms: C_8  and  C_9
REMARK    3  A    between atoms: C_12  and  C_13
REMARK    4  A    between atoms: C_13  and  O_14
REMARK    5  A    between atoms: O_14  and  C_15
REMARK    6  A    between atoms: C_20  and  N_21
REMARK                            x       y       z     vdW  Elec       q    Type
REMARK                         _______ _______ _______ _____ _____    ______ ____
ROOT
ATOM      1  C   UNL     1       0.984   9.353  18.987  0.00  0.00    +0.000 A 
ATOM      2  C   UNL     1       1.139   8.671  20.209  0.00  0.00    +0.000 A 
ATOM      3  C   UNL     1       1.973   7.551  20.333  0.00  0.00    +0.000 A 
ATOM      4  C   UNL     1       2.659   7.050  19.225  0.00  0.00    +0.000 A 
ATOM      5  C   UNL     1       2.518   7.712  18.002  0.00  0.00    +0.000 A 
ATOM      6  C   UNL     1       1.722   8.860  17.897  0.00  0.00    +0.000 A 
ENDROOT
BRANCH   1  12
ATOM      7  C   UNL     1       0.551  11.890  19.040  0.00  0.00    +0.000 A 
ATOM      8  C   UNL     1      -0.344  12.974  18.985  0.00  0.00    +0.000 A 
ATOM      9  C   UNL     1      -1.691  12.762  18.711  0.00  0.00    +0.000 A 
ATOM     10  C   UNL     1      -2.149  11.469  18.503  0.00  0.00    +0.000 A 
ATOM     11  C   UNL     1      -1.267  10.387  18.600  0.00  0.00    +0.000 A 
ATOM     12  C   UNL     1       0.111  10.556  18.872  0.00  0.00    +0.000 A 
BRANCH   7  14
ATOM     13  O   UNL     1       2.729  12.409  18.267  0.00  0.00    +0.000 OA
ATOM     14  C   UNL     1       1.977  12.242  19.222  0.00  0.00    +0.000 C 
ENDBRANCH   7  14
ENDBRANCH   1  12
BRANCH   4  15
ATOM     15  C   UNL     1       3.585   5.870  19.351  0.00  0.00    +0.000 C 
BRANCH  15  16
ATOM     16  O   UNL     1       3.246   4.874  18.384  0.00  0.00    +0.000 OA
BRANCH  16  17
ATOM     17  C   UNL     1       4.369   4.071  17.968  0.00  0.00    +0.000 C 
ATOM     18  C   UNL     1       5.696   4.678  18.470  0.00  0.00    +0.000 C 
ATOM     19  O   UNL     1       6.847   4.375  17.692  0.00  0.00    +0.000 OA
ATOM     20  C   UNL     1       6.680   4.562  16.392  0.00  0.00    +0.000 A 
ATOM     21  N   UNL     1       7.634   4.891  15.558  0.00  0.00    +0.000 NA
ATOM     22  C   UNL     1       7.031   4.842  14.314  0.00  0.00    +0.000 A 
ATOM     23  C   UNL     1       5.703   4.459  14.414  0.00  0.00    +0.000 A 
ATOM     24  N   UNL     1       5.497   4.330  15.757  0.00  0.00    +0.000 N 
ATOM     25  C   UNL     1       4.298   3.909  16.439  0.00  0.00    +0.000 C 
BRANCH  22  26
ATOM     26  N   UNL     1       7.777   5.124  13.105  0.00  0.00    +0.000 N 
ATOM     27  O   UNL     1       7.395   4.550  12.075  0.00  0.00    +0.000 OA
ATOM     28  O   UNL     1       8.725   5.919  13.186  0.00  0.00    +0.000 OA
ENDBRANCH  22  26
ENDBRANCH  16  17
ENDBRANCH  15  16
ENDBRANCH   4  15
TORSDOF 6
ENDMDL
MODEL 3
REMARK VINA RESULT:      -8.5      1.512      1.803
REMARK  Name = 
REMARK  6 active torsions:
REMARK  status: ('A' for Active; 'I' for Inactive)
REMARK    1  A    between atoms: C_2  and  C_3
REMARK    2  A    between atoms: C_8  and  C_9
REMARK    3  A    between atoms: C_12  and  C_13
REMARK    4  A    between atoms: C_13  and  O_14
REMARK    5  A    between atoms: O_14  and  C_15
REMARK    6  A    between atoms: C_20  and  N_21
REMARK                            x       y       z     vdW  Elec       q    Type
REMARK                         _______ _______ _______ _____ _____    ______ ____
ROOT
ATOM      1  C   UNL     1       0.853   9.156  20.070  0.00  0.00    +0.000 A 
ATOM      2  C   UNL     1       1.281   7.971  20.701  0.00  0.00    +0.000 A 
ATOM      3  C   UNL     1       2.136   7.060  20.065  0.00  0.00    +0.000 A 
ATOM      4  C   UNL     1       2.569   7.286  18.757  0.00  0.00    +0.000 A 
ATOM      5  C   UNL     1       2.155   8.454  18.113  0.00  0.00    +0.000 A 
ATOM      6  C   UNL     1       1.341   9.385  18.772  0.00  0.00    +0.000 A 
ENDROOT
BRANCH   1  12
ATOM      7  C   UNL     1      -0.911  11.030  20.107  0.00  0.00    +0.000 A 
ATOM      8  C   UNL     1      -1.674  11.969  20.825  0.00  0.00    +0.000 A 
ATOM      9  C   UNL     1      -1.631  11.999  22.215  0.00  0.00    +0.000 A 
ATOM     10  C   UNL     1      -0.816  11.101  22.890  0.00  0.00    +0.000 A 
ATOM     11  C   UNL     1      -0.023  10.196  22.176  0.00  0.00    +0.000 A 
ATOM     12  C   UNL     1      -0.040  10.128  20.763  0.00  0.00    +0.000 A 
BRANCH   7  14
ATOM     13  O   UNL     1      -2.019  10.350  18.129  0.00  0.00    +0.000 OA
ATOM     14  C   UNL     1      -1.124  11.011  18.643  0.00  0.00    +0.000 C 
ENDBRANCH   7  14
ENDBRANCH   1  12
BRANCH   4  15
ATOM     15  C   UNL     1       3.516   6.334  18.076  0.00  0.00    +0.000 C 
BRANCH  15  16
ATOM     16  O   UNL     1       3.835   5.249  18.951  0.00  0.00    +0.000 OA
BRANCH  16  17
ATOM     17  C   UNL     1       4.849   4.368  18.427  0.00  0.00    +0.000 C 
ATOM     18  C   UNL     1       6.258   4.964  18.636  0.00  0.00    +0.000 C 
ATOM     19  O   UNL     1       7.248   4.547  17.705  0.00  0.00    +0.000 OA
ATOM     20  C   UNL     1       6.863   4.624  16.441  0.00  0.00    +0.000 A 
ATOM     21  N   UNL     1       7.665   4.839  15.429  0.00  0.00    +0.000 NA
ATOM     22  C   UNL     1       6.854   4.705  14.316  0.00  0.00    +0.000 A 
ATOM     23  C   UNL     1       5.555   4.385  14.677  0.00  0.00    +0.000 A 
ATOM     24  N   UNL     1       5.583   4.384  16.042  0.00  0.00    +0.000 N 
ATOM     25  C   UNL     1       4.510   4.074  16.955  0.00  0.00    +0.000 C 
BRANCH  22  26
ATOM     26  N   UNL     1       7.386   4.848  12.977  0.00  0.00    +0.000 N 
ATOM     27  O   UNL     1       7.011   4.010  12.143  0.00  0.00    +0.000 OA
ATOM     28  O   UNL     1       8.158   5.794  12.762  0.00  0.00    +0.000 OA
ENDBRANCH  22  26
ENDBRANCH  16  17
ENDBRANCH  15  16
ENDBRANCH   4  15
TORSDOF 6
ENDMDL
MODEL 4
REMARK VINA RESULT:      -8.4      0.682      1.273
REMARK  Name = 
REMARK  6 active torsions:
REMARK  status: ('A' for Active; 'I' for Inactive)
REMARK    1  A    between atoms: C_2  and  C_3
REMARK    2  A    between atoms: C_8  and  C_9
REMARK    3  A    between atoms: C_12  and  C_13
REMARK    4  A    between atoms: C_13  and  O_14
REMARK    5  A    between atoms: O_14  and  C_15
REMARK    6  A    between atoms: C_20  and  N_21
REMARK                            x       y       z     vdW  Elec       q    Type
REMARK                         _______ _______ _______ _____ _____    ______ ____
ROOT
ATOM      1  C   UNL     1       0.966   9.514  19.586  0.00  0.00    +0.000 A 
ATOM      2  C   UNL     1       1.694   9.010  18.491  0.00  0.00    +0.000 A 
ATOM      3  C   UNL     1       2.342   7.767  18.540  0.00  0.00    +0.000 A 
ATOM      4  C   UNL     1       2.311   6.995  19.704  0.00  0.00    +0.000 A 
ATOM      5  C   UNL     1       1.595   7.478  20.802  0.00  0.00    +0.000 A 
ATOM      6  C   UNL     1       0.910   8.698  20.730  0.00  0.00    +0.000 A 
ENDROOT
BRANCH   1  12
ATOM      7  C   UNL     1      -0.925  11.067  18.788  0.00  0.00    +0.000 A 
ATOM      8  C   UNL     1      -1.494  12.351  18.710  0.00  0.00    +0.000 A 
ATOM      9  C   UNL     1      -0.924  13.418  19.397  0.00  0.00    +0.000 A 
ATOM     10  C   UNL     1       0.222  13.208  20.151  0.00  0.00    +0.000 A 
ATOM     11  C   UNL     1       0.813  11.941  20.194  0.00  0.00    +0.000 A 
ATOM     12  C   UNL     1       0.265  10.828  19.516  0.00  0.00    +0.000 A 
BRANCH   7  14
ATOM     13  O   UNL     1      -1.597   9.796  16.906  0.00  0.00    +0.000 OA
ATOM     14  C   UNL     1      -1.679   9.987  18.115  0.00  0.00    +0.000 C 
ENDBRANCH   7  14
ENDBRANCH   1  12
BRANCH   4  15
ATOM     15  C   UNL     1       2.971   5.643  19.758  0.00  0.00    +0.000 C 
BRANCH  15  16
ATOM     16  O   UNL     1       2.901   5.011  18.478  0.00  0.00    +0.000 OA
BRANCH  16  17
ATOM     17  C   UNL     1       4.067   4.226  18.160  0.00  0.00    +0.000 C 
ATOM     18  C   UNL     1       5.352   4.921  18.658  0.00  0.00    +0.000 C 
ATOM     19  O   UNL     1       6.541   4.609  17.943  0.00  0.00    +0.000 OA
ATOM     20  C   UNL     1       6.413   4.694  16.628  0.00  0.00    +0.000 A 
ATOM     21  N   UNL     1       7.383   5.000  15.803  0.00  0.00    +0.000 NA
ATOM     22  C   UNL     1       6.826   4.837  14.548  0.00  0.00    +0.000 A 
ATOM     23  C   UNL     1       5.511   4.408  14.632  0.00  0.00    +0.000 A 
ATOM     24  N   UNL     1       5.263   4.369  15.974  0.00  0.00    +0.000 N 
ATOM     25  C   UNL     1       4.057   3.950  16.646  0.00  0.00    +0.000 C 
BRANCH  22  26
ATOM     26  N   UNL     1       7.604   5.060  13.346  0.00  0.00    +0.000 N 
ATOM     27  O   UNL     1       8.518   5.894  13.429  0.00  0.00    +0.000 OA
ATOM     28  O   UNL     1       7.312   4.399  12.339  0.00  0.00    +0.000 OA
ENDBRANCH  22  26
ENDBRANCH  16  17
ENDBRANCH  15  16
ENDBRANCH   4  15
TORSDOF 6
ENDMDL
MODEL 5
REMARK VINA RESULT:      -8.4      2.028      2.565
REMARK  Name = 
REMARK  6 active torsions:
REMARK  status: ('A' for Active; 'I' for Inactive)
REMARK    1  A    between atoms: C_2  and  C_3
REMARK    2  A    between atoms: C_8  and  C_9
REMARK    3  A    between atoms: C_12  and  C_13
REMARK    4  A    between atoms: C_13  and  O_14
REMARK    5  A    between atoms: O_14  and  C_15
REMARK    6  A    between atoms: C_20  and  N_21
REMARK                            x       y       z     vdW  Elec       q    Type
REMARK                         _______ _______ _______ _____ _____    ______ ____
ROOT
ATOM      1  C   UNL     1       1.143   9.178  19.572  0.00  0.00    +0.000 A 
ATOM      2  C   UNL     1       1.722   9.263  18.291  0.00  0.00    +0.000 A 
ATOM      3  C   UNL     1       2.569   8.263  17.792  0.00  0.00    +0.000 A 
ATOM      4  C   UNL     1       2.894   7.152  18.574  0.00  0.00    +0.000 A 
ATOM      5  C   UNL     1       2.331   7.050  19.848  0.00  0.00    +0.000 A 
ATOM      6  C   UNL     1       1.446   8.028  20.321  0.00  0.00    +0.000 A 
ENDROOT
BRANCH   1  12
ATOM      7  C   UNL     1      -0.188  10.361  21.431  0.00  0.00    +0.000 A 
ATOM      8  C   UNL     1      -1.109  11.347  21.830  0.00  0.00    +0.000 A 
ATOM      9  C   UNL     1      -1.601  12.266  20.910  0.00  0.00    +0.000 A 
ATOM     10  C   UNL     1      -1.185  12.196  19.588  0.00  0.00    +0.000 A 
ATOM     11  C   UNL     1      -0.301  11.190  19.182  0.00  0.00    +0.000 A 
ATOM     12  C   UNL     1       0.228  10.238  20.084  0.00  0.00    +0.000 A 
BRANCH   7  14
ATOM     13  O   UNL     1       0.318   9.860  23.690  0.00  0.00    +0.000 OA
ATOM     14  C   UNL     1       0.358   9.513  22.514  0.00  0.00    +0.000 C 
ENDBRANCH   7  14
ENDBRANCH   1  12
BRANCH   4  15
ATOM     15  C   UNL     1       3.773   6.054  18.038  0.00  0.00    +0.000 C 
BRANCH  15  16
ATOM     16  O   UNL     1       4.832   5.780  18.957  0.00  0.00    +0.000 OA
BRANCH  16  17
ATOM     17  C   UNL     1       6.058   5.372  18.316  0.00  0.00    +0.000 C 
ATOM     18  C   UNL     1       6.721   6.560  17.587  0.00  0.00    +0.000 C 
ATOM     19  O   UNL     1       7.546   6.223  16.480  0.00  0.00    +0.000 OA
ATOM     20  C   UNL     1       6.986   5.375  15.631  0.00  0.00    +0.000 A 
ATOM     21  N   UNL     1       7.240   5.329  14.348  0.00  0.00    +0.000 NA
ATOM     22  C   UNL     1       6.539   4.223  13.902  0.00  0.00    +0.000 A 
ATOM     23  C   UNL     1       5.876   3.595  14.944  0.00  0.00    +0.000 A 
ATOM     24  N   UNL     1       6.145   4.380  16.027  0.00  0.00    +0.000 N 
ATOM     25  C   UNL     1       5.739   4.179  17.397  0.00  0.00    +0.000 C 
BRANCH  22  26
ATOM     26  N   UNL     1       6.586   3.813  12.513  0.00  0.00    +0.000 N 
ATOM     27  O   UNL     1       7.407   4.400  11.793  0.00  0.00    +0.000 OA
ATOM     28  O   UNL     1       5.820   2.907  12.154  0.00  0.00    +0.000 OA
ENDBRANCH  22  26
ENDBRANCH  16  17
ENDBRANCH  15  16
ENDBRANCH   4  15
TORSDOF 6
ENDMDL
MODEL 6
REMARK VINA RESULT:      -8.4      1.431      1.871
REMARK  Name = 
REMARK  6 active torsions:
REMARK  status: ('A' for Active; 'I' for Inactive)
REMARK    1  A    between atoms: C_2  and  C_3
REMARK    2  A    between atoms: C_8  and  C_9
REMARK    3  A    between atoms: C_12  and  C_13
REMARK    4  A    between atoms: C_13  and  O_14
REMARK    5  A    between atoms: O_14  and  C_15
REMARK    6  A    between atoms: C_20  and  N_21
REMARK                            x       y       z     vdW  Elec       q    Type
REMARK                         _______ _______ _______ _____ _____    ______ ____
ROOT
ATOM      1  C   UNL     1       1.056   9.526  19.410  0.00  0.00    +0.000 A 
ATOM      2  C   UNL     1       1.606   9.583  18.115  0.00  0.00    +0.000 A 
ATOM      3  C   UNL     1       2.433   8.567  17.615  0.00  0.00    +0.000 A 
ATOM      4  C   UNL     1       2.768   7.468  18.409  0.00  0.00    +0.000 A 
ATOM      5  C   UNL     1       2.233   7.393  19.697  0.00  0.00    +0.000 A 
ATOM      6  C   UNL     1       1.368   8.387  20.173  0.00  0.00    +0.000 A 
ENDROOT
BRANCH   1  12
ATOM      7  C   UNL     1      -1.083  10.957  19.351  0.00  0.00    +0.000 A 
ATOM      8  C   UNL     1      -1.843  12.031  19.849  0.00  0.00    +0.000 A 
ATOM      9  C   UNL     1      -1.410  12.746  20.961  0.00  0.00    +0.000 A 
ATOM     10  C   UNL     1      -0.213  12.398  21.570  0.00  0.00    +0.000 A 
ATOM     11  C   UNL     1       0.565  11.358  21.049  0.00  0.00    +0.000 A 
ATOM     12  C   UNL     1       0.161  10.602  19.924  0.00  0.00    +0.000 A 
BRANCH   7  14
ATOM     13  O   UNL     1      -1.912  10.708  17.146  0.00  0.00    +0.000 OA
ATOM     14  C   UNL     1      -1.695  10.196  18.239  0.00  0.00    +0.000 C 
ENDBRANCH   7  14
ENDBRANCH   1  12
BRANCH   4  15
ATOM     15  C   UNL     1       3.625   6.354  17.872  0.00  0.00    +0.000 C 
BRANCH  15  16
ATOM     16  O   UNL     1       4.570   5.941  18.862  0.00  0.00    +0.000 OA
BRANCH  16  17
ATOM     17  C   UNL     1       5.808   5.452  18.307  0.00  0.00    +0.000 C 
ATOM     18  C   UNL     1       6.589   6.590  17.617  0.00  0.00    +0.000 C 
ATOM     19  O   UNL     1       7.464   6.192  16.569  0.00  0.00    +0.000 OA
ATOM     20  C   UNL     1       6.910   5.371  15.690  0.00  0.00    +0.000 A 
ATOM     21  N   UNL     1       7.245   5.296  14.427  0.00  0.00    +0.000 NA
ATOM     22  C   UNL     1       6.509   4.230  13.942  0.00  0.00    +0.000 A 
ATOM     23  C   UNL     1       5.740   3.654  14.941  0.00  0.00    +0.000 A 
ATOM     24  N   UNL     1       5.985   4.433  16.035  0.00  0.00    +0.000 N 
ATOM     25  C   UNL     1       5.478   4.271  17.376  0.00  0.00    +0.000 C 
BRANCH  22  26
ATOM     26  N   UNL     1       6.622   3.804  12.562  0.00  0.00    +0.000 N 
ATOM     27  O   UNL     1       7.426   4.431  11.857  0.00  0.00    +0.000 OA
ATOM     28  O   UNL     1       5.925   2.847  12.196  0.00  0.00    +0.000 OA
ENDBRANCH  22  26
ENDBRANCH  16  17
ENDBRANCH  15  16
ENDBRANCH   4  15
TORSDOF 6
ENDMDL
MODEL 7
REMARK VINA RESULT:      -8.4      2.057      2.419
REMARK  Name = 
REMARK  6 active torsions:
REMARK  status: ('A' for Active; 'I' for Inactive)
REMARK    1  A    between atoms: C_2  and  C_3
REMARK    2  A    between atoms: C_8  and  C_9
REMARK    3  A    between atoms: C_12  and  C_13
REMARK    4  A    between atoms: C_13  and  O_14
REMARK    5  A    between atoms: O_14  and  C_15
REMARK    6  A    between atoms: C_20  and  N_21
REMARK                            x       y       z     vdW  Elec       q    Type
REMARK                         _______ _______ _______ _____ _____    ______ ____
ROOT
ATOM      1  C   UNL     1       0.994   9.278  19.754  0.00  0.00    +0.000 A 
ATOM      2  C   UNL     1       1.391   8.110  20.434  0.00  0.00    +0.000 A 
ATOM      3  C   UNL     1       2.249   7.167  19.849  0.00  0.00    +0.000 A 
ATOM      4  C   UNL     1       2.716   7.343  18.545  0.00  0.00    +0.000 A 
ATOM      5  C   UNL     1       2.333   8.495  17.853  0.00  0.00    +0.000 A 
ATOM      6  C   UNL     1       1.516   9.457  18.460  0.00  0.00    +0.000 A 
ENDROOT
BRANCH   1  12
ATOM      7  C   UNL     1      -0.139  10.383  21.784  0.00  0.00    +0.000 A 
ATOM      8  C   UNL     1      -1.052  11.315  22.310  0.00  0.00    +0.000 A 
ATOM      9  C   UNL     1      -1.713  12.206  21.471  0.00  0.00    +0.000 A 
ATOM     10  C   UNL     1      -1.474  12.161  20.105  0.00  0.00    +0.000 A 
ATOM     11  C   UNL     1      -0.598  11.206  19.576  0.00  0.00    +0.000 A 
ATOM     12  C   UNL     1       0.099  10.284  20.392  0.00  0.00    +0.000 A 
BRANCH   7  14
ATOM     13  O   UNL     1       0.357   9.644  23.978  0.00  0.00    +0.000 OA
ATOM     14  C   UNL     1       0.592   9.566  22.777  0.00  0.00    +0.000 C 
ENDBRANCH   7  14
ENDBRANCH   1  12
BRANCH   4  15
ATOM     15  C   UNL     1       3.665   6.357  17.919  0.00  0.00    +0.000 C 
BRANCH  15  16
ATOM     16  O   UNL     1       4.391   5.661  18.935  0.00  0.00    +0.000 OA
BRANCH  16  17
ATOM     17  C   UNL     1       5.561   4.980  18.441  0.00  0.00    +0.000 C 
ATOM     18  C   UNL     1       6.679   5.986  18.094  0.00  0.00    +0.000 C 
ATOM     19  O   UNL     1       7.601   5.565  17.097  0.00  0.00    +0.000 OA
ATOM     20  C   UNL     1       7.028   5.070  16.011  0.00  0.00    +0.000 A 
ATOM     21  N   UNL     1       7.539   5.129  14.807  0.00  0.00    +0.000 NA
ATOM     22  C   UNL     1       6.673   4.379  14.032  0.00  0.00    +0.000 A 
ATOM     23  C   UNL     1       5.643   3.853  14.796  0.00  0.00    +0.000 A 
ATOM     24  N   UNL     1       5.874   4.349  16.047  0.00  0.00    +0.000 N 
ATOM     25  C   UNL     1       5.132   4.094  17.258  0.00  0.00    +0.000 C 
BRANCH  22  26
ATOM     26  N   UNL     1       6.911   4.178  12.618  0.00  0.00    +0.000 N 
ATOM     27  O   UNL     1       6.363   3.193  12.101  0.00  0.00    +0.000 OA
ATOM     28  O   UNL     1       7.626   5.004  12.031  0.00  0.00    +0.000 OA
ENDBRANCH  22  26
ENDBRANCH  16  17
ENDBRANCH  15  16
ENDBRANCH   4  15
TORSDOF 6
ENDMDL
MODEL 8
REMARK VINA RESULT:      -8.4      1.139      1.463
REMARK  Name = 
REMARK  6 active torsions:
REMARK  status: ('A' for Active; 'I' for Inactive)
REMARK    1  A    between atoms: C_2  and  C_3
REMARK    2  A    between atoms: C_8  and  C_9
REMARK    3  A    between atoms: C_12  and  C_13
REMARK    4  A    between atoms: C_13  and  O_14
REMARK    5  A    between atoms: O_14  and  C_15
REMARK    6  A    between atoms: C_20  and  N_21
REMARK                            x       y       z     vdW  Elec       q    Type
REMARK                         _______ _______ _______ _____ _____    ______ ____
ROOT
ATOM      1  C   UNL     1       1.084   9.939  19.542  0.00  0.00    +0.000 A 
ATOM      2  C   UNL     1       1.532   9.728  18.224  0.00  0.00    +0.000 A 
ATOM      3  C   UNL     1       2.114   8.516  17.824  0.00  0.00    +0.000 A 
ATOM      4  C   UNL     1       2.299   7.479  18.740  0.00  0.00    +0.000 A 
ATOM      5  C   UNL     1       1.862   7.670  20.054  0.00  0.00    +0.000 A 
ATOM      6  C   UNL     1       1.237   8.864  20.435  0.00  0.00    +0.000 A 
ENDROOT
BRANCH   1  12
ATOM      7  C   UNL     1      -0.844  11.645  19.557  0.00  0.00    +0.000 A 
ATOM      8  C   UNL     1      -1.352  12.903  19.926  0.00  0.00    +0.000 A 
ATOM      9  C   UNL     1      -0.610  13.753  20.740  0.00  0.00    +0.000 A 
ATOM     10  C   UNL     1       0.645  13.354  21.176  0.00  0.00    +0.000 A 
ATOM     11  C   UNL     1       1.170  12.120  20.774  0.00  0.00    +0.000 A 
ATOM     12  C   UNL     1       0.448  11.224  19.952  0.00  0.00    +0.000 A 
BRANCH   7  14
ATOM     13  O   UNL     1      -1.884  10.880  17.572  0.00  0.00    +0.000 OA
ATOM     14  C   UNL     1      -1.764  10.778  18.788  0.00  0.00    +0.000 C 
ENDBRANCH   7  14
ENDBRANCH   1  12
BRANCH   4  15
ATOM     15  C   UNL     1       2.889   6.161  18.316  0.00  0.00    +0.000 C 
BRANCH  15  16
ATOM     16  O   UNL     1       3.684   5.616  19.371  0.00  0.00    +0.000 OA
BRANCH  16  17
ATOM     17  C   UNL     1       4.678   4.676  18.915  0.00  0.00    +0.000 C 
ATOM     18  C   UNL     1       6.102   5.213  19.170  0.00  0.00    +0.000 C 
ATOM     19  O   UNL     1       7.111   4.727  18.295  0.00  0.00    +0.000 OA
ATOM     20  C   UNL     1       6.785   4.787  17.013  0.00  0.00    +0.000 A 
ATOM     21  N   UNL     1       7.639   4.938  16.033  0.00  0.00    +0.000 NA
ATOM     22  C   UNL     1       6.871   4.810  14.890  0.00  0.00    +0.000 A 
ATOM     23  C   UNL     1       5.545   4.559  15.201  0.00  0.00    +0.000 A 
ATOM     24  N   UNL     1       5.513   4.595  16.565  0.00  0.00    +0.000 N 
ATOM     25  C   UNL     1       4.389   4.358  17.437  0.00  0.00    +0.000 C 
BRANCH  22  26
ATOM     26  N   UNL     1       7.467   4.893  13.572  0.00  0.00    +0.000 N 
ATOM     27  O   UNL     1       6.964   4.175  12.694  0.00  0.00    +0.000 OA
ATOM     28  O   UNL     1       8.415   5.675  13.416  0.00  0.00    +0.000 OA
ENDBRANCH  22  26
ENDBRANCH  16  17
ENDBRANCH  15  16
ENDBRANCH   4  15
TORSDOF 6
ENDMDL
MODEL 9
REMARK VINA RESULT:      -8.3      0.997      1.031
REMARK  Name = 
REMARK  6 active torsions:
REMARK  status: ('A' for Active; 'I' for Inactive)
REMARK    1  A    between atoms: C_2  and  C_3
REMARK    2  A    between atoms: C_8  and  C_9
REMARK    3  A    between atoms: C_12  and  C_13
REMARK    4  A    between atoms: C_13  and  O_14
REMARK    5  A    between atoms: O_14  and  C_15
REMARK    6  A    between atoms: C_20  and  N_21
REMARK                            x       y       z     vdW  Elec       q    Type
REMARK                         _______ _______ _______ _____ _____    ______ ____
ROOT
ATOM      1  C   UNL     1       1.193   9.430  19.339  0.00  0.00    +0.000 A 
ATOM      2  C   UNL     1       1.295   8.422  20.316  0.00  0.00    +0.000 A 
ATOM      3  C   UNL     1       1.950   7.208  20.064  0.00  0.00    +0.000 A 
ATOM      4  C   UNL     1       2.501   6.945  18.809  0.00  0.00    +0.000 A 
ATOM      5  C   UNL     1       2.409   7.932  17.824  0.00  0.00    +0.000 A 
ATOM      6  C   UNL     1       1.797   9.162  18.097  0.00  0.00    +0.000 A 
ENDROOT
BRANCH   1  12
ATOM      7  C   UNL     1      -0.655  11.183  18.967  0.00  0.00    +0.000 A 
ATOM      8  C   UNL     1      -1.205  12.449  19.240  0.00  0.00    +0.000 A 
ATOM      9  C   UNL     1      -0.638  13.270  20.209  0.00  0.00    +0.000 A 
ATOM     10  C   UNL     1       0.485  12.834  20.898  0.00  0.00    +0.000 A 
ATOM     11  C   UNL     1       1.057  11.593  20.598  0.00  0.00    +0.000 A 
ATOM     12  C   UNL     1       0.511  10.725  19.624  0.00  0.00    +0.000 A 
BRANCH   7  14
ATOM     13  O   UNL     1      -2.632  10.368  17.949  0.00  0.00    +0.000 OA
ATOM     14  C   UNL     1      -1.407  10.349  18.003  0.00  0.00    +0.000 C 
ENDBRANCH   7  14
ENDBRANCH   1  12
BRANCH   4  15
ATOM     15  C   UNL     1       3.238   5.661  18.536  0.00  0.00    +0.000 C 
BRANCH  15  16
ATOM     16  O   UNL     1       4.201   5.420  19.564  0.00  0.00    +0.000 OA
BRANCH  16  17
ATOM     17  C   UNL     1       5.428   4.841  19.078  0.00  0.00    +0.000 C 
ATOM     18  C   UNL     1       6.510   5.925  18.885  0.00  0.00    +0.000 C 
ATOM     19  O   UNL     1       7.503   5.639  17.908  0.00  0.00    +0.000 OA
ATOM     20  C   UNL     1       7.012   5.220  16.751  0.00  0.00    +0.000 A 
ATOM     21  N   UNL     1       7.581   5.412  15.588  0.00  0.00    +0.000 NA
ATOM     22  C   UNL     1       6.795   4.698  14.702  0.00  0.00    +0.000 A 
ATOM     23  C   UNL     1       5.755   4.057  15.358  0.00  0.00    +0.000 A 
ATOM     24  N   UNL     1       5.896   4.447  16.658  0.00  0.00    +0.000 N 
ATOM     25  C   UNL     1       5.106   4.048  17.798  0.00  0.00    +0.000 C 
BRANCH  22  26
ATOM     26  N   UNL     1       7.116   4.638  13.291  0.00  0.00    +0.000 N 
ATOM     27  O   UNL     1       6.522   3.776  12.627  0.00  0.00    +0.000 OA
ATOM     28  O   UNL     1       7.941   5.453  12.853  0.00  0.00    +0.000 OA
ENDBRANCH  22  26
ENDBRANCH  16  17
ENDBRANCH  15  16
ENDBRANCH   4  15
TORSDOF 6
ENDMDL
