MODEL 1
REMARK VINA RESULT:      -6.8      0.000      0.000
REMARK  Name = 
REMARK  3 active torsions:
REMARK  status: ('A' for Active; 'I' for Inactive)
REMARK    1  A    between atoms: C_2  and  N_3
REMARK    2  A    between atoms: C_6  and  N_7
REMARK    3  A    between atoms: C_13  and  C_14
REMARK                            x       y       z     vdW  Elec       q    Type
REMARK                         _______ _______ _______ _____ _____    ______ ____
ROOT
ATOM      1  N   UNL     1       1.878   7.728  19.653  0.00  0.00    +0.000 N 
ATOM      2  C   UNL     1       1.412   8.536  20.661  0.00  0.00    +0.000 C 
ATOM      3  O   UNL     1       1.431   8.181  21.836  0.00  0.00    +0.000 OA
ATOM      4  N   UNL     1       0.912   9.750  20.251  0.00  0.00    +0.000 N 
ATOM      5  C   UNL     1       0.390  10.694  21.217  0.00  0.00    +0.000 C 
ATOM      6  C   UNL     1      -0.828  11.282  20.537  0.00  0.00    +0.000 C 
ATOM      7  C   UNL     1      -0.487  11.262  19.035  0.00  0.00    +0.000 C 
ATOM      8  C   UNL     1       0.648  10.220  18.896  0.00  0.00    +0.000 C 
ATOM      9  H   UNL     1       2.412   8.270  18.989  0.00  0.00    +0.000 HD
ENDROOT
BRANCH   7  10
ATOM     10  C   UNL     1      -1.716  10.959  18.200  0.00  0.00    +0.000 A 
ATOM     11  C   UNL     1      -1.666  10.006  17.174  0.00  0.00    +0.000 A 
ATOM     12  C   UNL     1      -2.778   9.783  16.359  0.00  0.00    +0.000 A 
ATOM     13  C   UNL     1      -3.951  10.510  16.555  0.00  0.00    +0.000 A 
ATOM     14  C   UNL     1      -4.018  11.453  17.578  0.00  0.00    +0.000 A 
ATOM     15  C   UNL     1      -2.912  11.669  18.398  0.00  0.00    +0.000 A 
ENDBRANCH   7  10
BRANCH   1  19
ATOM     16  N   UNL     1       1.748   4.293  18.999  0.00  0.00    +0.000 N 
ATOM     17  C   UNL     1       2.517   5.054  17.997  0.00  0.00    +0.000 C 
ATOM     18  C   UNL     1       3.390   5.951  18.858  0.00  0.00    +0.000 C 
ATOM     19  C   UNL     1       2.454   6.415  19.975  0.00  0.00    +0.000 C 
ATOM     20  C   UNL     1       1.436   5.246  20.115  0.00  0.00    +0.000 C 
BRANCH  16  22
ATOM     21  N   UNL     1       0.497   2.177  18.551  0.00  0.00    +0.000 NA
ATOM     22  C   UNL     1       1.084   3.160  18.763  0.00  0.00    +0.000 C 
ENDBRANCH  16  22
ENDBRANCH   1  19
TORSDOF 3
ENDMDL
MODEL 2
REMARK VINA RESULT:      -6.7      0.107      1.058
REMARK  Name = 
REMARK  3 active torsions:
REMARK  status: ('A' for Active; 'I' for Inactive)
REMARK    1  A    between atoms: C_2  and  N_3
REMARK    2  A    between atoms: C_6  and  N_7
REMARK    3  A    between atoms: C_13  and  C_14
REMARK                            x       y       z     vdW  Elec       q    Type
REMARK                         _______ _______ _______ _____ _____    ______ ____
ROOT
ATOM      1  N   UNL     1       1.936   7.687  19.657  0.00  0.00    +0.000 N 
ATOM      2  C   UNL     1       1.468   8.487  20.670  0.00  0.00    +0.000 C 
ATOM      3  O   UNL     1       1.464   8.115  21.840  0.00  0.00    +0.000 OA
ATOM      4  N   UNL     1       0.994   9.715  20.272  0.00  0.00    +0.000 N 
ATOM      5  C   UNL     1       0.474  10.654  21.245  0.00  0.00    +0.000 C 
ATOM      6  C   UNL     1      -0.724  11.271  20.557  0.00  0.00    +0.000 C 
ATOM      7  C   UNL     1      -0.361  11.269  19.059  0.00  0.00    +0.000 C 
ATOM      8  C   UNL     1       0.758  10.210  18.920  0.00  0.00    +0.000 C 
ATOM      9  H   UNL     1       2.489   8.230  19.009  0.00  0.00    +0.000 HD
ENDROOT
BRANCH   7  10
ATOM     10  C   UNL     1      -1.583  10.999  18.202  0.00  0.00    +0.000 A 
ATOM     11  C   UNL     1      -2.786  11.681  18.438  0.00  0.00    +0.000 A 
ATOM     12  C   UNL     1      -3.929  11.377  17.696  0.00  0.00    +0.000 A 
ATOM     13  C   UNL     1      -3.888  10.388  16.714  0.00  0.00    +0.000 A 
ATOM     14  C   UNL     1      -2.698   9.712  16.462  0.00  0.00    +0.000 A 
ATOM     15  C   UNL     1      -1.553  10.021  17.194  0.00  0.00    +0.000 A 
ENDBRANCH   7  10
BRANCH   1  19
ATOM     16  N   UNL     1       1.729   4.260  18.981  0.00  0.00    +0.000 N 
ATOM     17  C   UNL     1       2.509   5.011  17.980  0.00  0.00    +0.000 C 
ATOM     18  C   UNL     1       3.405   5.884  18.842  0.00  0.00    +0.000 C 
ATOM     19  C   UNL     1       2.485   6.360  19.968  0.00  0.00    +0.000 C 
ATOM     20  C   UNL     1       1.444   5.212  20.105  0.00  0.00    +0.000 C 
BRANCH  16  22
ATOM     21  N   UNL     1       0.440   2.165  18.542  0.00  0.00    +0.000 NA
ATOM     22  C   UNL     1       1.039   3.143  18.741  0.00  0.00    +0.000 C 
ENDBRANCH  16  22
ENDBRANCH   1  19
TORSDOF 3
ENDMDL
MODEL 3
REMARK VINA RESULT:      -6.6      2.203      3.119
REMARK  Name = 
REMARK  3 active torsions:
REMARK  status: ('A' for Active; 'I' for Inactive)
REMARK    1  A    between atoms: C_2  and  N_3
REMARK    2  A    between atoms: C_6  and  N_7
REMARK    3  A    between atoms: C_13  and  C_14
REMARK                            x       y       z     vdW  Elec       q    Type
REMARK                         _______ _______ _______ _____ _____    ______ ____
ROOT
ATOM      1  N   UNL     1       2.621   6.736  18.795  0.00  0.00    +0.000 N 
ATOM      2  C   UNL     1       2.020   6.910  20.017  0.00  0.00    +0.000 C 
ATOM      3  O   UNL     1       1.888   5.983  20.811  0.00  0.00    +0.000 OA
ATOM      4  N   UNL     1       1.569   8.184  20.269  0.00  0.00    +0.000 N 
ATOM      5  C   UNL     1       0.918   8.499  21.524  0.00  0.00    +0.000 C 
ATOM      6  C   UNL     1      -0.206   9.435  21.131  0.00  0.00    +0.000 C 
ATOM      7  C   UNL     1       0.330  10.198  19.904  0.00  0.00    +0.000 C 
ATOM      8  C   UNL     1       1.481   9.320  19.358  0.00  0.00    +0.000 C 
ATOM      9  H   UNL     1       3.234   7.513  18.592  0.00  0.00    +0.000 HD
ENDROOT
BRANCH   7  10
ATOM     10  C   UNL     1      -0.777  10.466  18.903  0.00  0.00    +0.000 A 
ATOM     11  C   UNL     1      -1.763  11.427  19.167  0.00  0.00    +0.000 A 
ATOM     12  C   UNL     1      -2.822  11.619  18.278  0.00  0.00    +0.000 A 
ATOM     13  C   UNL     1      -2.913  10.853  17.117  0.00  0.00    +0.000 A 
ATOM     14  C   UNL     1      -1.935   9.903  16.836  0.00  0.00    +0.000 A 
ATOM     15  C   UNL     1      -0.872   9.717  17.718  0.00  0.00    +0.000 A 
ENDBRANCH   7  10
BRANCH   1  19
ATOM     16  N   UNL     1       5.436   5.001  17.653  0.00  0.00    +0.000 N 
ATOM     17  C   UNL     1       5.461   5.271  19.102  0.00  0.00    +0.000 C 
ATOM     18  C   UNL     1       4.059   4.877  19.538  0.00  0.00    +0.000 C 
ATOM     19  C   UNL     1       3.160   5.420  18.426  0.00  0.00    +0.000 C 
ATOM     20  C   UNL     1       4.073   5.393  17.166  0.00  0.00    +0.000 C 
BRANCH  16  22
ATOM     21  N   UNL     1       7.447   4.776  16.186  0.00  0.00    +0.000 NA
ATOM     22  C   UNL     1       6.513   4.879  16.874  0.00  0.00    +0.000 C 
ENDBRANCH  16  22
ENDBRANCH   1  19
TORSDOF 3
ENDMDL
MODEL 4
REMARK VINA RESULT:      -6.5      2.207      2.946
REMARK  Name = 
REMARK  3 active torsions:
REMARK  status: ('A' for Active; 'I' for Inactive)
REMARK    1  A    between atoms: C_2  and  N_3
REMARK    2  A    between atoms: C_6  and  N_7
REMARK    3  A    between atoms: C_13  and  C_14
REMARK                            x       y       z     vdW  Elec       q    Type
REMARK                         _______ _______ _______ _____ _____    ______ ____
ROOT
ATOM      1  N   UNL     1       2.612   6.700  18.752  0.00  0.00    +0.000 N 
ATOM      2  C   UNL     1       2.056   6.896  19.992  0.00  0.00    +0.000 C 
ATOM      3  O   UNL     1       1.967   5.987  20.812  0.00  0.00    +0.000 OA
ATOM      4  N   UNL     1       1.598   8.170  20.231  0.00  0.00    +0.000 N 
ATOM      5  C   UNL     1       0.990   8.507  21.502  0.00  0.00    +0.000 C 
ATOM      6  C   UNL     1      -0.160   9.419  21.130  0.00  0.00    +0.000 C 
ATOM      7  C   UNL     1       0.319  10.159  19.866  0.00  0.00    +0.000 C 
ATOM      8  C   UNL     1       1.460   9.283  19.297  0.00  0.00    +0.000 C 
ATOM      9  H   UNL     1       3.207   7.480  18.508  0.00  0.00    +0.000 HD
ENDROOT
BRANCH   7  10
ATOM     10  C   UNL     1      -0.829  10.389  18.901  0.00  0.00    +0.000 A 
ATOM     11  C   UNL     1      -0.916   9.659  17.707  0.00  0.00    +0.000 A 
ATOM     12  C   UNL     1      -1.932   9.925  16.787  0.00  0.00    +0.000 A 
ATOM     13  C   UNL     1      -2.871  10.924  17.045  0.00  0.00    +0.000 A 
ATOM     14  C   UNL     1      -2.802  11.649  18.231  0.00  0.00    +0.000 A 
ATOM     15  C   UNL     1      -1.794  11.377  19.155  0.00  0.00    +0.000 A 
ENDBRANCH   7  10
BRANCH   1  19
ATOM     16  N   UNL     1       5.446   4.956  17.670  0.00  0.00    +0.000 N 
ATOM     17  C   UNL     1       5.440   5.226  19.120  0.00  0.00    +0.000 C 
ATOM     18  C   UNL     1       4.028   4.836  19.525  0.00  0.00    +0.000 C 
ATOM     19  C   UNL     1       3.155   5.382  18.393  0.00  0.00    +0.000 C 
ATOM     20  C   UNL     1       4.095   5.353  17.153  0.00  0.00    +0.000 C 
BRANCH  16  22
ATOM     21  N   UNL     1       7.496   4.731  16.260  0.00  0.00    +0.000 NA
ATOM     22  C   UNL     1       6.539   4.831  16.914  0.00  0.00    +0.000 C 
ENDBRANCH  16  22
ENDBRANCH   1  19
TORSDOF 3
ENDMDL
MODEL 5
REMARK VINA RESULT:      -6.5      2.893      7.388
REMARK  Name = 
REMARK  3 active torsions:
REMARK  status: ('A' for Active; 'I' for Inactive)
REMARK    1  A    between atoms: C_2  and  N_3
REMARK    2  A    between atoms: C_6  and  N_7
REMARK    3  A    between atoms: C_13  and  C_14
REMARK                            x       y       z     vdW  Elec       q    Type
REMARK                         _______ _______ _______ _____ _____    ______ ____
ROOT
ATOM      1  N   UNL     1       1.254   9.117  19.286  0.00  0.00    +0.000 N 
ATOM      2  C   UNL     1       2.109   8.861  18.244  0.00  0.00    +0.000 C 
ATOM      3  O   UNL     1       2.123   9.555  17.232  0.00  0.00    +0.000 OA
ATOM      4  N   UNL     1       2.927   7.769  18.416  0.00  0.00    +0.000 N 
ATOM      5  C   UNL     1       3.877   7.393  17.389  0.00  0.00    +0.000 C 
ATOM      6  C   UNL     1       3.819   5.880  17.369  0.00  0.00    +0.000 C 
ATOM      7  C   UNL     1       3.495   5.481  18.822  0.00  0.00    +0.000 C 
ATOM      8  C   UNL     1       2.888   6.752  19.461  0.00  0.00    +0.000 C 
ATOM      9  H   UNL     1       1.734   9.008  20.169  0.00  0.00    +0.000 HD
ENDROOT
BRANCH   7  10
ATOM     10  C   UNL     1       2.586   4.268  18.865  0.00  0.00    +0.000 A 
ATOM     11  C   UNL     1       1.476   4.236  19.720  0.00  0.00    +0.000 A 
ATOM     12  C   UNL     1       0.684   3.090  19.812  0.00  0.00    +0.000 A 
ATOM     13  C   UNL     1       0.992   1.960  19.055  0.00  0.00    +0.000 A 
ATOM     14  C   UNL     1       2.086   1.981  18.194  0.00  0.00    +0.000 A 
ATOM     15  C   UNL     1       2.871   3.128  18.094  0.00  0.00    +0.000 A 
ENDBRANCH   7  10
BRANCH   1  19
ATOM     16  N   UNL     1      -0.677  11.363  21.149  0.00  0.00    +0.000 N 
ATOM     17  C   UNL     1       0.752  11.721  21.095  0.00  0.00    +0.000 C 
ATOM     18  C   UNL     1       1.082  11.553  19.621  0.00  0.00    +0.000 C 
ATOM     19  C   UNL     1       0.347  10.272  19.222  0.00  0.00    +0.000 C 
ATOM     20  C   UNL     1      -0.873  10.228  20.187  0.00  0.00    +0.000 C 
BRANCH  16  22
ATOM     21  N   UNL     1      -2.237  11.906  23.024  0.00  0.00    +0.000 NA
ATOM     22  C   UNL     1      -1.508  11.658  22.151  0.00  0.00    +0.000 C 
ENDBRANCH  16  22
ENDBRANCH   1  19
TORSDOF 3
ENDMDL
MODEL 6
REMARK VINA RESULT:      -6.5      2.965      7.359
REMARK  Name = 
REMARK  3 active torsions:
REMARK  status: ('A' for Active; 'I' for Inactive)
REMARK    1  A    between atoms: C_2  and  N_3
REMARK    2  A    between atoms: C_6  and  N_7
REMARK    3  A    between atoms: C_13  and  C_14
REMARK                            x       y       z     vdW  Elec       q    Type
REMARK                         _______ _______ _______ _____ _____    ______ ____
ROOT
ATOM      1  N   UNL     1       1.213   9.268  19.404  0.00  0.00    +0.000 N 
ATOM      2  C   UNL     1       1.997   8.963  18.320  0.00  0.00    +0.000 C 
ATOM      3  O   UNL     1       1.945   9.612  17.280  0.00  0.00    +0.000 OA
ATOM      4  N   UNL     1       2.821   7.874  18.484  0.00  0.00    +0.000 N 
ATOM      5  C   UNL     1       3.700   7.448  17.414  0.00  0.00    +0.000 C 
ATOM      6  C   UNL     1       3.635   5.937  17.463  0.00  0.00    +0.000 C 
ATOM      7  C   UNL     1       3.408   5.602  18.951  0.00  0.00    +0.000 C 
ATOM      8  C   UNL     1       2.849   6.903  19.573  0.00  0.00    +0.000 C 
ATOM      9  H   UNL     1       1.751   9.195  20.257  0.00  0.00    +0.000 HD
ENDROOT
BRANCH   7  10
ATOM     10  C   UNL     1       2.500   4.398  19.106  0.00  0.00    +0.000 A 
ATOM     11  C   UNL     1       2.476   3.390  18.132  0.00  0.00    +0.000 A 
ATOM     12  C   UNL     1       1.586   2.320  18.241  0.00  0.00    +0.000 A 
ATOM     13  C   UNL     1       0.707   2.243  19.320  0.00  0.00    +0.000 A 
ATOM     14  C   UNL     1       0.727   3.232  20.301  0.00  0.00    +0.000 A 
ATOM     15  C   UNL     1       1.623   4.295  20.198  0.00  0.00    +0.000 A 
ENDBRANCH   7  10
BRANCH   1  19
ATOM     16  N   UNL     1      -0.178  11.917  21.218  0.00  0.00    +0.000 N 
ATOM     17  C   UNL     1       1.181  12.197  20.717  0.00  0.00    +0.000 C 
ATOM     18  C   UNL     1       1.106  11.728  19.273  0.00  0.00    +0.000 C 
ATOM     19  C   UNL     1       0.308  10.425  19.350  0.00  0.00    +0.000 C 
ATOM     20  C   UNL     1      -0.609  10.624  20.591  0.00  0.00    +0.000 C 
BRANCH  16  22
ATOM     21  N   UNL     1      -1.185  12.903  23.281  0.00  0.00    +0.000 NA
ATOM     22  C   UNL     1      -0.714  12.440  22.323  0.00  0.00    +0.000 C 
ENDBRANCH  16  22
ENDBRANCH   1  19
TORSDOF 3
ENDMDL
MODEL 7
REMARK VINA RESULT:      -6.3      2.485      3.555
REMARK  Name = 
REMARK  3 active torsions:
REMARK  status: ('A' for Active; 'I' for Inactive)
REMARK    1  A    between atoms: C_2  and  N_3
REMARK    2  A    between atoms: C_6  and  N_7
REMARK    3  A    between atoms: C_13  and  C_14
REMARK                            x       y       z     vdW  Elec       q    Type
REMARK                         _______ _______ _______ _____ _____    ______ ____
ROOT
ATOM      1  N   UNL     1       1.879   6.902  18.305  0.00  0.00    +0.000 N 
ATOM      2  C   UNL     1       2.494   8.097  18.032  0.00  0.00    +0.000 C 
ATOM      3  O   UNL     1       3.694   8.166  17.780  0.00  0.00    +0.000 OA
ATOM      4  N   UNL     1       1.674   9.200  18.078  0.00  0.00    +0.000 N 
ATOM      5  C   UNL     1       2.202  10.522  17.808  0.00  0.00    +0.000 C 
ATOM      6  C   UNL     1       1.503  11.411  18.815  0.00  0.00    +0.000 C 
ATOM      7  C   UNL     1       0.123  10.757  19.024  0.00  0.00    +0.000 C 
ATOM      8  C   UNL     1       0.296   9.296  18.547  0.00  0.00    +0.000 C 
ATOM      9  H   UNL     1       0.982   6.856  17.841  0.00  0.00    +0.000 HD
ENDROOT
BRANCH   7  10
ATOM     10  C   UNL     1      -0.331  10.892  20.465  0.00  0.00    +0.000 A 
ATOM     11  C   UNL     1       0.037   9.936  21.423  0.00  0.00    +0.000 A 
ATOM     12  C   UNL     1      -0.444  10.022  22.731  0.00  0.00    +0.000 A 
ATOM     13  C   UNL     1      -1.300  11.060  23.098  0.00  0.00    +0.000 A 
ATOM     14  C   UNL     1      -1.665  12.022  22.160  0.00  0.00    +0.000 A 
ATOM     15  C   UNL     1      -1.177  11.942  20.857  0.00  0.00    +0.000 A 
ENDBRANCH   7  10
BRANCH   1  19
ATOM     16  N   UNL     1       2.474   3.834  19.879  0.00  0.00    +0.000 N 
ATOM     17  C   UNL     1       1.282   3.828  19.010  0.00  0.00    +0.000 C 
ATOM     18  C   UNL     1       1.789   4.503  17.746  0.00  0.00    +0.000 C 
ATOM     19  C   UNL     1       2.653   5.654  18.263  0.00  0.00    +0.000 C 
ATOM     20  C   UNL     1       3.176   5.137  19.635  0.00  0.00    +0.000 C 
BRANCH  16  22
ATOM     21  N   UNL     1       2.773   2.417  21.915  0.00  0.00    +0.000 NA
ATOM     22  C   UNL     1       2.639   3.076  20.965  0.00  0.00    +0.000 C 
ENDBRANCH  16  22
ENDBRANCH   1  19
TORSDOF 3
ENDMDL
MODEL 8
REMARK VINA RESULT:      -6.3      2.455      3.636
REMARK  Name = 
REMARK  3 active torsions:
REMARK  status: ('A' for Active; 'I' for Inactive)
REMARK    1  A    between atoms: C_2  and  N_3
REMARK    2  A    between atoms: C_6  and  N_7
REMARK    3  A    between atoms: C_13  and  C_14
REMARK                            x       y       z     vdW  Elec       q    Type
REMARK                         _______ _______ _______ _____ _____    ______ ____
ROOT
ATOM      1  N   UNL     1       1.869   6.887  18.266  0.00  0.00    +0.000 N 
ATOM      2  C   UNL     1       2.492   8.089  18.036  0.00  0.00    +0.000 C 
ATOM      3  O   UNL     1       3.700   8.163  17.837  0.00  0.00    +0.000 OA
ATOM      4  N   UNL     1       1.666   9.189  18.064  0.00  0.00    +0.000 N 
ATOM      5  C   UNL     1       2.201  10.515  17.835  0.00  0.00    +0.000 C 
ATOM      6  C   UNL     1       1.457  11.388  18.824  0.00  0.00    +0.000 C 
ATOM      7  C   UNL     1       0.072  10.727  18.966  0.00  0.00    +0.000 C 
ATOM      8  C   UNL     1       0.269   9.274  18.475  0.00  0.00    +0.000 C 
ATOM      9  H   UNL     1       0.992   6.846  17.764  0.00  0.00    +0.000 HD
ENDROOT
BRANCH   7  10
ATOM     10  C   UNL     1      -0.443  10.840  20.387  0.00  0.00    +0.000 A 
ATOM     11  C   UNL     1      -1.220  11.939  20.781  0.00  0.00    +0.000 A 
ATOM     12  C   UNL     1      -1.629  12.078  22.109  0.00  0.00    +0.000 A 
ATOM     13  C   UNL     1      -1.267  11.125  23.060  0.00  0.00    +0.000 A 
ATOM     14  C   UNL     1      -0.506  10.023  22.680  0.00  0.00    +0.000 A 
ATOM     15  C   UNL     1      -0.105   9.878  21.353  0.00  0.00    +0.000 A 
ENDBRANCH   7  10
BRANCH   1  19
ATOM     16  N   UNL     1       2.462   3.833  19.866  0.00  0.00    +0.000 N 
ATOM     17  C   UNL     1       1.278   3.816  18.987  0.00  0.00    +0.000 C 
ATOM     18  C   UNL     1       1.792   4.484  17.723  0.00  0.00    +0.000 C 
ATOM     19  C   UNL     1       2.648   5.642  18.239  0.00  0.00    +0.000 C 
ATOM     20  C   UNL     1       3.162   5.137  19.619  0.00  0.00    +0.000 C 
BRANCH  16  22
ATOM     21  N   UNL     1       2.770   2.432  21.911  0.00  0.00    +0.000 NA
ATOM     22  C   UNL     1       2.621   3.083  20.958  0.00  0.00    +0.000 C 
ENDBRANCH  16  22
ENDBRANCH   1  19
TORSDOF 3
ENDMDL
MODEL 9
REMARK VINA RESULT:      -6.3      2.468      7.904
REMARK  Name = 
REMARK  3 active torsions:
REMARK  status: ('A' for Active; 'I' for Inactive)
REMARK    1  A    between atoms: C_2  and  N_3
REMARK    2  A    between atoms: C_6  and  N_7
REMARK    3  A    between atoms: C_13  and  C_14
REMARK                            x       y       z     vdW  Elec       q    Type
REMARK                         _______ _______ _______ _____ _____    ______ ____
ROOT
ATOM      1  N   UNL     1       1.450   8.935  19.815  0.00  0.00    +0.000 N 
ATOM      2  C   UNL     1       1.478   7.705  20.422  0.00  0.00    +0.000 C 
ATOM      3  O   UNL     1       1.024   7.529  21.549  0.00  0.00    +0.000 OA
ATOM      4  N   UNL     1       2.064   6.703  19.684  0.00  0.00    +0.000 N 
ATOM      5  C   UNL     1       2.155   5.357  20.212  0.00  0.00    +0.000 C 
ATOM      6  C   UNL     1       3.525   4.883  19.775  0.00  0.00    +0.000 C 
ATOM      7  C   UNL     1       3.779   5.599  18.434  0.00  0.00    +0.000 C 
ATOM      8  C   UNL     1       2.809   6.804  18.434  0.00  0.00    +0.000 C 
ATOM      9  H   UNL     1       1.193   8.840  18.842  0.00  0.00    +0.000 HD
ENDROOT
BRANCH   7  10
ATOM     10  C   UNL     1       5.240   5.975  18.285  0.00  0.00    +0.000 A 
ATOM     11  C   UNL     1       6.210   5.424  19.134  0.00  0.00    +0.000 A 
ATOM     12  C   UNL     1       7.543   5.828  19.044  0.00  0.00    +0.000 A 
ATOM     13  C   UNL     1       7.925   6.790  18.108  0.00  0.00    +0.000 A 
ATOM     14  C   UNL     1       6.974   7.337  17.252  0.00  0.00    +0.000 A 
ATOM     15  C   UNL     1       5.645   6.927  17.334  0.00  0.00    +0.000 A 
ENDBRANCH   7  10
BRANCH   1  19
ATOM     16  N   UNL     1       0.002  12.094  19.408  0.00  0.00    +0.000 N 
ATOM     17  C   UNL     1      -0.928  10.982  19.136  0.00  0.00    +0.000 C 
ATOM     18  C   UNL     1      -0.689  10.054  20.315  0.00  0.00    +0.000 C 
ATOM     19  C   UNL     1       0.829  10.076  20.502  0.00  0.00    +0.000 C 
ATOM     20  C   UNL     1       1.245  11.484  19.985  0.00  0.00    +0.000 C 
BRANCH  16  22
ATOM     21  N   UNL     1      -0.120  14.358  18.357  0.00  0.00    +0.000 NA
ATOM     22  C   UNL     1      -0.058  13.303  18.845  0.00  0.00    +0.000 C 
ENDBRANCH  16  22
ENDBRANCH   1  19
TORSDOF 3
ENDMDL
