MODEL 1
REMARK VINA RESULT:      -7.8      0.000      0.000
REMARK  Name = 
REMARK  7 active torsions:
REMARK  status: ('A' for Active; 'I' for Inactive)
REMARK    1  A    between atoms: C_1  and  O_2
REMARK    2  A    between atoms: O_2  and  C_3
REMARK    3  A    between atoms: C_3  and  C_5
REMARK    4  A    between atoms: C_8  and  N_9
REMARK    5  A    between atoms: C_15  and  N_16
REMARK    6  A    between atoms: N_16  and  S_17
REMARK    7  A    between atoms: S_17  and  C_20
REMARK                            x       y       z     vdW  Elec       q    Type
REMARK                         _______ _______ _______ _____ _____    ______ ____
ROOT
ATOM      1  C   UNL     1       5.799   5.436  17.020  0.00  0.00    +0.000 A 
ATOM      2  C   UNL     1       5.332   4.128  17.105  0.00  0.00    +0.000 A 
ATOM      3  C   UNL     1       4.193   3.834  17.869  0.00  0.00    +0.000 A 
ATOM      4  C   UNL     1       3.459   4.820  18.565  0.00  0.00    +0.000 A 
ATOM      5  C   UNL     1       3.928   6.153  18.388  0.00  0.00    +0.000 A 
ATOM      6  C   UNL     1       5.092   6.446  17.666  0.00  0.00    +0.000 A 
ENDROOT
BRANCH   4   7
ATOM      7  N   UNL     1       2.392   4.448  19.379  0.00  0.00    +0.000 N 
ATOM      8  C   UNL     1       2.293   4.806  20.798  0.00  0.00    +0.000 C 
ATOM      9  C   UNL     1       2.233   3.544  21.654  0.00  0.00    +0.000 C 
ATOM     10  C   UNL     1       1.101   2.626  21.216  0.00  0.00    +0.000 C 
ATOM     11  C   UNL     1       1.211   2.320  19.724  0.00  0.00    +0.000 C 
ATOM     12  C   UNL     1       1.277   3.612  18.902  0.00  0.00    +0.000 C 
ENDBRANCH   4   7
BRANCH   1  13
ATOM     13  C   UNL     1       7.039   5.706  16.249  0.00  0.00    +0.000 C 
ATOM     14  O   UNL     1       7.685   6.737  16.340  0.00  0.00    +0.000 OA
BRANCH  13  16
ATOM     15  C   UNL     1       6.861   4.801  14.100  0.00  0.00    +0.000 C 
ATOM     16  O   UNL     1       7.324   4.654  15.442  0.00  0.00    +0.000 OA
ENDBRANCH  13  16
ENDBRANCH   1  13
BRANCH   5  17
ATOM     17  N   UNL     1       3.286   7.287  18.957  0.00  0.00    +0.000 N 
ATOM     18  H   UNL     1       3.444   7.524  19.932  0.00  0.00    +0.000 HD
BRANCH  17  19
ATOM     19  S   UNL     1       2.135   8.154  18.119  0.00  0.00    +0.000 S 
ATOM     20  O   UNL     1       2.732   9.214  17.334  0.00  0.00    +0.000 OA
ATOM     21  O   UNL     1       1.245   7.180  17.528  0.00  0.00    +0.000 OA
BRANCH  19  22
ATOM     22  C   UNL     1       1.259   8.911  19.474  0.00  0.00    +0.000 A 
ATOM     23  C   UNL     1       1.404   8.399  20.772  0.00  0.00    +0.000 A 
ATOM     24  C   UNL     1       0.686   8.978  21.816  0.00  0.00    +0.000 A 
ATOM     25  C   UNL     1      -0.150  10.071  21.570  0.00  0.00    +0.000 A 
ATOM     26 BR   UNL     1      -1.119  10.847  22.995  0.00  0.00    +0.000 Br
ATOM     27  C   UNL     1      -0.273  10.597  20.283  0.00  0.00    +0.000 A 
ATOM     28  C   UNL     1       0.435  10.018  19.229  0.00  0.00    +0.000 A 
ENDBRANCH  19  22
ENDBRANCH  17  19
ENDBRANCH   5  17
TORSDOF 6
ENDMDL
MODEL 2
REMARK VINA RESULT:      -7.6      0.486      1.051
REMARK  Name = 
REMARK  7 active torsions:
REMARK  status: ('A' for Active; 'I' for Inactive)
REMARK    1  A    between atoms: C_1  and  O_2
REMARK    2  A    between atoms: O_2  and  C_3
REMARK    3  A    between atoms: C_3  and  C_5
REMARK    4  A    between atoms: C_8  and  N_9
REMARK    5  A    between atoms: C_15  and  N_16
REMARK    6  A    between atoms: N_16  and  S_17
REMARK    7  A    between atoms: S_17  and  C_20
REMARK                            x       y       z     vdW  Elec       q    Type
REMARK                         _______ _______ _______ _____ _____    ______ ____
ROOT
ATOM      1  C   UNL     1       5.337   5.554  16.707  0.00  0.00    +0.000 A 
ATOM      2  C   UNL     1       4.900   4.237  16.818  0.00  0.00    +0.000 A 
ATOM      3  C   UNL     1       3.853   3.913  17.693  0.00  0.00    +0.000 A 
ATOM      4  C   UNL     1       3.182   4.876  18.478  0.00  0.00    +0.000 A 
ATOM      5  C   UNL     1       3.610   6.219  18.276  0.00  0.00    +0.000 A 
ATOM      6  C   UNL     1       4.687   6.542  17.441  0.00  0.00    +0.000 A 
ENDROOT
BRANCH   4   7
ATOM      7  N   UNL     1       2.212   4.474  19.394  0.00  0.00    +0.000 N 
ATOM      8  C   UNL     1       2.191   4.910  20.794  0.00  0.00    +0.000 C 
ATOM      9  C   UNL     1       2.296   3.701  21.720  0.00  0.00    +0.000 C 
ATOM     10  C   UNL     1       1.212   2.675  21.424  0.00  0.00    +0.000 C 
ATOM     11  C   UNL     1       1.234   2.289  19.946  0.00  0.00    +0.000 C 
ATOM     12  C   UNL     1       1.135   3.529  19.053  0.00  0.00    +0.000 C 
ENDBRANCH   4   7
BRANCH   1  13
ATOM     13  C   UNL     1       6.485   5.856  15.815  0.00  0.00    +0.000 C 
ATOM     14  O   UNL     1       7.556   6.285  16.208  0.00  0.00    +0.000 OA
BRANCH  13  16
ATOM     15  C   UNL     1       6.647   4.349  14.034  0.00  0.00    +0.000 C 
ATOM     16  O   UNL     1       6.154   5.594  14.526  0.00  0.00    +0.000 OA
ENDBRANCH  13  16
ENDBRANCH   1  13
BRANCH   5  17
ATOM     17  N   UNL     1       3.015   7.334  18.928  0.00  0.00    +0.000 N 
ATOM     18  H   UNL     1       3.105   7.440  19.934  0.00  0.00    +0.000 HD
BRANCH  17  19
ATOM     19  S   UNL     1       2.017   8.394  18.115  0.00  0.00    +0.000 S 
ATOM     20  O   UNL     1       2.770   9.467  17.499  0.00  0.00    +0.000 OA
ATOM     21  O   UNL     1       1.093   7.581  17.358  0.00  0.00    +0.000 OA
BRANCH  19  22
ATOM     22  C   UNL     1       1.108   9.086  19.484  0.00  0.00    +0.000 A 
ATOM     23  C   UNL     1       0.131  10.064  19.249  0.00  0.00    +0.000 A 
ATOM     24  C   UNL     1      -0.547  10.621  20.331  0.00  0.00    +0.000 A 
ATOM     25  C   UNL     1      -0.267  10.190  21.631  0.00  0.00    +0.000 A 
ATOM     26 BR   UNL     1      -1.193  10.955  23.090  0.00  0.00    +0.000 Br
ATOM     27  C   UNL     1       0.687   9.198  21.861  0.00  0.00    +0.000 A 
ATOM     28  C   UNL     1       1.377   8.640  20.785  0.00  0.00    +0.000 A 
ENDBRANCH  19  22
ENDBRANCH  17  19
ENDBRANCH   5  17
TORSDOF 6
ENDMDL
MODEL 3
REMARK VINA RESULT:      -7.4      0.666      1.305
REMARK  Name = 
REMARK  7 active torsions:
REMARK  status: ('A' for Active; 'I' for Inactive)
REMARK    1  A    between atoms: C_1  and  O_2
REMARK    2  A    between atoms: O_2  and  C_3
REMARK    3  A    between atoms: C_3  and  C_5
REMARK    4  A    between atoms: C_8  and  N_9
REMARK    5  A    between atoms: C_15  and  N_16
REMARK    6  A    between atoms: N_16  and  S_17
REMARK    7  A    between atoms: S_17  and  C_20
REMARK                            x       y       z     vdW  Elec       q    Type
REMARK                         _______ _______ _______ _____ _____    ______ ____
ROOT
ATOM      1  C   UNL     1       5.358   5.032  16.672  0.00  0.00    +0.000 A 
ATOM      2  C   UNL     1       4.822   3.762  16.858  0.00  0.00    +0.000 A 
ATOM      3  C   UNL     1       3.774   3.564  17.769  0.00  0.00    +0.000 A 
ATOM      4  C   UNL     1       3.199   4.614  18.519  0.00  0.00    +0.000 A 
ATOM      5  C   UNL     1       3.726   5.908  18.240  0.00  0.00    +0.000 A 
ATOM      6  C   UNL     1       4.804   6.104  17.368  0.00  0.00    +0.000 A 
ENDROOT
BRANCH   4   7
ATOM      7  N   UNL     1       2.224   4.335  19.473  0.00  0.00    +0.000 N 
ATOM      8  C   UNL     1       2.320   4.754  20.875  0.00  0.00    +0.000 C 
ATOM      9  C   UNL     1       2.301   3.531  21.788  0.00  0.00    +0.000 C 
ATOM     10  C   UNL     1       1.077   2.662  21.533  0.00  0.00    +0.000 C 
ATOM     11  C   UNL     1       0.985   2.294  20.054  0.00  0.00    +0.000 C 
ATOM     12  C   UNL     1       1.016   3.547  19.173  0.00  0.00    +0.000 C 
ENDBRANCH   4   7
BRANCH   1  13
ATOM     13  C   UNL     1       6.503   5.199  15.742  0.00  0.00    +0.000 C 
ATOM     14  O   UNL     1       6.450   5.843  14.708  0.00  0.00    +0.000 OA
BRANCH  13  16
ATOM     15  C   UNL     1       7.771   4.630  17.623  0.00  0.00    +0.000 C 
ATOM     16  O   UNL     1       7.585   4.530  16.212  0.00  0.00    +0.000 OA
ENDBRANCH  13  16
ENDBRANCH   1  13
BRANCH   5  17
ATOM     17  N   UNL     1       3.235   7.097  18.847  0.00  0.00    +0.000 N 
ATOM     18  H   UNL     1       3.436   7.287  19.825  0.00  0.00    +0.000 HD
BRANCH  17  19
ATOM     19  S   UNL     1       2.186   8.118  18.051  0.00  0.00    +0.000 S 
ATOM     20  O   UNL     1       2.891   9.202  17.397  0.00  0.00    +0.000 OA
ATOM     21  O   UNL     1       1.262   7.270  17.332  0.00  0.00    +0.000 OA
BRANCH  19  22
ATOM     22  C   UNL     1       1.300   8.805  19.436  0.00  0.00    +0.000 A 
ATOM     23  C   UNL     1       0.415   9.874  19.237  0.00  0.00    +0.000 A 
ATOM     24  C   UNL     1      -0.245  10.424  20.335  0.00  0.00    +0.000 A 
ATOM     25  C   UNL     1      -0.039   9.897  21.612  0.00  0.00    +0.000 A 
ATOM     26 BR   UNL     1      -0.939  10.653  23.093  0.00  0.00    +0.000 Br
ATOM     27  C   UNL     1       0.822   8.816  21.806  0.00  0.00    +0.000 A 
ATOM     28  C   UNL     1       1.494   8.264  20.715  0.00  0.00    +0.000 A 
ENDBRANCH  19  22
ENDBRANCH  17  19
ENDBRANCH   5  17
TORSDOF 6
ENDMDL
MODEL 4
REMARK VINA RESULT:      -7.3      3.593      7.039
REMARK  Name = 
REMARK  7 active torsions:
REMARK  status: ('A' for Active; 'I' for Inactive)
REMARK    1  A    between atoms: C_1  and  O_2
REMARK    2  A    between atoms: O_2  and  C_3
REMARK    3  A    between atoms: C_3  and  C_5
REMARK    4  A    between atoms: C_8  and  N_9
REMARK    5  A    between atoms: C_15  and  N_16
REMARK    6  A    between atoms: N_16  and  S_17
REMARK    7  A    between atoms: S_17  and  C_20
REMARK                            x       y       z     vdW  Elec       q    Type
REMARK                         _______ _______ _______ _____ _____    ______ ____
ROOT
ATOM      1  C   UNL     1       1.751   7.969  19.715  0.00  0.00    +0.000 A 
ATOM      2  C   UNL     1       1.274   7.126  20.715  0.00  0.00    +0.000 A 
ATOM      3  C   UNL     1       1.521   5.747  20.651  0.00  0.00    +0.000 A 
ATOM      4  C   UNL     1       2.261   5.145  19.610  0.00  0.00    +0.000 A 
ATOM      5  C   UNL     1       2.794   6.053  18.651  0.00  0.00    +0.000 A 
ATOM      6  C   UNL     1       2.511   7.425  18.683  0.00  0.00    +0.000 A 
ENDROOT
BRANCH   4   7
ATOM      7  N   UNL     1       2.391   3.760  19.558  0.00  0.00    +0.000 N 
ATOM      8  C   UNL     1       3.326   3.002  20.396  0.00  0.00    +0.000 C 
ATOM      9  C   UNL     1       4.314   2.239  19.519  0.00  0.00    +0.000 C 
ATOM     10  C   UNL     1       3.598   1.349  18.514  0.00  0.00    +0.000 C 
ATOM     11  C   UNL     1       2.597   2.165  17.699  0.00  0.00    +0.000 C 
ATOM     12  C   UNL     1       1.630   2.921  18.616  0.00  0.00    +0.000 C 
ENDBRANCH   4   7
BRANCH   1  13
ATOM     13  C   UNL     1       1.426   9.416  19.782  0.00  0.00    +0.000 C 
ATOM     14  O   UNL     1       1.492  10.171  18.827  0.00  0.00    +0.000 OA
BRANCH  13  16
ATOM     15  C   UNL     1       0.382  11.003  21.147  0.00  0.00    +0.000 C 
ATOM     16  O   UNL     1       1.066   9.754  21.044  0.00  0.00    +0.000 OA
ENDBRANCH  13  16
ENDBRANCH   1  13
BRANCH   5  17
ATOM     17  N   UNL     1       3.617   5.647  17.564  0.00  0.00    +0.000 N 
ATOM     18  H   UNL     1       3.224   5.087  16.813  0.00  0.00    +0.000 HD
BRANCH  17  19
ATOM     19  S   UNL     1       5.262   5.913  17.565  0.00  0.00    +0.000 S 
ATOM     20  O   UNL     1       5.573   7.327  17.515  0.00  0.00    +0.000 OA
ATOM     21  O   UNL     1       5.812   5.050  18.585  0.00  0.00    +0.000 OA
BRANCH  19  22
ATOM     22  C   UNL     1       5.698   5.207  15.988  0.00  0.00    +0.000 A 
ATOM     23  C   UNL     1       4.750   4.463  15.270  0.00  0.00    +0.000 A 
ATOM     24  C   UNL     1       5.115   3.887  14.055  0.00  0.00    +0.000 A 
ATOM     25  C   UNL     1       6.407   4.070  13.553  0.00  0.00    +0.000 A 
ATOM     26 BR   UNL     1       6.890   3.282  11.904  0.00  0.00    +0.000 Br
ATOM     27  C   UNL     1       7.342   4.832  14.255  0.00  0.00    +0.000 A 
ATOM     28  C   UNL     1       6.988   5.406  15.477  0.00  0.00    +0.000 A 
ENDBRANCH  19  22
ENDBRANCH  17  19
ENDBRANCH   5  17
TORSDOF 6
ENDMDL
MODEL 5
REMARK VINA RESULT:      -7.3      0.807      1.584
REMARK  Name = 
REMARK  7 active torsions:
REMARK  status: ('A' for Active; 'I' for Inactive)
REMARK    1  A    between atoms: C_1  and  O_2
REMARK    2  A    between atoms: O_2  and  C_3
REMARK    3  A    between atoms: C_3  and  C_5
REMARK    4  A    between atoms: C_8  and  N_9
REMARK    5  A    between atoms: C_15  and  N_16
REMARK    6  A    between atoms: N_16  and  S_17
REMARK    7  A    between atoms: S_17  and  C_20
REMARK                            x       y       z     vdW  Elec       q    Type
REMARK                         _______ _______ _______ _____ _____    ______ ____
ROOT
ATOM      1  C   UNL     1       5.576   6.049  17.154  0.00  0.00    +0.000 A 
ATOM      2  C   UNL     1       5.245   4.698  17.156  0.00  0.00    +0.000 A 
ATOM      3  C   UNL     1       4.123   4.248  17.868  0.00  0.00    +0.000 A 
ATOM      4  C   UNL     1       3.273   5.114  18.591  0.00  0.00    +0.000 A 
ATOM      5  C   UNL     1       3.605   6.495  18.498  0.00  0.00    +0.000 A 
ATOM      6  C   UNL     1       4.751   6.945  17.829  0.00  0.00    +0.000 A 
ENDROOT
BRANCH   4   7
ATOM      7  N   UNL     1       2.230   4.591  19.351  0.00  0.00    +0.000 N 
ATOM      8  C   UNL     1       2.048   4.872  20.779  0.00  0.00    +0.000 C 
ATOM      9  C   UNL     1       2.103   3.574  21.579  0.00  0.00    +0.000 C 
ATOM     10  C   UNL     1       1.094   2.557  21.064  0.00  0.00    +0.000 C 
ATOM     11  C   UNL     1       1.283   2.333  19.566  0.00  0.00    +0.000 C 
ATOM     12  C   UNL     1       1.230   3.659  18.800  0.00  0.00    +0.000 C 
ENDBRANCH   4   7
BRANCH   1  13
ATOM     13  C   UNL     1       6.801   6.487  16.437  0.00  0.00    +0.000 C 
ATOM     14  O   UNL     1       7.434   5.773  15.677  0.00  0.00    +0.000 OA
BRANCH  13  16
ATOM     15  C   UNL     1       8.034   7.903  17.830  0.00  0.00    +0.000 C 
ATOM     16  O   UNL     1       7.097   7.769  16.762  0.00  0.00    +0.000 OA
ENDBRANCH  13  16
ENDBRANCH   1  13
BRANCH   5  17
ATOM     17  N   UNL     1       2.835   7.526  19.104  0.00  0.00    +0.000 N 
ATOM     18  H   UNL     1       2.752   7.568  20.115  0.00  0.00    +0.000 HD
BRANCH  17  19
ATOM     19  S   UNL     1       1.910   8.575  18.198  0.00  0.00    +0.000 S 
ATOM     20  O   UNL     1       2.726   9.585  17.555  0.00  0.00    +0.000 OA
ATOM     21  O   UNL     1       0.983   7.757  17.450  0.00  0.00    +0.000 OA
BRANCH  19  22
ATOM     22  C   UNL     1       0.979   9.374  19.491  0.00  0.00    +0.000 A 
ATOM     23  C   UNL     1       0.262  10.547  19.213  0.00  0.00    +0.000 A 
ATOM     24  C   UNL     1      -0.432  11.180  20.241  0.00  0.00    +0.000 A 
ATOM     25  C   UNL     1      -0.428  10.635  21.528  0.00  0.00    +0.000 A 
ATOM     26 BR   UNL     1      -1.374  11.505  22.915  0.00  0.00    +0.000 Br
ATOM     27  C   UNL     1       0.264   9.454  21.799  0.00  0.00    +0.000 A 
ATOM     28  C   UNL     1       0.970   8.817  20.778  0.00  0.00    +0.000 A 
ENDBRANCH  19  22
ENDBRANCH  17  19
ENDBRANCH   5  17
TORSDOF 6
ENDMDL
MODEL 6
REMARK VINA RESULT:      -7.3      0.618      1.019
REMARK  Name = 
REMARK  7 active torsions:
REMARK  status: ('A' for Active; 'I' for Inactive)
REMARK    1  A    between atoms: C_1  and  O_2
REMARK    2  A    between atoms: O_2  and  C_3
REMARK    3  A    between atoms: C_3  and  C_5
REMARK    4  A    between atoms: C_8  and  N_9
REMARK    5  A    between atoms: C_15  and  N_16
REMARK    6  A    between atoms: N_16  and  S_17
REMARK    7  A    between atoms: S_17  and  C_20
REMARK                            x       y       z     vdW  Elec       q    Type
REMARK                         _______ _______ _______ _____ _____    ______ ____
ROOT
ATOM      1  C   UNL     1       5.288   5.475  16.706  0.00  0.00    +0.000 A 
ATOM      2  C   UNL     1       4.848   4.163  16.853  0.00  0.00    +0.000 A 
ATOM      3  C   UNL     1       3.818   3.862  17.757  0.00  0.00    +0.000 A 
ATOM      4  C   UNL     1       3.169   4.843  18.537  0.00  0.00    +0.000 A 
ATOM      5  C   UNL     1       3.597   6.180  18.298  0.00  0.00    +0.000 A 
ATOM      6  C   UNL     1       4.658   6.481  17.433  0.00  0.00    +0.000 A 
ENDROOT
BRANCH   4   7
ATOM      7  N   UNL     1       2.217   4.465  19.482  0.00  0.00    +0.000 N 
ATOM      8  C   UNL     1       2.300   4.820  20.902  0.00  0.00    +0.000 C 
ATOM      9  C   UNL     1       2.357   3.557  21.756  0.00  0.00    +0.000 C 
ATOM     10  C   UNL     1       1.183   2.633  21.466  0.00  0.00    +0.000 C 
ATOM     11  C   UNL     1       1.100   2.331  19.971  0.00  0.00    +0.000 C 
ATOM     12  C   UNL     1       1.054   3.624  19.150  0.00  0.00    +0.000 C 
ENDBRANCH   4   7
BRANCH   1  13
ATOM     13  C   UNL     1       6.417   5.753  15.783  0.00  0.00    +0.000 C 
ATOM     14  O   UNL     1       6.320   5.734  14.567  0.00  0.00    +0.000 OA
BRANCH  13  16
ATOM     15  C   UNL     1       7.501   7.233  17.234  0.00  0.00    +0.000 C 
ATOM     16  O   UNL     1       7.543   6.016  16.491  0.00  0.00    +0.000 OA
ENDBRANCH  13  16
ENDBRANCH   1  13
BRANCH   5  17
ATOM     17  N   UNL     1       3.022   7.311  18.940  0.00  0.00    +0.000 N 
ATOM     18  H   UNL     1       3.125   7.431  19.943  0.00  0.00    +0.000 HD
BRANCH  17  19
ATOM     19  S   UNL     1       2.024   8.367  18.124  0.00  0.00    +0.000 S 
ATOM     20  O   UNL     1       2.780   9.415  17.469  0.00  0.00    +0.000 OA
ATOM     21  O   UNL     1       1.073   7.552  17.403  0.00  0.00    +0.000 OA
BRANCH  19  22
ATOM     22  C   UNL     1       1.153   9.103  19.494  0.00  0.00    +0.000 A 
ATOM     23  C   UNL     1       1.250   8.531  20.771  0.00  0.00    +0.000 A 
ATOM     24  C   UNL     1       0.535   9.096  21.825  0.00  0.00    +0.000 A 
ATOM     25  C   UNL     1      -0.249  10.233  21.610  0.00  0.00    +0.000 A 
ATOM     26 BR   UNL     1      -1.214  10.989  23.049  0.00  0.00    +0.000 Br
ATOM     27  C   UNL     1      -0.324  10.817  20.345  0.00  0.00    +0.000 A 
ATOM     28  C   UNL     1       0.381  10.253  19.281  0.00  0.00    +0.000 A 
ENDBRANCH  19  22
ENDBRANCH  17  19
ENDBRANCH   5  17
TORSDOF 6
ENDMDL
MODEL 7
REMARK VINA RESULT:      -7.2      2.200      4.824
REMARK  Name = 
REMARK  7 active torsions:
REMARK  status: ('A' for Active; 'I' for Inactive)
REMARK    1  A    between atoms: C_1  and  O_2
REMARK    2  A    between atoms: O_2  and  C_3
REMARK    3  A    between atoms: C_3  and  C_5
REMARK    4  A    between atoms: C_8  and  N_9
REMARK    5  A    between atoms: C_15  and  N_16
REMARK    6  A    between atoms: N_16  and  S_17
REMARK    7  A    between atoms: S_17  and  C_20
REMARK                            x       y       z     vdW  Elec       q    Type
REMARK                         _______ _______ _______ _____ _____    ______ ____
ROOT
ATOM      1  C   UNL     1       2.664   3.294  20.561  0.00  0.00    +0.000 A 
ATOM      2  C   UNL     1       3.720   2.461  20.204  0.00  0.00    +0.000 A 
ATOM      3  C   UNL     1       4.820   2.978  19.503  0.00  0.00    +0.000 A 
ATOM      4  C   UNL     1       4.930   4.339  19.142  0.00  0.00    +0.000 A 
ATOM      5  C   UNL     1       3.864   5.168  19.593  0.00  0.00    +0.000 A 
ATOM      6  C   UNL     1       2.741   4.649  20.251  0.00  0.00    +0.000 A 
ENDROOT
BRANCH   4   7
ATOM      7  N   UNL     1       6.004   4.768  18.366  0.00  0.00    +0.000 N 
ATOM      8  C   UNL     1       7.238   5.325  18.930  0.00  0.00    +0.000 C 
ATOM      9  C   UNL     1       7.449   6.749  18.423  0.00  0.00    +0.000 C 
ATOM     10  C   UNL     1       7.438   6.808  16.903  0.00  0.00    +0.000 C 
ATOM     11  C   UNL     1       6.163   6.171  16.355  0.00  0.00    +0.000 C 
ATOM     12  C   UNL     1       5.985   4.748  16.893  0.00  0.00    +0.000 C 
ENDBRANCH   4   7
BRANCH   1  13
ATOM     13  C   UNL     1       1.489   2.706  21.254  0.00  0.00    +0.000 C 
ATOM     14  O   UNL     1       1.535   2.213  22.368  0.00  0.00    +0.000 OA
BRANCH  13  16
ATOM     15  C   UNL     1       0.580   2.309  19.136  0.00  0.00    +0.000 C 
ATOM     16  O   UNL     1       0.391   2.795  20.464  0.00  0.00    +0.000 OA
ENDBRANCH  13  16
ENDBRANCH   1  13
BRANCH   5  17
ATOM     17  N   UNL     1       3.825   6.573  19.382  0.00  0.00    +0.000 N 
ATOM     18  H   UNL     1       4.368   7.191  19.979  0.00  0.00    +0.000 HD
BRANCH  17  19
ATOM     19  S   UNL     1       2.774   7.266  18.290  0.00  0.00    +0.000 S 
ATOM     20  O   UNL     1       3.469   8.123  17.352  0.00  0.00    +0.000 OA
ATOM     21  O   UNL     1       1.895   6.208  17.846  0.00  0.00    +0.000 OA
BRANCH  19  22
ATOM     22  C   UNL     1       1.828   8.312  19.381  0.00  0.00    +0.000 A 
ATOM     23  C   UNL     1       1.638   7.935  20.718  0.00  0.00    +0.000 A 
ATOM     24  C   UNL     1       0.867   8.745  21.550  0.00  0.00    +0.000 A 
ATOM     25  C   UNL     1       0.310   9.927  21.057  0.00  0.00    +0.000 A 
ATOM     26 BR   UNL     1      -0.735  11.016  22.195  0.00  0.00    +0.000 Br
ATOM     27  C   UNL     1       0.521  10.315  19.733  0.00  0.00    +0.000 A 
ATOM     28  C   UNL     1       1.285   9.507  18.889  0.00  0.00    +0.000 A 
ENDBRANCH  19  22
ENDBRANCH  17  19
ENDBRANCH   5  17
TORSDOF 6
ENDMDL
MODEL 8
REMARK VINA RESULT:      -7.2      2.039      4.789
REMARK  Name = 
REMARK  7 active torsions:
REMARK  status: ('A' for Active; 'I' for Inactive)
REMARK    1  A    between atoms: C_1  and  O_2
REMARK    2  A    between atoms: O_2  and  C_3
REMARK    3  A    between atoms: C_3  and  C_5
REMARK    4  A    between atoms: C_8  and  N_9
REMARK    5  A    between atoms: C_15  and  N_16
REMARK    6  A    between atoms: N_16  and  S_17
REMARK    7  A    between atoms: S_17  and  C_20
REMARK                            x       y       z     vdW  Elec       q    Type
REMARK                         _______ _______ _______ _____ _____    ______ ____
ROOT
ATOM      1  C   UNL     1       2.969   3.527  20.338  0.00  0.00    +0.000 A 
ATOM      2  C   UNL     1       3.901   2.772  19.633  0.00  0.00    +0.000 A 
ATOM      3  C   UNL     1       4.735   3.386  18.686  0.00  0.00    +0.000 A 
ATOM      4  C   UNL     1       4.696   4.770  18.410  0.00  0.00    +0.000 A 
ATOM      5  C   UNL     1       3.782   5.515  19.208  0.00  0.00    +0.000 A 
ATOM      6  C   UNL     1       2.913   4.901  20.120  0.00  0.00    +0.000 A 
ENDROOT
BRANCH   4   7
ATOM      7  N   UNL     1       5.487   5.299  17.393  0.00  0.00    +0.000 N 
ATOM      8  C   UNL     1       4.950   5.774  16.114  0.00  0.00    +0.000 C 
ATOM      9  C   UNL     1       5.559   4.978  14.963  0.00  0.00    +0.000 C 
ATOM     10  C   UNL     1       7.080   5.023  14.996  0.00  0.00    +0.000 C 
ATOM     11  C   UNL     1       7.596   4.573  16.361  0.00  0.00    +0.000 C 
ATOM     12  C   UNL     1       6.954   5.389  17.488  0.00  0.00    +0.000 C 
ENDBRANCH   4   7
BRANCH   1  13
ATOM     13  C   UNL     1       2.063   2.840  21.292  0.00  0.00    +0.000 C 
ATOM     14  O   UNL     1       2.440   2.308  22.323  0.00  0.00    +0.000 OA
BRANCH  13  16
ATOM     15  C   UNL     1       0.627   2.483  19.481  0.00  0.00    +0.000 C 
ATOM     16  O   UNL     1       0.786   2.889  20.840  0.00  0.00    +0.000 OA
ENDBRANCH  13  16
ENDBRANCH   1  13
BRANCH   5  17
ATOM     17  N   UNL     1       3.642   6.928  19.121  0.00  0.00    +0.000 N 
ATOM     18  H   UNL     1       4.212   7.530  19.708  0.00  0.00    +0.000 HD
BRANCH  17  19
ATOM     19  S   UNL     1       2.440   7.634  18.207  0.00  0.00    +0.000 S 
ATOM     20  O   UNL     1       2.978   8.615  17.287  0.00  0.00    +0.000 OA
ATOM     21  O   UNL     1       1.586   6.558  17.758  0.00  0.00    +0.000 OA
BRANCH  19  22
ATOM     22  C   UNL     1       1.552   8.514  19.478  0.00  0.00    +0.000 A 
ATOM     23  C   UNL     1       1.539   8.020  20.790  0.00  0.00    +0.000 A 
ATOM     24  C   UNL     1       0.811   8.699  21.766  0.00  0.00    +0.000 A 
ATOM     25  C   UNL     1       0.123   9.870  21.438  0.00  0.00    +0.000 A 
ATOM     26 BR   UNL     1      -0.861  10.781  22.770  0.00  0.00    +0.000 Br
ATOM     27  C   UNL     1       0.158  10.376  20.138  0.00  0.00    +0.000 A 
ATOM     28  C   UNL     1       0.877   9.698  19.152  0.00  0.00    +0.000 A 
ENDBRANCH  19  22
ENDBRANCH  17  19
ENDBRANCH   5  17
TORSDOF 6
ENDMDL
MODEL 9
REMARK VINA RESULT:      -7.2      1.102      1.902
REMARK  Name = 
REMARK  7 active torsions:
REMARK  status: ('A' for Active; 'I' for Inactive)
REMARK    1  A    between atoms: C_1  and  O_2
REMARK    2  A    between atoms: O_2  and  C_3
REMARK    3  A    between atoms: C_3  and  C_5
REMARK    4  A    between atoms: C_8  and  N_9
REMARK    5  A    between atoms: C_15  and  N_16
REMARK    6  A    between atoms: N_16  and  S_17
REMARK    7  A    between atoms: S_17  and  C_20
REMARK                            x       y       z     vdW  Elec       q    Type
REMARK                         _______ _______ _______ _____ _____    ______ ____
ROOT
ATOM      1  C   UNL     1       6.205   5.867  17.641  0.00  0.00    +0.000 A 
ATOM      2  C   UNL     1       6.153   4.483  17.502  0.00  0.00    +0.000 A 
ATOM      3  C   UNL     1       5.057   3.765  18.003  0.00  0.00    +0.000 A 
ATOM      4  C   UNL     1       3.962   4.383  18.645  0.00  0.00    +0.000 A 
ATOM      5  C   UNL     1       4.021   5.805  18.697  0.00  0.00    +0.000 A 
ATOM      6  C   UNL     1       5.134   6.523  18.242  0.00  0.00    +0.000 A 
ENDROOT
BRANCH   4   7
ATOM      7  N   UNL     1       2.950   3.603  19.200  0.00  0.00    +0.000 N 
ATOM      8  C   UNL     1       1.522   3.888  19.029  0.00  0.00    +0.000 C 
ATOM      9  C   UNL     1       0.869   4.125  20.388  0.00  0.00    +0.000 C 
ATOM     10  C   UNL     1       1.110   2.957  21.334  0.00  0.00    +0.000 C 
ATOM     11  C   UNL     1       2.603   2.659  21.443  0.00  0.00    +0.000 C 
ATOM     12  C   UNL     1       3.221   2.437  20.058  0.00  0.00    +0.000 C 
ENDBRANCH   4   7
BRANCH   1  13
ATOM     13  C   UNL     1       7.404   6.593  17.150  0.00  0.00    +0.000 C 
ATOM     14  O   UNL     1       7.840   6.493  16.016  0.00  0.00    +0.000 OA
BRANCH  13  16
ATOM     15  C   UNL     1       8.091   8.731  17.802  0.00  0.00    +0.000 C 
ATOM     16  O   UNL     1       7.925   7.356  18.142  0.00  0.00    +0.000 OA
ENDBRANCH  13  16
ENDBRANCH   1  13
BRANCH   5  17
ATOM     17  N   UNL     1       2.986   6.609  19.248  0.00  0.00    +0.000 N 
ATOM     18  H   UNL     1       2.613   6.395  20.168  0.00  0.00    +0.000 HD
BRANCH  17  19
ATOM     19  S   UNL     1       2.233   7.799  18.355  0.00  0.00    +0.000 S 
ATOM     20  O   UNL     1       3.188   8.746  17.818  0.00  0.00    +0.000 OA
ATOM     21  O   UNL     1       1.273   7.126  17.511  0.00  0.00    +0.000 OA
BRANCH  19  22
ATOM     22  C   UNL     1       1.315   8.626  19.640  0.00  0.00    +0.000 A 
ATOM     23  C   UNL     1       0.542   9.754  19.330  0.00  0.00    +0.000 A 
ATOM     24  C   UNL     1      -0.143  10.411  20.350  0.00  0.00    +0.000 A 
ATOM     25  C   UNL     1      -0.073   9.933  21.661  0.00  0.00    +0.000 A 
ATOM     26 BR   UNL     1      -1.005  10.834  23.037  0.00  0.00    +0.000 Br
ATOM     27  C   UNL     1       0.675   8.795  21.965  0.00  0.00    +0.000 A 
ATOM     28  C   UNL     1       1.371   8.135  20.952  0.00  0.00    +0.000 A 
ENDBRANCH  19  22
ENDBRANCH  17  19
ENDBRANCH   5  17
TORSDOF 6
ENDMDL
