MODEL 1
REMARK VINA RESULT:      -7.4      0.000      0.000
REMARK  Name = 
REMARK  2 active torsions:
REMARK  status: ('A' for Active; 'I' for Inactive)
REMARK    1  A    between atoms: N_10  and  C_11
REMARK    2  A    between atoms: C_11  and  C_12
REMARK                            x       y       z     vdW  Elec       q    Type
REMARK                         _______ _______ _______ _____ _____    ______ ____
ROOT
ATOM      1  O   UNL     1       5.217   2.641  19.940  0.00  0.00    +0.000 OA
ATOM      2  C   UNL     1       4.049   2.837  19.647  0.00  0.00    +0.000 C 
ATOM      3  C   UNL     1       2.897   2.784  20.518  0.00  0.00    +0.000 A 
ATOM      4  N   UNL     1       2.579   2.547  21.817  0.00  0.00    +0.000 NA
ATOM      5  C   UNL     1       1.269   2.743  21.860  0.00  0.00    +0.000 A 
ATOM      6  N   UNL     1       0.746   3.110  20.634  0.00  0.00    +0.000 N 
ATOM      7  C   UNL     1       1.800   3.136  19.794  0.00  0.00    +0.000 A 
ATOM      8  C   UNL     1       2.153   3.431  18.454  0.00  0.00    +0.000 C 
ATOM      9  O   UNL     1       1.414   3.828  17.570  0.00  0.00    +0.000 OA
ATOM     10  N   UNL     1       3.522   3.231  18.423  0.00  0.00    +0.000 N 
ATOM     11  H   UNL     1      -0.221   3.325  20.425  0.00  0.00    +0.000 HD
ENDROOT
BRANCH  10  12
ATOM     12  C   UNL     1       4.318   3.400  17.233  0.00  0.00    +0.000 C 
BRANCH  12  13
ATOM     13  C   UNL     1       5.204   4.631  17.259  0.00  0.00    +0.000 A 
ATOM     14  C   UNL     1       4.621   5.885  17.066  0.00  0.00    +0.000 A 
ATOM     15  C   UNL     1       5.436   7.013  17.048  0.00  0.00    +0.000 A 
ATOM     16  C   UNL     1       6.805   6.868  17.232  0.00  0.00    +0.000 A 
ATOM     17  C   UNL     1       7.304   5.592  17.433  0.00  0.00    +0.000 A 
ATOM     18  N   UNL     1       6.540   4.477  17.449  0.00  0.00    +0.000 NA
ENDBRANCH  12  13
ENDBRANCH  10  12
TORSDOF 2
ENDMDL
MODEL 2
REMARK VINA RESULT:      -7.4      0.709      1.165
REMARK  Name = 
REMARK  2 active torsions:
REMARK  status: ('A' for Active; 'I' for Inactive)
REMARK    1  A    between atoms: N_10  and  C_11
REMARK    2  A    between atoms: C_11  and  C_12
REMARK                            x       y       z     vdW  Elec       q    Type
REMARK                         _______ _______ _______ _____ _____    ______ ____
ROOT
ATOM      1  O   UNL     1       5.229   2.742  19.918  0.00  0.00    +0.000 OA
ATOM      2  C   UNL     1       4.051   2.884  19.630  0.00  0.00    +0.000 C 
ATOM      3  C   UNL     1       2.908   2.811  20.512  0.00  0.00    +0.000 A 
ATOM      4  N   UNL     1       2.610   2.598  21.819  0.00  0.00    +0.000 NA
ATOM      5  C   UNL     1       1.294   2.744  21.868  0.00  0.00    +0.000 A 
ATOM      6  N   UNL     1       0.748   3.056  20.637  0.00  0.00    +0.000 N 
ATOM      7  C   UNL     1       1.794   3.100  19.788  0.00  0.00    +0.000 A 
ATOM      8  C   UNL     1       2.125   3.370  18.437  0.00  0.00    +0.000 C 
ATOM      9  O   UNL     1       1.364   3.714  17.549  0.00  0.00    +0.000 OA
ATOM     10  N   UNL     1       3.500   3.223  18.400  0.00  0.00    +0.000 N 
ATOM     11  H   UNL     1      -0.229   3.228  20.430  0.00  0.00    +0.000 HD
ENDROOT
BRANCH  10  12
ATOM     12  C   UNL     1       4.281   3.389  17.199  0.00  0.00    +0.000 C 
BRANCH  12  13
ATOM     13  C   UNL     1       5.078   4.679  17.161  0.00  0.00    +0.000 A 
ATOM     14  C   UNL     1       6.472   4.610  17.160  0.00  0.00    +0.000 A 
ATOM     15  C   UNL     1       7.207   5.792  17.168  0.00  0.00    +0.000 A 
ATOM     16  C   UNL     1       6.539   7.010  17.167  0.00  0.00    +0.000 A 
ATOM     17  C   UNL     1       5.154   6.994  17.151  0.00  0.00    +0.000 A 
ATOM     18  N   UNL     1       4.413   5.863  17.151  0.00  0.00    +0.000 NA
ENDBRANCH  12  13
ENDBRANCH  10  12
TORSDOF 2
ENDMDL
MODEL 3
REMARK VINA RESULT:      -7.2      0.958      2.165
REMARK  Name = 
REMARK  2 active torsions:
REMARK  status: ('A' for Active; 'I' for Inactive)
REMARK    1  A    between atoms: N_10  and  C_11
REMARK    2  A    between atoms: C_11  and  C_12
REMARK                            x       y       z     vdW  Elec       q    Type
REMARK                         _______ _______ _______ _____ _____    ______ ____
ROOT
ATOM      1  O   UNL     1       2.311   4.922  17.877  0.00  0.00    +0.000 OA
ATOM      2  C   UNL     1       2.806   4.195  18.723  0.00  0.00    +0.000 C 
ATOM      3  C   UNL     1       2.207   3.731  19.954  0.00  0.00    +0.000 A 
ATOM      4  N   UNL     1       1.048   3.833  20.654  0.00  0.00    +0.000 NA
ATOM      5  C   UNL     1       1.248   3.050  21.705  0.00  0.00    +0.000 A 
ATOM      6  N   UNL     1       2.490   2.444  21.688  0.00  0.00    +0.000 N 
ATOM      7  C   UNL     1       3.083   2.886  20.561  0.00  0.00    +0.000 A 
ATOM      8  C   UNL     1       4.267   2.749  19.795  0.00  0.00    +0.000 C 
ATOM      9  O   UNL     1       5.218   2.026  20.035  0.00  0.00    +0.000 OA
ATOM     10  N   UNL     1       4.044   3.563  18.698  0.00  0.00    +0.000 N 
ATOM     11  H   UNL     1       2.861   1.797  22.373  0.00  0.00    +0.000 HD
ENDROOT
BRANCH  10  12
ATOM     12  C   UNL     1       5.009   3.749  17.643  0.00  0.00    +0.000 C 
BRANCH  12  13
ATOM     13  C   UNL     1       5.980   4.888  17.897  0.00  0.00    +0.000 A 
ATOM     14  C   UNL     1       5.880   6.044  17.121  0.00  0.00    +0.000 A 
ATOM     15  C   UNL     1       6.794   7.074  17.322  0.00  0.00    +0.000 A 
ATOM     16  C   UNL     1       7.776   6.931  18.294  0.00  0.00    +0.000 A 
ATOM     17  C   UNL     1       7.799   5.761  19.033  0.00  0.00    +0.000 A 
ATOM     18  N   UNL     1       6.929   4.740  18.856  0.00  0.00    +0.000 NA
ENDBRANCH  12  13
ENDBRANCH  10  12
TORSDOF 2
ENDMDL
MODEL 4
REMARK VINA RESULT:      -7.1      2.236      5.715
REMARK  Name = 
REMARK  2 active torsions:
REMARK  status: ('A' for Active; 'I' for Inactive)
REMARK    1  A    between atoms: N_10  and  C_11
REMARK    2  A    between atoms: C_11  and  C_12
REMARK                            x       y       z     vdW  Elec       q    Type
REMARK                         _______ _______ _______ _____ _____    ______ ____
ROOT
ATOM      1  O   UNL     1       5.287   6.519  15.254  0.00  0.00    +0.000 OA
ATOM      2  C   UNL     1       5.786   6.082  16.278  0.00  0.00    +0.000 C 
ATOM      3  C   UNL     1       6.788   6.708  17.112  0.00  0.00    +0.000 A 
ATOM      4  N   UNL     1       7.526   7.845  17.183  0.00  0.00    +0.000 NA
ATOM      5  C   UNL     1       8.208   7.705  18.311  0.00  0.00    +0.000 A 
ATOM      6  N   UNL     1       7.917   6.523  18.966  0.00  0.00    +0.000 N 
ATOM      7  C   UNL     1       7.005   5.905  18.189  0.00  0.00    +0.000 A 
ATOM      8  C   UNL     1       6.192   4.747  18.128  0.00  0.00    +0.000 C 
ATOM      9  O   UNL     1       6.109   3.862  18.962  0.00  0.00    +0.000 OA
ATOM     10  N   UNL     1       5.479   4.907  16.953  0.00  0.00    +0.000 N 
ATOM     11  H   UNL     1       8.300   6.204  19.847  0.00  0.00    +0.000 HD
ENDROOT
BRANCH  10  12
ATOM     12  C   UNL     1       4.524   3.940  16.469  0.00  0.00    +0.000 C 
BRANCH  12  13
ATOM     13  C   UNL     1       3.375   3.685  17.427  0.00  0.00    +0.000 A 
ATOM     14  C   UNL     1       2.607   4.766  17.862  0.00  0.00    +0.000 A 
ATOM     15  C   UNL     1       1.578   4.542  18.772  0.00  0.00    +0.000 A 
ATOM     16  C   UNL     1       1.334   3.249  19.218  0.00  0.00    +0.000 A 
ATOM     17  C   UNL     1       2.130   2.228  18.727  0.00  0.00    +0.000 A 
ATOM     18  N   UNL     1       3.140   2.415  17.848  0.00  0.00    +0.000 NA
ENDBRANCH  12  13
ENDBRANCH  10  12
TORSDOF 2
ENDMDL
MODEL 5
REMARK VINA RESULT:      -7.0      2.027      5.867
REMARK  Name = 
REMARK  2 active torsions:
REMARK  status: ('A' for Active; 'I' for Inactive)
REMARK    1  A    between atoms: N_10  and  C_11
REMARK    2  A    between atoms: C_11  and  C_12
REMARK                            x       y       z     vdW  Elec       q    Type
REMARK                         _______ _______ _______ _____ _____    ______ ____
ROOT
ATOM      1  O   UNL     1       3.857   7.284  17.007  0.00  0.00    +0.000 OA
ATOM      2  C   UNL     1       4.534   6.306  17.280  0.00  0.00    +0.000 C 
ATOM      3  C   UNL     1       5.580   5.702  16.484  0.00  0.00    +0.000 A 
ATOM      4  N   UNL     1       6.214   5.866  15.295  0.00  0.00    +0.000 NA
ATOM      5  C   UNL     1       7.130   4.909  15.294  0.00  0.00    +0.000 A 
ATOM      6  N   UNL     1       7.108   4.150  16.450  0.00  0.00    +0.000 N 
ATOM      7  C   UNL     1       6.117   4.676  17.197  0.00  0.00    +0.000 A 
ATOM      8  C   UNL     1       5.481   4.547  18.456  0.00  0.00    +0.000 C 
ATOM      9  O   UNL     1       5.764   3.765  19.347  0.00  0.00    +0.000 OA
ATOM     10  N   UNL     1       4.533   5.556  18.450  0.00  0.00    +0.000 N 
ATOM     11  H   UNL     1       7.718   3.377  16.682  0.00  0.00    +0.000 HD
ENDROOT
BRANCH  10  12
ATOM     12  C   UNL     1       3.623   5.793  19.543  0.00  0.00    +0.000 C 
BRANCH  12  13
ATOM     13  C   UNL     1       2.565   4.716  19.702  0.00  0.00    +0.000 A 
ATOM     14  C   UNL     1       2.257   4.258  20.984  0.00  0.00    +0.000 A 
ATOM     15  C   UNL     1       1.318   3.242  21.131  0.00  0.00    +0.000 A 
ATOM     16  C   UNL     1       0.704   2.714  20.002  0.00  0.00    +0.000 A 
ATOM     17  C   UNL     1       1.052   3.234  18.767  0.00  0.00    +0.000 A 
ATOM     18  N   UNL     1       1.965   4.216  18.591  0.00  0.00    +0.000 NA
ENDBRANCH  12  13
ENDBRANCH  10  12
TORSDOF 2
ENDMDL
MODEL 6
REMARK VINA RESULT:      -7.0      0.080      1.995
REMARK  Name = 
REMARK  2 active torsions:
REMARK  status: ('A' for Active; 'I' for Inactive)
REMARK    1  A    between atoms: N_10  and  C_11
REMARK    2  A    between atoms: C_11  and  C_12
REMARK                            x       y       z     vdW  Elec       q    Type
REMARK                         _______ _______ _______ _____ _____    ______ ____
ROOT
ATOM      1  O   UNL     1       1.471   3.693  17.484  0.00  0.00    +0.000 OA
ATOM      2  C   UNL     1       2.201   3.418  18.422  0.00  0.00    +0.000 C 
ATOM      3  C   UNL     1       1.823   3.164  19.794  0.00  0.00    +0.000 A 
ATOM      4  N   UNL     1       0.717   3.108  20.579  0.00  0.00    +0.000 NA
ATOM      5  C   UNL     1       1.192   2.751  21.764  0.00  0.00    +0.000 A 
ATOM      6  N   UNL     1       2.562   2.567  21.754  0.00  0.00    +0.000 N 
ATOM      7  C   UNL     1       2.944   2.829  20.488  0.00  0.00    +0.000 A 
ATOM      8  C   UNL     1       4.083   2.842  19.646  0.00  0.00    +0.000 C 
ATOM      9  O   UNL     1       5.224   2.536  19.947  0.00  0.00    +0.000 OA
ATOM     10  N   UNL     1       3.575   3.206  18.411  0.00  0.00    +0.000 N 
ATOM     11  H   UNL     1       3.144   2.281  22.532  0.00  0.00    +0.000 HD
ENDROOT
BRANCH  10  12
ATOM     12  C   UNL     1       4.394   3.366  17.235  0.00  0.00    +0.000 C 
BRANCH  12  13
ATOM     13  C   UNL     1       5.258   4.613  17.258  0.00  0.00    +0.000 A 
ATOM     14  C   UNL     1       4.662   5.851  17.010  0.00  0.00    +0.000 A 
ATOM     15  C   UNL     1       5.458   6.992  16.989  0.00  0.00    +0.000 A 
ATOM     16  C   UNL     1       6.822   6.875  17.223  0.00  0.00    +0.000 A 
ATOM     17  C   UNL     1       7.335   5.614  17.478  0.00  0.00    +0.000 A 
ATOM     18  N   UNL     1       6.589   4.487  17.499  0.00  0.00    +0.000 NA
ENDBRANCH  12  13
ENDBRANCH  10  12
TORSDOF 2
ENDMDL
MODEL 7
REMARK VINA RESULT:      -7.0      0.680      2.310
REMARK  Name = 
REMARK  2 active torsions:
REMARK  status: ('A' for Active; 'I' for Inactive)
REMARK    1  A    between atoms: N_10  and  C_11
REMARK    2  A    between atoms: C_11  and  C_12
REMARK                            x       y       z     vdW  Elec       q    Type
REMARK                         _______ _______ _______ _____ _____    ______ ____
ROOT
ATOM      1  O   UNL     1       1.561   3.892  17.460  0.00  0.00    +0.000 OA
ATOM      2  C   UNL     1       2.267   3.553  18.395  0.00  0.00    +0.000 C 
ATOM      3  C   UNL     1       1.862   3.274  19.755  0.00  0.00    +0.000 A 
ATOM      4  N   UNL     1       0.746   3.247  20.527  0.00  0.00    +0.000 NA
ATOM      5  C   UNL     1       1.190   2.830  21.704  0.00  0.00    +0.000 A 
ATOM      6  N   UNL     1       2.550   2.580  21.702  0.00  0.00    +0.000 N 
ATOM      7  C   UNL     1       2.958   2.863  20.448  0.00  0.00    +0.000 A 
ATOM      8  C   UNL     1       4.105   2.848  19.618  0.00  0.00    +0.000 C 
ATOM      9  O   UNL     1       5.227   2.478  19.920  0.00  0.00    +0.000 OA
ATOM     10  N   UNL     1       3.629   3.275  18.391  0.00  0.00    +0.000 N 
ATOM     11  H   UNL     1       3.108   2.242  22.476  0.00  0.00    +0.000 HD
ENDROOT
BRANCH  10  12
ATOM     12  C   UNL     1       4.468   3.433  17.229  0.00  0.00    +0.000 C 
BRANCH  12  13
ATOM     13  C   UNL     1       5.307   4.697  17.248  0.00  0.00    +0.000 A 
ATOM     14  C   UNL     1       6.662   4.601  17.567  0.00  0.00    +0.000 A 
ATOM     15  C   UNL     1       7.426   5.763  17.626  0.00  0.00    +0.000 A 
ATOM     16  C   UNL     1       6.826   6.987  17.360  0.00  0.00    +0.000 A 
ATOM     17  C   UNL     1       5.480   6.997  17.035  0.00  0.00    +0.000 A 
ATOM     18  N   UNL     1       4.710   5.887  16.976  0.00  0.00    +0.000 NA
ENDBRANCH  12  13
ENDBRANCH  10  12
TORSDOF 2
ENDMDL
MODEL 8
REMARK VINA RESULT:      -7.0      2.047      5.614
REMARK  Name = 
REMARK  2 active torsions:
REMARK  status: ('A' for Active; 'I' for Inactive)
REMARK    1  A    between atoms: N_10  and  C_11
REMARK    2  A    between atoms: C_11  and  C_12
REMARK                            x       y       z     vdW  Elec       q    Type
REMARK                         _______ _______ _______ _____ _____    ______ ____
ROOT
ATOM      1  O   UNL     1       5.902   3.917  19.302  0.00  0.00    +0.000 OA
ATOM      2  C   UNL     1       5.637   4.740  18.441  0.00  0.00    +0.000 C 
ATOM      3  C   UNL     1       6.281   4.920  17.159  0.00  0.00    +0.000 A 
ATOM      4  N   UNL     1       7.283   4.393  16.410  0.00  0.00    +0.000 NA
ATOM      5  C   UNL     1       7.231   5.089  15.283  0.00  0.00    +0.000 A 
ATOM      6  N   UNL     1       6.221   6.032  15.287  0.00  0.00    +0.000 N 
ATOM      7  C   UNL     1       5.623   5.904  16.488  0.00  0.00    +0.000 A 
ATOM      8  C   UNL     1       4.548   6.411  17.260  0.00  0.00    +0.000 C 
ATOM      9  O   UNL     1       3.736   7.255  16.924  0.00  0.00    +0.000 OA
ATOM     10  N   UNL     1       4.606   5.672  18.428  0.00  0.00    +0.000 N 
ATOM     11  H   UNL     1       5.979   6.668  14.537  0.00  0.00    +0.000 HD
ENDROOT
BRANCH  10  12
ATOM     12  C   UNL     1       3.697   5.864  19.531  0.00  0.00    +0.000 C 
BRANCH  12  13
ATOM     13  C   UNL     1       2.628   4.792  19.636  0.00  0.00    +0.000 A 
ATOM     14  C   UNL     1       2.229   4.360  20.901  0.00  0.00    +0.000 A 
ATOM     15  C   UNL     1       1.279   3.347  21.001  0.00  0.00    +0.000 A 
ATOM     16  C   UNL     1       0.745   2.798  19.842  0.00  0.00    +0.000 A 
ATOM     17  C   UNL     1       1.181   3.294  18.625  0.00  0.00    +0.000 A 
ATOM     18  N   UNL     1       2.106   4.271  18.495  0.00  0.00    +0.000 NA
ENDBRANCH  12  13
ENDBRANCH  10  12
TORSDOF 2
ENDMDL
MODEL 9
REMARK VINA RESULT:      -6.9      1.899      5.829
REMARK  Name = 
REMARK  2 active torsions:
REMARK  status: ('A' for Active; 'I' for Inactive)
REMARK    1  A    between atoms: N_10  and  C_11
REMARK    2  A    between atoms: C_11  and  C_12
REMARK                            x       y       z     vdW  Elec       q    Type
REMARK                         _______ _______ _______ _____ _____    ______ ____
ROOT
ATOM      1  O   UNL     1       3.817   7.293  17.028  0.00  0.00    +0.000 OA
ATOM      2  C   UNL     1       4.492   6.312  17.300  0.00  0.00    +0.000 C 
ATOM      3  C   UNL     1       5.521   5.694  16.494  0.00  0.00    +0.000 A 
ATOM      4  N   UNL     1       6.138   5.843  15.294  0.00  0.00    +0.000 NA
ATOM      5  C   UNL     1       7.048   4.880  15.288  0.00  0.00    +0.000 A 
ATOM      6  N   UNL     1       7.037   4.132  16.451  0.00  0.00    +0.000 N 
ATOM      7  C   UNL     1       6.062   4.671  17.209  0.00  0.00    +0.000 A 
ATOM      8  C   UNL     1       5.444   4.559  18.478  0.00  0.00    +0.000 C 
ATOM      9  O   UNL     1       5.735   3.782  19.372  0.00  0.00    +0.000 OA
ATOM     10  N   UNL     1       4.503   5.574  18.477  0.00  0.00    +0.000 N 
ATOM     11  H   UNL     1       7.646   3.356  16.681  0.00  0.00    +0.000 HD
ENDROOT
BRANCH  10  12
ATOM     12  C   UNL     1       3.611   5.827  19.582  0.00  0.00    +0.000 C 
BRANCH  12  13
ATOM     13  C   UNL     1       2.633   4.698  19.848  0.00  0.00    +0.000 A 
ATOM     14  C   UNL     1       1.875   4.199  18.787  0.00  0.00    +0.000 A 
ATOM     15  C   UNL     1       0.946   3.192  19.035  0.00  0.00    +0.000 A 
ATOM     16  C   UNL     1       0.802   2.703  20.327  0.00  0.00    +0.000 A 
ATOM     17  C   UNL     1       1.603   3.238  21.321  0.00  0.00    +0.000 A 
ATOM     18  N   UNL     1       2.508   4.221  21.113  0.00  0.00    +0.000 NA
ENDBRANCH  12  13
ENDBRANCH  10  12
TORSDOF 2
ENDMDL
