MODEL 1
REMARK VINA RESULT:      -7.1      0.000      0.000
REMARK  Name = 
REMARK  2 active torsions:
REMARK  status: ('A' for Active; 'I' for Inactive)
REMARK    1  A    between atoms: C_2  and  C_12
REMARK    2  A    between atoms: N_3  and  C_4
REMARK                            x       y       z     vdW  Elec       q    Type
REMARK                         _______ _______ _______ _____ _____    ______ ____
ROOT
ATOM      1  O   UNL     1       6.514   4.350  17.276  0.00  0.00    +0.000 OA
ATOM      2  C   UNL     1       5.767   4.179  16.322  0.00  0.00    +0.000 C 
ATOM      3  N   UNL     1       4.446   3.762  16.367  0.00  0.00    +0.000 N 
ATOM      4  H   UNL     1       4.025   3.477  15.491  0.00  0.00    +0.000 HD
ENDROOT
BRANCH   3   5
ATOM      5  C   UNL     1       3.692   3.503  17.531  0.00  0.00    +0.000 A 
ATOM      6  C   UNL     1       3.335   2.220  17.948  0.00  0.00    +0.000 A 
ATOM      7  C   UNL     1       2.558   2.035  19.096  0.00  0.00    +0.000 A 
ATOM      8  C   UNL     1       2.126   3.135  19.838  0.00  0.00    +0.000 A 
ATOM      9 CL   UNL     1       1.146   2.835  21.228  0.00  0.00    +0.000 Cl
ATOM     10  C   UNL     1       2.495   4.422  19.438  0.00  0.00    +0.000 A 
ATOM     11 CL   UNL     1       1.994   5.837  20.298  0.00  0.00    +0.000 Cl
ATOM     12  C   UNL     1       3.285   4.602  18.296  0.00  0.00    +0.000 A 
ENDBRANCH   3   5
BRANCH   2  13
ATOM     13  C   UNL     1       6.317   4.356  14.961  0.00  0.00    +0.000 A 
ATOM     14  C   UNL     1       5.842   3.650  13.854  0.00  0.00    +0.000 A 
ATOM     15  C   UNL     1       6.426   3.870  12.608  0.00  0.00    +0.000 A 
ATOM     16  C   UNL     1       7.462   4.787  12.517  0.00  0.00    +0.000 A 
ATOM     17  N   UNL     1       7.935   5.492  13.568  0.00  0.00    +0.000 NA
ATOM     18  C   UNL     1       7.341   5.272  14.766  0.00  0.00    +0.000 A 
ENDBRANCH   2  13
TORSDOF 2
ENDMDL
MODEL 2
REMARK VINA RESULT:      -6.9      1.313      1.594
REMARK  Name = 
REMARK  2 active torsions:
REMARK  status: ('A' for Active; 'I' for Inactive)
REMARK    1  A    between atoms: C_2  and  C_12
REMARK    2  A    between atoms: N_3  and  C_4
REMARK                            x       y       z     vdW  Elec       q    Type
REMARK                         _______ _______ _______ _____ _____    ______ ____
ROOT
ATOM      1  O   UNL     1       4.786   5.807  16.410  0.00  0.00    +0.000 OA
ATOM      2  C   UNL     1       5.122   4.699  16.015  0.00  0.00    +0.000 C 
ATOM      3  N   UNL     1       4.892   3.488  16.648  0.00  0.00    +0.000 N 
ATOM      4  H   UNL     1       5.402   2.684  16.300  0.00  0.00    +0.000 HD
ENDROOT
BRANCH   3   5
ATOM      5  C   UNL     1       4.178   3.297  17.849  0.00  0.00    +0.000 A 
ATOM      6  C   UNL     1       4.753   3.420  19.115  0.00  0.00    +0.000 A 
ATOM      7  C   UNL     1       3.996   3.185  20.267  0.00  0.00    +0.000 A 
ATOM      8  C   UNL     1       2.653   2.820  20.164  0.00  0.00    +0.000 A 
ATOM      9 CL   UNL     1       1.785   2.518  21.626  0.00  0.00    +0.000 Cl
ATOM     10  C   UNL     1       2.065   2.712  18.901  0.00  0.00    +0.000 A 
ATOM     11 CL   UNL     1       0.410   2.257  18.688  0.00  0.00    +0.000 Cl
ATOM     12  C   UNL     1       2.822   2.962  17.750  0.00  0.00    +0.000 A 
ENDBRANCH   3   5
BRANCH   2  13
ATOM     13  C   UNL     1       5.921   4.610  14.774  0.00  0.00    +0.000 A 
ATOM     14  C   UNL     1       5.575   3.778  13.707  0.00  0.00    +0.000 A 
ATOM     15  C   UNL     1       6.392   3.748  12.579  0.00  0.00    +0.000 A 
ATOM     16  C   UNL     1       7.522   4.551  12.560  0.00  0.00    +0.000 A 
ATOM     17  N   UNL     1       7.876   5.373  13.571  0.00  0.00    +0.000 NA
ATOM     18  C   UNL     1       7.058   5.396  14.652  0.00  0.00    +0.000 A 
ENDBRANCH   2  13
TORSDOF 2
ENDMDL
MODEL 3
REMARK VINA RESULT:      -6.8      3.759      6.979
REMARK  Name = 
REMARK  2 active torsions:
REMARK  status: ('A' for Active; 'I' for Inactive)
REMARK    1  A    between atoms: C_2  and  C_12
REMARK    2  A    between atoms: N_3  and  C_4
REMARK                            x       y       z     vdW  Elec       q    Type
REMARK                         _______ _______ _______ _____ _____    ______ ____
ROOT
ATOM      1  O   UNL     1       3.362   5.934  17.599  0.00  0.00    +0.000 OA
ATOM      2  C   UNL     1       3.543   4.754  17.866  0.00  0.00    +0.000 C 
ATOM      3  N   UNL     1       4.440   3.893  17.254  0.00  0.00    +0.000 N 
ATOM      4  H   UNL     1       4.332   2.904  17.447  0.00  0.00    +0.000 HD
ENDROOT
BRANCH   3   5
ATOM      5  C   UNL     1       5.356   4.229  16.235  0.00  0.00    +0.000 A 
ATOM      6  C   UNL     1       6.474   5.040  16.442  0.00  0.00    +0.000 A 
ATOM      7  C   UNL     1       7.325   5.362  15.380  0.00  0.00    +0.000 A 
ATOM      8  C   UNL     1       7.065   4.877  14.098  0.00  0.00    +0.000 A 
ATOM      9 CL   UNL     1       8.142   5.336  12.829  0.00  0.00    +0.000 Cl
ATOM     10  C   UNL     1       5.960   4.049  13.886  0.00  0.00    +0.000 A 
ATOM     11 CL   UNL     1       5.564   3.414  12.327  0.00  0.00    +0.000 Cl
ATOM     12  C   UNL     1       5.117   3.718  14.955  0.00  0.00    +0.000 A 
ENDBRANCH   3   5
BRANCH   2  13
ATOM     13  C   UNL     1       2.683   4.128  18.893  0.00  0.00    +0.000 A 
ATOM     14  C   UNL     1       1.683   3.204  18.583  0.00  0.00    +0.000 A 
ATOM     15  C   UNL     1       0.909   2.672  19.612  0.00  0.00    +0.000 A 
ATOM     16  C   UNL     1       1.165   3.083  20.912  0.00  0.00    +0.000 A 
ATOM     17  N   UNL     1       2.132   3.967  21.242  0.00  0.00    +0.000 NA
ATOM     18  C   UNL     1       2.881   4.460  20.226  0.00  0.00    +0.000 A 
ENDBRANCH   2  13
TORSDOF 2
ENDMDL
MODEL 4
REMARK VINA RESULT:      -6.8      1.032      1.772
REMARK  Name = 
REMARK  2 active torsions:
REMARK  status: ('A' for Active; 'I' for Inactive)
REMARK    1  A    between atoms: C_2  and  C_12
REMARK    2  A    between atoms: N_3  and  C_4
REMARK                            x       y       z     vdW  Elec       q    Type
REMARK                         _______ _______ _______ _____ _____    ______ ____
ROOT
ATOM      1  O   UNL     1       7.038   4.394  16.815  0.00  0.00    +0.000 OA
ATOM      2  C   UNL     1       6.157   4.454  15.968  0.00  0.00    +0.000 C 
ATOM      3  N   UNL     1       4.790   4.451  16.193  0.00  0.00    +0.000 N 
ATOM      4  H   UNL     1       4.192   4.304  15.388  0.00  0.00    +0.000 HD
ENDROOT
BRANCH   3   5
ATOM      5  C   UNL     1       4.151   4.431  17.451  0.00  0.00    +0.000 A 
ATOM      6  C   UNL     1       4.326   5.421  18.420  0.00  0.00    +0.000 A 
ATOM      7  C   UNL     1       3.688   5.322  19.660  0.00  0.00    +0.000 A 
ATOM      8  C   UNL     1       2.870   4.230  19.946  0.00  0.00    +0.000 A 
ATOM      9 CL   UNL     1       2.135   4.159  21.507  0.00  0.00    +0.000 Cl
ATOM     10  C   UNL     1       2.674   3.244  18.976  0.00  0.00    +0.000 A 
ATOM     11 CL   UNL     1       1.683   1.854  19.254  0.00  0.00    +0.000 Cl
ATOM     12  C   UNL     1       3.304   3.352  17.729  0.00  0.00    +0.000 A 
ENDBRANCH   3   5
BRANCH   2  13
ATOM     13  C   UNL     1       6.553   4.457  14.544  0.00  0.00    +0.000 A 
ATOM     14  C   UNL     1       5.992   3.595  13.599  0.00  0.00    +0.000 A 
ATOM     15  C   UNL     1       6.433   3.657  12.279  0.00  0.00    +0.000 A 
ATOM     16  C   UNL     1       7.416   4.579  11.953  0.00  0.00    +0.000 A 
ATOM     17  N   UNL     1       7.968   5.433  12.842  0.00  0.00    +0.000 NA
ATOM     18  C   UNL     1       7.513   5.364  14.117  0.00  0.00    +0.000 A 
ENDBRANCH   2  13
TORSDOF 2
ENDMDL
MODEL 5
REMARK VINA RESULT:      -6.7      3.613      6.997
REMARK  Name = 
REMARK  2 active torsions:
REMARK  status: ('A' for Active; 'I' for Inactive)
REMARK    1  A    between atoms: C_2  and  C_12
REMARK    2  A    between atoms: N_3  and  C_4
REMARK                            x       y       z     vdW  Elec       q    Type
REMARK                         _______ _______ _______ _____ _____    ______ ____
ROOT
ATOM      1  O   UNL     1       4.040   1.840  17.653  0.00  0.00    +0.000 OA
ATOM      2  C   UNL     1       3.843   2.914  18.204  0.00  0.00    +0.000 C 
ATOM      3  N   UNL     1       4.411   4.133  17.871  0.00  0.00    +0.000 N 
ATOM      4  H   UNL     1       4.306   4.887  18.541  0.00  0.00    +0.000 HD
ENDROOT
BRANCH   3   5
ATOM      5  C   UNL     1       5.288   4.378  16.794  0.00  0.00    +0.000 A 
ATOM      6  C   UNL     1       6.547   4.962  16.944  0.00  0.00    +0.000 A 
ATOM      7  C   UNL     1       7.355   5.208  15.829  0.00  0.00    +0.000 A 
ATOM      8  C   UNL     1       6.909   4.874  14.550  0.00  0.00    +0.000 A 
ATOM      9 CL   UNL     1       7.946   5.231  13.216  0.00  0.00    +0.000 Cl
ATOM     10  C   UNL     1       5.658   4.272  14.393  0.00  0.00    +0.000 A 
ATOM     11 CL   UNL     1       5.029   3.836  12.842  0.00  0.00    +0.000 Cl
ATOM     12  C   UNL     1       4.858   4.015  15.513  0.00  0.00    +0.000 A 
ENDBRANCH   3   5
BRANCH   2  13
ATOM     13  C   UNL     1       2.973   2.939  19.399  0.00  0.00    +0.000 A 
ATOM     14  C   UNL     1       1.639   3.350  19.357  0.00  0.00    +0.000 A 
ATOM     15  C   UNL     1       0.893   3.354  20.534  0.00  0.00    +0.000 A 
ATOM     16  C   UNL     1       1.509   2.945  21.708  0.00  0.00    +0.000 A 
ATOM     17  N   UNL     1       2.793   2.531  21.777  0.00  0.00    +0.000 NA
ATOM     18  C   UNL     1       3.495   2.523  20.616  0.00  0.00    +0.000 A 
ENDBRANCH   2  13
TORSDOF 2
ENDMDL
MODEL 6
REMARK VINA RESULT:      -6.6      1.187      1.591
REMARK  Name = 
REMARK  2 active torsions:
REMARK  status: ('A' for Active; 'I' for Inactive)
REMARK    1  A    between atoms: C_2  and  C_12
REMARK    2  A    between atoms: N_3  and  C_4
REMARK                            x       y       z     vdW  Elec       q    Type
REMARK                         _______ _______ _______ _____ _____    ______ ____
ROOT
ATOM      1  O   UNL     1       5.111   5.885  16.527  0.00  0.00    +0.000 OA
ATOM      2  C   UNL     1       5.098   4.823  15.919  0.00  0.00    +0.000 C 
ATOM      3  N   UNL     1       4.439   3.663  16.292  0.00  0.00    +0.000 N 
ATOM      4  H   UNL     1       4.687   2.815  15.794  0.00  0.00    +0.000 HD
ENDROOT
BRANCH   3   5
ATOM      5  C   UNL     1       3.610   3.500  17.421  0.00  0.00    +0.000 A 
ATOM      6  C   UNL     1       2.281   3.926  17.469  0.00  0.00    +0.000 A 
ATOM      7  C   UNL     1       1.524   3.764  18.633  0.00  0.00    +0.000 A 
ATOM      8  C   UNL     1       2.088   3.174  19.763  0.00  0.00    +0.000 A 
ATOM      9 CL   UNL     1       1.104   3.029  21.174  0.00  0.00    +0.000 Cl
ATOM     10  C   UNL     1       3.411   2.727  19.718  0.00  0.00    +0.000 A 
ATOM     11 CL   UNL     1       4.188   1.993  21.078  0.00  0.00    +0.000 Cl
ATOM     12  C   UNL     1       4.163   2.879  18.546  0.00  0.00    +0.000 A 
ENDBRANCH   3   5
BRANCH   2  13
ATOM     13  C   UNL     1       5.921   4.707  14.696  0.00  0.00    +0.000 A 
ATOM     14  C   UNL     1       5.593   3.853  13.641  0.00  0.00    +0.000 A 
ATOM     15  C   UNL     1       6.431   3.797  12.529  0.00  0.00    +0.000 A 
ATOM     16  C   UNL     1       7.564   4.597  12.515  0.00  0.00    +0.000 A 
ATOM     17  N   UNL     1       7.900   5.440  13.515  0.00  0.00    +0.000 NA
ATOM     18  C   UNL     1       7.062   5.488  14.580  0.00  0.00    +0.000 A 
ENDBRANCH   2  13
TORSDOF 2
ENDMDL
MODEL 7
REMARK VINA RESULT:      -6.6      3.733      7.052
REMARK  Name = 
REMARK  2 active torsions:
REMARK  status: ('A' for Active; 'I' for Inactive)
REMARK    1  A    between atoms: C_2  and  C_12
REMARK    2  A    between atoms: N_3  and  C_4
REMARK                            x       y       z     vdW  Elec       q    Type
REMARK                         _______ _______ _______ _____ _____    ______ ____
ROOT
ATOM      1  O   UNL     1       3.550   5.993  17.658  0.00  0.00    +0.000 OA
ATOM      2  C   UNL     1       3.693   4.800  17.887  0.00  0.00    +0.000 C 
ATOM      3  N   UNL     1       4.527   3.920  17.217  0.00  0.00    +0.000 N 
ATOM      4  H   UNL     1       4.386   2.932  17.389  0.00  0.00    +0.000 HD
ENDROOT
BRANCH   3   5
ATOM      5  C   UNL     1       5.415   4.246  16.170  0.00  0.00    +0.000 A 
ATOM      6  C   UNL     1       6.502   5.109  16.323  0.00  0.00    +0.000 A 
ATOM      7  C   UNL     1       7.325   5.416  15.235  0.00  0.00    +0.000 A 
ATOM      8  C   UNL     1       7.067   4.865  13.980  0.00  0.00    +0.000 A 
ATOM      9 CL   UNL     1       8.107   5.309  12.675  0.00  0.00    +0.000 Cl
ATOM     10  C   UNL     1       5.992   3.986  13.822  0.00  0.00    +0.000 A 
ATOM     11 CL   UNL     1       5.600   3.268  12.298  0.00  0.00    +0.000 Cl
ATOM     12  C   UNL     1       5.178   3.670  14.917  0.00  0.00    +0.000 A 
ENDBRANCH   3   5
BRANCH   2  13
ATOM     13  C   UNL     1       2.848   4.182  18.933  0.00  0.00    +0.000 A 
ATOM     14  C   UNL     1       2.682   4.743  20.201  0.00  0.00    +0.000 A 
ATOM     15  C   UNL     1       1.877   4.087  21.130  0.00  0.00    +0.000 A 
ATOM     16  C   UNL     1       1.269   2.899  20.756  0.00  0.00    +0.000 A 
ATOM     17  N   UNL     1       1.402   2.339  19.534  0.00  0.00    +0.000 NA
ATOM     18  C   UNL     1       2.179   3.002  18.642  0.00  0.00    +0.000 A 
ENDBRANCH   2  13
TORSDOF 2
ENDMDL
MODEL 8
REMARK VINA RESULT:      -6.6      3.661      7.035
REMARK  Name = 
REMARK  2 active torsions:
REMARK  status: ('A' for Active; 'I' for Inactive)
REMARK    1  A    between atoms: C_2  and  C_12
REMARK    2  A    between atoms: N_3  and  C_4
REMARK                            x       y       z     vdW  Elec       q    Type
REMARK                         _______ _______ _______ _____ _____    ______ ____
ROOT
ATOM      1  O   UNL     1       2.950   5.247  17.433  0.00  0.00    +0.000 OA
ATOM      2  C   UNL     1       3.554   4.389  18.062  0.00  0.00    +0.000 C 
ATOM      3  N   UNL     1       4.771   3.818  17.727  0.00  0.00    +0.000 N 
ATOM      4  H   UNL     1       5.043   2.984  18.236  0.00  0.00    +0.000 HD
ENDROOT
BRANCH   3   5
ATOM      5  C   UNL     1       5.574   4.156  16.618  0.00  0.00    +0.000 A 
ATOM      6  C   UNL     1       6.784   4.844  16.725  0.00  0.00    +0.000 A 
ATOM      7  C   UNL     1       7.516   5.178  15.581  0.00  0.00    +0.000 A 
ATOM      8  C   UNL     1       7.043   4.828  14.316  0.00  0.00    +0.000 A 
ATOM      9 CL   UNL     1       7.984   5.296  12.946  0.00  0.00    +0.000 Cl
ATOM     10  C   UNL     1       5.842   4.123  14.201  0.00  0.00    +0.000 A 
ATOM     11 CL   UNL     1       5.183   3.660  12.670  0.00  0.00    +0.000 Cl
ATOM     12  C   UNL     1       5.119   3.778  15.350  0.00  0.00    +0.000 A 
ENDBRANCH   3   5
BRANCH   2  13
ATOM     13  C   UNL     1       2.915   3.827  19.271  0.00  0.00    +0.000 A 
ATOM     14  C   UNL     1       3.579   2.968  20.150  0.00  0.00    +0.000 A 
ATOM     15  C   UNL     1       2.896   2.474  21.260  0.00  0.00    +0.000 A 
ATOM     16  C   UNL     1       1.578   2.859  21.449  0.00  0.00    +0.000 A 
ATOM     17  N   UNL     1       0.914   3.696  20.624  0.00  0.00    +0.000 NA
ATOM     18  C   UNL     1       1.602   4.175  19.558  0.00  0.00    +0.000 A 
ENDBRANCH   2  13
TORSDOF 2
ENDMDL
MODEL 9
REMARK VINA RESULT:      -6.5      3.670      7.035
REMARK  Name = 
REMARK  2 active torsions:
REMARK  status: ('A' for Active; 'I' for Inactive)
REMARK    1  A    between atoms: C_2  and  C_12
REMARK    2  A    between atoms: N_3  and  C_4
REMARK                            x       y       z     vdW  Elec       q    Type
REMARK                         _______ _______ _______ _____ _____    ______ ____
ROOT
ATOM      1  O   UNL     1       5.625   3.741  19.104  0.00  0.00    +0.000 OA
ATOM      2  C   UNL     1       4.536   3.930  18.579  0.00  0.00    +0.000 C 
ATOM      3  N   UNL     1       4.304   4.355  17.280  0.00  0.00    +0.000 N 
ATOM      4  H   UNL     1       3.363   4.655  17.057  0.00  0.00    +0.000 HD
ENDROOT
BRANCH   3   5
ATOM      5  C   UNL     1       5.284   4.602  16.296  0.00  0.00    +0.000 A 
ATOM      6  C   UNL     1       6.362   5.469  16.482  0.00  0.00    +0.000 A 
ATOM      7  C   UNL     1       7.280   5.694  15.452  0.00  0.00    +0.000 A 
ATOM      8  C   UNL     1       7.128   5.055  14.222  0.00  0.00    +0.000 A 
ATOM      9 CL   UNL     1       8.283   5.400  12.985  0.00  0.00    +0.000 Cl
ATOM     10  C   UNL     1       6.062   4.171  14.032  0.00  0.00    +0.000 A 
ATOM     11 CL   UNL     1       5.798   3.346  12.535  0.00  0.00    +0.000 Cl
ATOM     12  C   UNL     1       5.153   3.937  15.071  0.00  0.00    +0.000 A 
ENDBRANCH   3   5
BRANCH   2  13
ATOM     13  C   UNL     1       3.322   3.769  19.407  0.00  0.00    +0.000 A 
ATOM     14  C   UNL     1       2.614   4.852  19.932  0.00  0.00    +0.000 A 
ATOM     15  C   UNL     1       1.486   4.610  20.713  0.00  0.00    +0.000 A 
ATOM     16  C   UNL     1       1.108   3.295  20.938  0.00  0.00    +0.000 A 
ATOM     17  N   UNL     1       1.766   2.228  20.434  0.00  0.00    +0.000 NA
ATOM     18  C   UNL     1       2.853   2.489  19.666  0.00  0.00    +0.000 A 
ENDBRANCH   2  13
TORSDOF 2
ENDMDL
