MODEL 1
REMARK VINA RESULT:      -7.6      0.000      0.000
REMARK  Name = 
REMARK  10 active torsions:
REMARK  status: ('A' for Active; 'I' for Inactive)
REMARK    1  A    between atoms: C_1  and  C_2
REMARK    2  A    between atoms: C_2  and  C_3
REMARK    3  A    between atoms: C_3  and  C_5
REMARK    4  A    between atoms: C_5  and  N_6
REMARK    5  A    between atoms: C_5  and  N_14
REMARK    6  A    between atoms: N_6  and  C_7
REMARK    7  A    between atoms: N_14  and  C_15
REMARK    8  A    between atoms: C_15  and  C_16
REMARK    9  A    between atoms: C_15  and  C_22
REMARK   10  A    between atoms: C_16  and  N_17
REMARK                            x       y       z     vdW  Elec       q    Type
REMARK                         _______ _______ _______ _____ _____    ______ ____
ROOT
ATOM      1  N   UNL     1       5.424   5.369  19.439  0.00  0.00    +0.000 NA
ATOM      2  H   UNL     1       5.448   6.197  20.032  0.00  0.00    +0.000 HD
ENDROOT
BRANCH   1   3
ATOM      3  C   UNL     1       6.480   5.550  18.435  0.00  0.00    +0.000 C 
BRANCH   3   4
ATOM      4  C   UNL     1       7.722   6.052  19.281  0.00  0.00    +0.000 C 
ATOM      5  O   UNL     1       8.101   5.482  20.313  0.00  0.00    +0.000 OA
BRANCH   4   7
ATOM      6  C   UNL     1       7.756   7.926  17.620  0.00  0.00    +0.000 C 
ATOM      7  C   UNL     1       8.421   7.326  18.845  0.00  0.00    +0.000 C 
ENDBRANCH   4   7
ENDBRANCH   3   4
BRANCH   3   8
ATOM      8  N   UNL     1       6.961   4.431  17.625  0.00  0.00    +0.000 N 
ATOM      9  H   UNL     1       6.978   3.562  18.148  0.00  0.00    +0.000 HD
BRANCH   8  10
ATOM     10  C   UNL     1       6.601   4.315  16.282  0.00  0.00    +0.000 A 
ATOM     11  C   UNL     1       5.432   3.663  15.880  0.00  0.00    +0.000 A 
ATOM     12  C   UNL     1       5.137   3.443  14.530  0.00  0.00    +0.000 A 
ATOM     13  C   UNL     1       6.015   3.919  13.558  0.00  0.00    +0.000 A 
ATOM     14 CL   UNL     1       5.715   3.571  11.901  0.00  0.00    +0.000 Cl
ATOM     15  C   UNL     1       7.126   4.673  13.925  0.00  0.00    +0.000 A 
ATOM     16  C   UNL     1       7.399   4.886  15.283  0.00  0.00    +0.000 A 
ENDBRANCH   8  10
ENDBRANCH   3   8
ENDBRANCH   1   3
BRANCH   1  17
ATOM     17  C   UNL     1       4.020   5.071  19.098  0.00  0.00    +0.000 C 
BRANCH  17  18
ATOM     18  C   UNL     1       3.198   6.395  18.986  0.00  0.00    +0.000 A 
ATOM     19  C   UNL     1       2.340   6.794  20.043  0.00  0.00    +0.000 A 
ATOM     20  C   UNL     1       1.626   7.997  20.013  0.00  0.00    +0.000 A 
ATOM     21  C   UNL     1       1.709   8.819  18.902  0.00  0.00    +0.000 A 
ATOM     22 CL   UNL     1       0.838  10.301  18.863  0.00  0.00    +0.000 Cl
ATOM     23  C   UNL     1       2.509   8.453  17.829  0.00  0.00    +0.000 A 
ATOM     24  C   UNL     1       3.266   7.270  17.877  0.00  0.00    +0.000 A 
ATOM     25 CL   UNL     1       4.310   7.017  16.523  0.00  0.00    +0.000 Cl
ENDBRANCH  17  18
BRANCH  17  26
ATOM     26  C   UNL     1       3.338   4.045  20.046  0.00  0.00    +0.000 C 
BRANCH  26  27
ATOM     27  N   UNL     1       2.272   3.234  19.499  0.00  0.00    +0.000 N 
ATOM     28  C   UNL     1       0.997   3.078  19.959  0.00  0.00    +0.000 A 
ATOM     29  C   UNL     1       0.368   2.302  19.016  0.00  0.00    +0.000 A 
ATOM     30  N   UNL     1       1.250   1.910  18.043  0.00  0.00    +0.000 NA
ATOM     31  C   UNL     1       2.391   2.472  18.369  0.00  0.00    +0.000 A 
ENDBRANCH  26  27
ENDBRANCH  17  26
ENDBRANCH   1  17
TORSDOF 9
ENDMDL
MODEL 2
REMARK VINA RESULT:      -7.6      1.569      1.926
REMARK  Name = 
REMARK  10 active torsions:
REMARK  status: ('A' for Active; 'I' for Inactive)
REMARK    1  A    between atoms: C_1  and  C_2
REMARK    2  A    between atoms: C_2  and  C_3
REMARK    3  A    between atoms: C_3  and  C_5
REMARK    4  A    between atoms: C_5  and  N_6
REMARK    5  A    between atoms: C_5  and  N_14
REMARK    6  A    between atoms: N_6  and  C_7
REMARK    7  A    between atoms: N_14  and  C_15
REMARK    8  A    between atoms: C_15  and  C_16
REMARK    9  A    between atoms: C_15  and  C_22
REMARK   10  A    between atoms: C_16  and  N_17
REMARK                            x       y       z     vdW  Elec       q    Type
REMARK                         _______ _______ _______ _____ _____    ______ ____
ROOT
ATOM      1  N   UNL     1       4.582   5.918  18.612  0.00  0.00    +0.000 NA
ATOM      2  H   UNL     1       4.755   6.744  19.182  0.00  0.00    +0.000 HD
ENDROOT
BRANCH   1   3
ATOM      3  C   UNL     1       5.809   5.684  17.841  0.00  0.00    +0.000 C 
BRANCH   3   4
ATOM      4  C   UNL     1       6.963   5.813  18.920  0.00  0.00    +0.000 C 
ATOM      5  O   UNL     1       6.960   5.173  19.979  0.00  0.00    +0.000 OA
BRANCH   4   7
ATOM      6  C   UNL     1       7.694   7.788  17.564  0.00  0.00    +0.000 C 
ATOM      7  C   UNL     1       8.070   6.820  18.671  0.00  0.00    +0.000 C 
ENDBRANCH   4   7
ENDBRANCH   3   4
BRANCH   3   8
ATOM      8  N   UNL     1       6.041   4.420  17.143  0.00  0.00    +0.000 N 
ATOM      9  H   UNL     1       5.484   3.665  17.527  0.00  0.00    +0.000 HD
BRANCH   8  10
ATOM     10  C   UNL     1       6.217   4.390  15.759  0.00  0.00    +0.000 A 
ATOM     11  C   UNL     1       5.321   3.732  14.911  0.00  0.00    +0.000 A 
ATOM     12  C   UNL     1       5.565   3.602  13.539  0.00  0.00    +0.000 A 
ATOM     13  C   UNL     1       6.715   4.174  12.997  0.00  0.00    +0.000 A 
ATOM     14 CL   UNL     1       7.076   3.938  11.333  0.00  0.00    +0.000 Cl
ATOM     15  C   UNL     1       7.564   4.933  13.797  0.00  0.00    +0.000 A 
ATOM     16  C   UNL     1       7.297   5.057  15.167  0.00  0.00    +0.000 A 
ENDBRANCH   8  10
ENDBRANCH   3   8
ENDBRANCH   1   3
BRANCH   1  17
ATOM     17  C   UNL     1       3.245   6.035  17.999  0.00  0.00    +0.000 C 
BRANCH  17  18
ATOM     18  C   UNL     1       2.524   7.318  18.520  0.00  0.00    +0.000 A 
ATOM     19  C   UNL     1       2.415   8.464  17.690  0.00  0.00    +0.000 A 
ATOM     20  C   UNL     1       1.731   9.617  18.091  0.00  0.00    +0.000 A 
ATOM     21  C   UNL     1       1.174   9.681  19.357  0.00  0.00    +0.000 A 
ATOM     22 CL   UNL     1       0.328  11.093  19.853  0.00  0.00    +0.000 Cl
ATOM     23  C   UNL     1       1.285   8.597  20.217  0.00  0.00    +0.000 A 
ATOM     24  C   UNL     1       1.928   7.420  19.799  0.00  0.00    +0.000 A 
ATOM     25 CL   UNL     1       1.871   6.116  20.933  0.00  0.00    +0.000 Cl
ENDBRANCH  17  18
BRANCH  17  26
ATOM     26  C   UNL     1       2.359   4.768  18.157  0.00  0.00    +0.000 C 
BRANCH  26  27
ATOM     27  N   UNL     1       3.014   3.536  18.540  0.00  0.00    +0.000 N 
ATOM     28  C   UNL     1       3.624   3.225  19.720  0.00  0.00    +0.000 A 
ATOM     29  C   UNL     1       3.973   1.901  19.605  0.00  0.00    +0.000 A 
ATOM     30  N   UNL     1       3.672   1.427  18.355  0.00  0.00    +0.000 NA
ATOM     31  C   UNL     1       3.112   2.437  17.731  0.00  0.00    +0.000 A 
ENDBRANCH  26  27
ENDBRANCH  17  26
ENDBRANCH   1  17
TORSDOF 9
ENDMDL
MODEL 3
REMARK VINA RESULT:      -7.1      0.876      1.386
REMARK  Name = 
REMARK  10 active torsions:
REMARK  status: ('A' for Active; 'I' for Inactive)
REMARK    1  A    between atoms: C_1  and  C_2
REMARK    2  A    between atoms: C_2  and  C_3
REMARK    3  A    between atoms: C_3  and  C_5
REMARK    4  A    between atoms: C_5  and  N_6
REMARK    5  A    between atoms: C_5  and  N_14
REMARK    6  A    between atoms: N_6  and  C_7
REMARK    7  A    between atoms: N_14  and  C_15
REMARK    8  A    between atoms: C_15  and  C_16
REMARK    9  A    between atoms: C_15  and  C_22
REMARK   10  A    between atoms: C_16  and  N_17
REMARK                            x       y       z     vdW  Elec       q    Type
REMARK                         _______ _______ _______ _____ _____    ______ ____
ROOT
ATOM      1  N   UNL     1       4.815   5.845  19.542  0.00  0.00    +0.000 NA
ATOM      2  H   UNL     1       4.917   6.816  19.833  0.00  0.00    +0.000 HD
ENDROOT
BRANCH   1   3
ATOM      3  C   UNL     1       5.821   5.619  18.497  0.00  0.00    +0.000 C 
BRANCH   3   4
ATOM      4  C   UNL     1       7.198   5.873  19.239  0.00  0.00    +0.000 C 
ATOM      5  O   UNL     1       7.493   5.319  20.306  0.00  0.00    +0.000 OA
BRANCH   4   7
ATOM      6  C   UNL     1       7.456   7.775  17.631  0.00  0.00    +0.000 C 
ATOM      7  C   UNL     1       8.153   6.895  18.651  0.00  0.00    +0.000 C 
ENDBRANCH   4   7
ENDBRANCH   3   4
BRANCH   3   8
ATOM      8  N   UNL     1       5.948   4.324  17.829  0.00  0.00    +0.000 N 
ATOM      9  H   UNL     1       5.287   3.644  18.187  0.00  0.00    +0.000 HD
BRANCH   8  10
ATOM     10  C   UNL     1       6.202   4.250  16.459  0.00  0.00    +0.000 A 
ATOM     11  C   UNL     1       7.370   4.766  15.891  0.00  0.00    +0.000 A 
ATOM     12  C   UNL     1       7.566   4.798  14.506  0.00  0.00    +0.000 A 
ATOM     13  C   UNL     1       6.584   4.265  13.671  0.00  0.00    +0.000 A 
ATOM     14 CL   UNL     1       6.767   4.385  11.965  0.00  0.00    +0.000 Cl
ATOM     15  C   UNL     1       5.466   3.640  14.213  0.00  0.00    +0.000 A 
ATOM     16  C   UNL     1       5.293   3.614  15.603  0.00  0.00    +0.000 A 
ENDBRANCH   8  10
ENDBRANCH   3   8
ENDBRANCH   1   3
BRANCH   1  17
ATOM     17  C   UNL     1       3.380   5.550  19.367  0.00  0.00    +0.000 C 
BRANCH  17  18
ATOM     18  C   UNL     1       2.535   6.850  19.552  0.00  0.00    +0.000 A 
ATOM     19  C   UNL     1       1.823   7.075  20.758  0.00  0.00    +0.000 A 
ATOM     20  C   UNL     1       1.097   8.249  20.992  0.00  0.00    +0.000 A 
ATOM     21  C   UNL     1       1.018   9.217  20.006  0.00  0.00    +0.000 A 
ATOM     22 CL   UNL     1       0.133  10.663  20.290  0.00  0.00    +0.000 Cl
ATOM     23  C   UNL     1       1.670   9.026  18.795  0.00  0.00    +0.000 A 
ATOM     24  C   UNL     1       2.441   7.870  18.577  0.00  0.00    +0.000 A 
ATOM     25 CL   UNL     1       3.294   7.838  17.074  0.00  0.00    +0.000 Cl
ENDBRANCH  17  18
BRANCH  17  26
ATOM     26  C   UNL     1       2.855   4.388  20.257  0.00  0.00    +0.000 C 
BRANCH  26  27
ATOM     27  N   UNL     1       2.124   3.324  19.605  0.00  0.00    +0.000 N 
ATOM     28  C   UNL     1       2.611   2.238  18.937  0.00  0.00    +0.000 A 
ATOM     29  C   UNL     1       1.505   1.486  18.621  0.00  0.00    +0.000 A 
ATOM     30  N   UNL     1       0.356   2.130  18.999  0.00  0.00    +0.000 NA
ATOM     31  C   UNL     1       0.758   3.240  19.573  0.00  0.00    +0.000 A 
ENDBRANCH  26  27
ENDBRANCH  17  26
ENDBRANCH   1  17
TORSDOF 9
ENDMDL
MODEL 4
REMARK VINA RESULT:      -7.0      1.111      1.286
REMARK  Name = 
REMARK  10 active torsions:
REMARK  status: ('A' for Active; 'I' for Inactive)
REMARK    1  A    between atoms: C_1  and  C_2
REMARK    2  A    between atoms: C_2  and  C_3
REMARK    3  A    between atoms: C_3  and  C_5
REMARK    4  A    between atoms: C_5  and  N_6
REMARK    5  A    between atoms: C_5  and  N_14
REMARK    6  A    between atoms: N_6  and  C_7
REMARK    7  A    between atoms: N_14  and  C_15
REMARK    8  A    between atoms: C_15  and  C_16
REMARK    9  A    between atoms: C_15  and  C_22
REMARK   10  A    between atoms: C_16  and  N_17
REMARK                            x       y       z     vdW  Elec       q    Type
REMARK                         _______ _______ _______ _____ _____    ______ ____
ROOT
ATOM      1  N   UNL     1       6.131   5.341  18.175  0.00  0.00    +0.000 NA
ATOM      2  H   UNL     1       6.282   5.841  19.049  0.00  0.00    +0.000 HD
ENDROOT
BRANCH   1   3
ATOM      3  C   UNL     1       6.730   6.165  17.118  0.00  0.00    +0.000 C 
BRANCH   3   4
ATOM      4  C   UNL     1       7.673   7.163  17.908  0.00  0.00    +0.000 C 
ATOM      5  O   UNL     1       8.401   6.798  18.839  0.00  0.00    +0.000 OA
BRANCH   4   7
ATOM      6  C   UNL     1       8.612   9.439  18.371  0.00  0.00    +0.000 C 
ATOM      7  C   UNL     1       7.617   8.638  17.552  0.00  0.00    +0.000 C 
ENDBRANCH   4   7
ENDBRANCH   3   4
BRANCH   3   8
ATOM      8  N   UNL     1       7.553   5.572  16.064  0.00  0.00    +0.000 N 
ATOM      9  H   UNL     1       8.367   5.097  16.437  0.00  0.00    +0.000 HD
BRANCH   8  10
ATOM     10  C   UNL     1       6.964   4.966  14.953  0.00  0.00    +0.000 A 
ATOM     11  C   UNL     1       5.734   4.306  15.033  0.00  0.00    +0.000 A 
ATOM     12  C   UNL     1       5.206   3.597  13.948  0.00  0.00    +0.000 A 
ATOM     13  C   UNL     1       5.908   3.579  12.744  0.00  0.00    +0.000 A 
ATOM     14 CL   UNL     1       5.319   2.632  11.434  0.00  0.00    +0.000 Cl
ATOM     15  C   UNL     1       7.075   4.323  12.601  0.00  0.00    +0.000 A 
ATOM     16  C   UNL     1       7.582   5.031  13.699  0.00  0.00    +0.000 A 
ENDBRANCH   8  10
ENDBRANCH   3   8
ENDBRANCH   1   3
BRANCH   1  17
ATOM     17  C   UNL     1       4.736   4.859  18.139  0.00  0.00    +0.000 C 
BRANCH  17  18
ATOM     18  C   UNL     1       3.755   6.024  18.484  0.00  0.00    +0.000 A 
ATOM     19  C   UNL     1       3.083   6.047  19.733  0.00  0.00    +0.000 A 
ATOM     20  C   UNL     1       2.237   7.096  20.110  0.00  0.00    +0.000 A 
ATOM     21  C   UNL     1       1.995   8.135  19.228  0.00  0.00    +0.000 A 
ATOM     22 CL   UNL     1       0.960   9.429  19.687  0.00  0.00    +0.000 Cl
ATOM     23  C   UNL     1       2.602   8.138  17.979  0.00  0.00    +0.000 A 
ATOM     24  C   UNL     1       3.491   7.111  17.618  0.00  0.00    +0.000 A 
ATOM     25 CL   UNL     1       4.265   7.323  16.087  0.00  0.00    +0.000 Cl
ENDBRANCH  17  18
BRANCH  17  26
ATOM     26  C   UNL     1       4.474   3.603  19.015  0.00  0.00    +0.000 C 
BRANCH  26  27
ATOM     27  N   UNL     1       3.149   3.023  18.973  0.00  0.00    +0.000 N 
ATOM     28  C   UNL     1       2.374   2.591  20.009  0.00  0.00    +0.000 A 
ATOM     29  C   UNL     1       1.173   2.244  19.439  0.00  0.00    +0.000 A 
ATOM     30  N   UNL     1       1.230   2.370  18.075  0.00  0.00    +0.000 NA
ATOM     31  C   UNL     1       2.435   2.824  17.823  0.00  0.00    +0.000 A 
ENDBRANCH  26  27
ENDBRANCH  17  26
ENDBRANCH   1  17
TORSDOF 9
ENDMDL
MODEL 5
REMARK VINA RESULT:      -7.0      1.401      2.024
REMARK  Name = 
REMARK  10 active torsions:
REMARK  status: ('A' for Active; 'I' for Inactive)
REMARK    1  A    between atoms: C_1  and  C_2
REMARK    2  A    between atoms: C_2  and  C_3
REMARK    3  A    between atoms: C_3  and  C_5
REMARK    4  A    between atoms: C_5  and  N_6
REMARK    5  A    between atoms: C_5  and  N_14
REMARK    6  A    between atoms: N_6  and  C_7
REMARK    7  A    between atoms: N_14  and  C_15
REMARK    8  A    between atoms: C_15  and  C_16
REMARK    9  A    between atoms: C_15  and  C_22
REMARK   10  A    between atoms: C_16  and  N_17
REMARK                            x       y       z     vdW  Elec       q    Type
REMARK                         _______ _______ _______ _____ _____    ______ ____
ROOT
ATOM      1  N   UNL     1       4.416   5.814  18.804  0.00  0.00    +0.000 NA
ATOM      2  H   UNL     1       4.665   6.555  19.457  0.00  0.00    +0.000 HD
ENDROOT
BRANCH   1   3
ATOM      3  C   UNL     1       5.601   5.582  17.970  0.00  0.00    +0.000 C 
BRANCH   3   4
ATOM      4  C   UNL     1       6.810   5.729  18.983  0.00  0.00    +0.000 C 
ATOM      5  O   UNL     1       6.842   5.145  20.074  0.00  0.00    +0.000 OA
BRANCH   4   7
ATOM      6  C   UNL     1       7.489   7.689  17.579  0.00  0.00    +0.000 C 
ATOM      7  C   UNL     1       7.933   6.687  18.629  0.00  0.00    +0.000 C 
ENDBRANCH   4   7
ENDBRANCH   3   4
BRANCH   3   8
ATOM      8  N   UNL     1       5.805   4.314  17.271  0.00  0.00    +0.000 N 
ATOM      9  H   UNL     1       5.120   3.616  17.540  0.00  0.00    +0.000 HD
BRANCH   8  10
ATOM     10  C   UNL     1       6.186   4.291  15.928  0.00  0.00    +0.000 A 
ATOM     11  C   UNL     1       7.364   4.897  15.482  0.00  0.00    +0.000 A 
ATOM     12  C   UNL     1       7.682   4.976  14.121  0.00  0.00    +0.000 A 
ATOM     13  C   UNL     1       6.818   4.403  13.189  0.00  0.00    +0.000 A 
ATOM     14 CL   UNL     1       7.147   4.579  11.510  0.00  0.00    +0.000 Cl
ATOM     15  C   UNL     1       5.699   3.693  13.612  0.00  0.00    +0.000 A 
ATOM     16  C   UNL     1       5.403   3.621  14.980  0.00  0.00    +0.000 A 
ENDBRANCH   8  10
ENDBRANCH   3   8
ENDBRANCH   1   3
BRANCH   1  17
ATOM     17  C   UNL     1       3.076   6.097  18.254  0.00  0.00    +0.000 C 
BRANCH  17  18
ATOM     18  C   UNL     1       2.285   7.039  19.217  0.00  0.00    +0.000 A 
ATOM     19  C   UNL     1       1.895   6.582  20.503  0.00  0.00    +0.000 A 
ATOM     20  C   UNL     1       1.233   7.405  21.421  0.00  0.00    +0.000 A 
ATOM     21  C   UNL     1       0.896   8.700  21.066  0.00  0.00    +0.000 A 
ATOM     22 CL   UNL     1       0.088   9.717  22.192  0.00  0.00    +0.000 Cl
ATOM     23  C   UNL     1       1.226   9.180  19.806  0.00  0.00    +0.000 A 
ATOM     24  C   UNL     1       1.935   8.372  18.900  0.00  0.00    +0.000 A 
ATOM     25 CL   UNL     1       2.385   9.153  17.425  0.00  0.00    +0.000 Cl
ENDBRANCH  17  18
BRANCH  17  26
ATOM     26  C   UNL     1       2.258   4.829  17.885  0.00  0.00    +0.000 C 
BRANCH  26  27
ATOM     27  N   UNL     1       2.745   3.554  18.368  0.00  0.00    +0.000 N 
ATOM     28  C   UNL     1       2.973   2.407  17.666  0.00  0.00    +0.000 A 
ATOM     29  C   UNL     1       3.540   1.541  18.569  0.00  0.00    +0.000 A 
ATOM     30  N   UNL     1       3.579   2.101  19.820  0.00  0.00    +0.000 NA
ATOM     31  C   UNL     1       3.079   3.305  19.671  0.00  0.00    +0.000 A 
ENDBRANCH  26  27
ENDBRANCH  17  26
ENDBRANCH   1  17
TORSDOF 9
ENDMDL
MODEL 6
REMARK VINA RESULT:      -7.0      2.543      6.443
REMARK  Name = 
REMARK  10 active torsions:
REMARK  status: ('A' for Active; 'I' for Inactive)
REMARK    1  A    between atoms: C_1  and  C_2
REMARK    2  A    between atoms: C_2  and  C_3
REMARK    3  A    between atoms: C_3  and  C_5
REMARK    4  A    between atoms: C_5  and  N_6
REMARK    5  A    between atoms: C_5  and  N_14
REMARK    6  A    between atoms: N_6  and  C_7
REMARK    7  A    between atoms: N_14  and  C_15
REMARK    8  A    between atoms: C_15  and  C_16
REMARK    9  A    between atoms: C_15  and  C_22
REMARK   10  A    between atoms: C_16  and  N_17
REMARK                            x       y       z     vdW  Elec       q    Type
REMARK                         _______ _______ _______ _____ _____    ______ ____
ROOT
ATOM      1  N   UNL     1       4.029   5.466  16.454  0.00  0.00    +0.000 NA
ATOM      2  H   UNL     1       4.765   5.775  15.821  0.00  0.00    +0.000 HD
ENDROOT
BRANCH   1   3
ATOM      3  C   UNL     1       4.078   6.363  17.614  0.00  0.00    +0.000 C 
BRANCH   3   4
ATOM      4  C   UNL     1       5.614   6.734  17.739  0.00  0.00    +0.000 C 
ATOM      5  O   UNL     1       6.161   7.567  17.005  0.00  0.00    +0.000 OA
BRANCH   4   7
ATOM      6  C   UNL     1       7.907   6.415  18.694  0.00  0.00    +0.000 C 
ATOM      7  C   UNL     1       6.456   5.976  18.749  0.00  0.00    +0.000 C 
ENDBRANCH   4   7
ENDBRANCH   3   4
BRANCH   3   8
ATOM      8  N   UNL     1       3.349   7.631  17.627  0.00  0.00    +0.000 N 
ATOM      9  H   UNL     1       2.993   7.876  16.710  0.00  0.00    +0.000 HD
BRANCH   8  10
ATOM     10  C   UNL     1       2.522   7.969  18.700  0.00  0.00    +0.000 A 
ATOM     11  C   UNL     1       2.398   7.152  19.827  0.00  0.00    +0.000 A 
ATOM     12  C   UNL     1       1.479   7.432  20.844  0.00  0.00    +0.000 A 
ATOM     13  C   UNL     1       0.691   8.578  20.748  0.00  0.00    +0.000 A 
ATOM     14 CL   UNL     1      -0.510   8.883  21.940  0.00  0.00    +0.000 Cl
ATOM     15  C   UNL     1       0.875   9.470  19.696  0.00  0.00    +0.000 A 
ATOM     16  C   UNL     1       1.807   9.172  18.692  0.00  0.00    +0.000 A 
ENDBRANCH   8  10
ENDBRANCH   3   8
ENDBRANCH   1   3
BRANCH   1  17
ATOM     17  C   UNL     1       4.082   3.995  16.561  0.00  0.00    +0.000 C 
BRANCH  17  18
ATOM     18  C   UNL     1       3.500   3.532  17.934  0.00  0.00    +0.000 A 
ATOM     19  C   UNL     1       4.342   2.922  18.899  0.00  0.00    +0.000 A 
ATOM     20  C   UNL     1       3.879   2.540  20.163  0.00  0.00    +0.000 A 
ATOM     21  C   UNL     1       2.545   2.712  20.488  0.00  0.00    +0.000 A 
ATOM     22 CL   UNL     1       1.972   2.251  22.042  0.00  0.00    +0.000 Cl
ATOM     23  C   UNL     1       1.674   3.274  19.564  0.00  0.00    +0.000 A 
ATOM     24  C   UNL     1       2.147   3.704  18.311  0.00  0.00    +0.000 A 
ATOM     25 CL   UNL     1       0.972   4.499  17.323  0.00  0.00    +0.000 Cl
ENDBRANCH  17  18
BRANCH  17  26
ATOM     26  C   UNL     1       5.487   3.387  16.294  0.00  0.00    +0.000 C 
BRANCH  26  27
ATOM     27  N   UNL     1       6.269   3.956  15.218  0.00  0.00    +0.000 N 
ATOM     28  C   UNL     1       6.092   3.823  13.872  0.00  0.00    +0.000 A 
ATOM     29  C   UNL     1       7.026   4.655  13.303  0.00  0.00    +0.000 A 
ATOM     30  N   UNL     1       7.823   5.219  14.265  0.00  0.00    +0.000 NA
ATOM     31  C   UNL     1       7.355   4.768  15.405  0.00  0.00    +0.000 A 
ENDBRANCH  26  27
ENDBRANCH  17  26
ENDBRANCH   1  17
TORSDOF 9
ENDMDL
MODEL 7
REMARK VINA RESULT:      -6.9      1.228      1.423
REMARK  Name = 
REMARK  10 active torsions:
REMARK  status: ('A' for Active; 'I' for Inactive)
REMARK    1  A    between atoms: C_1  and  C_2
REMARK    2  A    between atoms: C_2  and  C_3
REMARK    3  A    between atoms: C_3  and  C_5
REMARK    4  A    between atoms: C_5  and  N_6
REMARK    5  A    between atoms: C_5  and  N_14
REMARK    6  A    between atoms: N_6  and  C_7
REMARK    7  A    between atoms: N_14  and  C_15
REMARK    8  A    between atoms: C_15  and  C_16
REMARK    9  A    between atoms: C_15  and  C_22
REMARK   10  A    between atoms: C_16  and  N_17
REMARK                            x       y       z     vdW  Elec       q    Type
REMARK                         _______ _______ _______ _____ _____    ______ ____
ROOT
ATOM      1  N   UNL     1       4.540   6.716  18.881  0.00  0.00    +0.000 NA
ATOM      2  H   UNL     1       4.489   7.707  18.650  0.00  0.00    +0.000 HD
ENDROOT
BRANCH   1   3
ATOM      3  C   UNL     1       5.529   6.130  17.969  0.00  0.00    +0.000 C 
BRANCH   3   4
ATOM      4  C   UNL     1       6.797   5.892  18.889  0.00  0.00    +0.000 C 
ATOM      5  O   UNL     1       6.788   5.110  19.849  0.00  0.00    +0.000 OA
BRANCH   4   7
ATOM      6  C   UNL     1       7.752   7.860  17.669  0.00  0.00    +0.000 C 
ATOM      7  C   UNL     1       8.043   6.718  18.624  0.00  0.00    +0.000 C 
ENDBRANCH   4   7
ENDBRANCH   3   4
BRANCH   3   8
ATOM      8  N   UNL     1       5.278   4.863  17.283  0.00  0.00    +0.000 N 
ATOM      9  H   UNL     1       4.383   4.462  17.541  0.00  0.00    +0.000 HD
BRANCH   8  10
ATOM     10  C   UNL     1       5.653   4.684  15.951  0.00  0.00    +0.000 A 
ATOM     11  C   UNL     1       4.788   4.128  15.005  0.00  0.00    +0.000 A 
ATOM     12  C   UNL     1       5.207   3.839  13.701  0.00  0.00    +0.000 A 
ATOM     13  C   UNL     1       6.514   4.149  13.326  0.00  0.00    +0.000 A 
ATOM     14 CL   UNL     1       7.072   3.710  11.760  0.00  0.00    +0.000 Cl
ATOM     15  C   UNL     1       7.361   4.808  14.211  0.00  0.00    +0.000 A 
ATOM     16  C   UNL     1       6.917   5.094  15.510  0.00  0.00    +0.000 A 
ENDBRANCH   8  10
ENDBRANCH   3   8
ENDBRANCH   1   3
BRANCH   1  17
ATOM     17  C   UNL     1       3.169   6.193  19.038  0.00  0.00    +0.000 C 
BRANCH  17  18
ATOM     18  C   UNL     1       2.224   7.313  19.580  0.00  0.00    +0.000 A 
ATOM     19  C   UNL     1       1.661   7.207  20.878  0.00  0.00    +0.000 A 
ATOM     20  C   UNL     1       0.853   8.209  21.428  0.00  0.00    +0.000 A 
ATOM     21  C   UNL     1       0.541   9.329  20.678  0.00  0.00    +0.000 A 
ATOM     22 CL   UNL     1      -0.447  10.566  21.350  0.00  0.00    +0.000 Cl
ATOM     23  C   UNL     1       1.040   9.461  19.389  0.00  0.00    +0.000 A 
ATOM     24  C   UNL     1       1.893   8.480  18.853  0.00  0.00    +0.000 A 
ATOM     25 CL   UNL     1       2.535   8.848  17.291  0.00  0.00    +0.000 Cl
ENDBRANCH  17  18
BRANCH  17  26
ATOM     26  C   UNL     1       3.076   4.896  19.889  0.00  0.00    +0.000 C 
BRANCH  26  27
ATOM     27  N   UNL     1       2.179   3.857  19.429  0.00  0.00    +0.000 N 
ATOM     28  C   UNL     1       1.414   3.003  20.167  0.00  0.00    +0.000 A 
ATOM     29  C   UNL     1       0.667   2.306  19.249  0.00  0.00    +0.000 A 
ATOM     30  N   UNL     1       1.023   2.652  17.971  0.00  0.00    +0.000 NA
ATOM     31  C   UNL     1       1.946   3.574  18.111  0.00  0.00    +0.000 A 
ENDBRANCH  26  27
ENDBRANCH  17  26
ENDBRANCH   1  17
TORSDOF 9
ENDMDL
MODEL 8
REMARK VINA RESULT:      -6.9      2.408      6.815
REMARK  Name = 
REMARK  10 active torsions:
REMARK  status: ('A' for Active; 'I' for Inactive)
REMARK    1  A    between atoms: C_1  and  C_2
REMARK    2  A    between atoms: C_2  and  C_3
REMARK    3  A    between atoms: C_3  and  C_5
REMARK    4  A    between atoms: C_5  and  N_6
REMARK    5  A    between atoms: C_5  and  N_14
REMARK    6  A    between atoms: N_6  and  C_7
REMARK    7  A    between atoms: N_14  and  C_15
REMARK    8  A    between atoms: C_15  and  C_16
REMARK    9  A    between atoms: C_15  and  C_22
REMARK   10  A    between atoms: C_16  and  N_17
REMARK                            x       y       z     vdW  Elec       q    Type
REMARK                         _______ _______ _______ _____ _____    ______ ____
ROOT
ATOM      1  N   UNL     1       4.291   3.646  17.216  0.00  0.00    +0.000 NA
ATOM      2  H   UNL     1       3.782   2.876  16.785  0.00  0.00    +0.000 HD
ENDROOT
BRANCH   1   3
ATOM      3  C   UNL     1       3.278   4.584  17.714  0.00  0.00    +0.000 C 
BRANCH   3   4
ATOM      4  C   UNL     1       2.012   3.667  17.974  0.00  0.00    +0.000 C 
ATOM      5  O   UNL     1       0.942   3.819  17.369  0.00  0.00    +0.000 OA
BRANCH   4   7
ATOM      6  C   UNL     1       1.190   2.954  20.230  0.00  0.00    +0.000 C 
ATOM      7  C   UNL     1       2.098   2.614  19.063  0.00  0.00    +0.000 C 
ENDBRANCH   4   7
ENDBRANCH   3   4
BRANCH   3   8
ATOM      8  N   UNL     1       3.487   5.350  18.942  0.00  0.00    +0.000 N 
ATOM      9  H   UNL     1       4.455   5.332  19.242  0.00  0.00    +0.000 HD
BRANCH   8  10
ATOM     10  C   UNL     1       2.816   6.555  19.156  0.00  0.00    +0.000 A 
ATOM     11  C   UNL     1       2.217   6.864  20.380  0.00  0.00    +0.000 A 
ATOM     12  C   UNL     1       1.444   8.018  20.552  0.00  0.00    +0.000 A 
ATOM     13  C   UNL     1       1.297   8.901  19.484  0.00  0.00    +0.000 A 
ATOM     14 CL   UNL     1       0.271  10.271  19.651  0.00  0.00    +0.000 Cl
ATOM     15  C   UNL     1       1.976   8.678  18.290  0.00  0.00    +0.000 A 
ATOM     16  C   UNL     1       2.751   7.519  18.142  0.00  0.00    +0.000 A 
ENDBRANCH   8  10
ENDBRANCH   3   8
ENDBRANCH   1   3
BRANCH   1  17
ATOM     17  C   UNL     1       5.397   4.043  16.322  0.00  0.00    +0.000 C 
BRANCH  17  18
ATOM     18  C   UNL     1       6.207   5.218  16.956  0.00  0.00    +0.000 A 
ATOM     19  C   UNL     1       7.258   4.950  17.871  0.00  0.00    +0.000 A 
ATOM     20  C   UNL     1       8.047   5.966  18.423  0.00  0.00    +0.000 A 
ATOM     21  C   UNL     1       7.780   7.288  18.115  0.00  0.00    +0.000 A 
ATOM     22 CL   UNL     1       8.751   8.539  18.785  0.00  0.00    +0.000 Cl
ATOM     23  C   UNL     1       6.740   7.601  17.251  0.00  0.00    +0.000 A 
ATOM     24  C   UNL     1       5.977   6.581  16.656  0.00  0.00    +0.000 A 
ATOM     25 CL   UNL     1       4.805   7.123  15.507  0.00  0.00    +0.000 Cl
ENDBRANCH  17  18
BRANCH  17  26
ATOM     26  C   UNL     1       4.955   4.363  14.867  0.00  0.00    +0.000 C 
BRANCH  26  27
ATOM     27  N   UNL     1       5.942   4.212  13.820  0.00  0.00    +0.000 N 
ATOM     28  C   UNL     1       5.936   3.354  12.759  0.00  0.00    +0.000 A 
ATOM     29  C   UNL     1       7.036   3.700  12.012  0.00  0.00    +0.000 A 
ATOM     30  N   UNL     1       7.757   4.684  12.636  0.00  0.00    +0.000 NA
ATOM     31  C   UNL     1       7.085   4.960  13.729  0.00  0.00    +0.000 A 
ENDBRANCH  26  27
ENDBRANCH  17  26
ENDBRANCH   1  17
TORSDOF 9
ENDMDL
MODEL 9
REMARK VINA RESULT:      -6.8      2.119      3.212
REMARK  Name = 
REMARK  10 active torsions:
REMARK  status: ('A' for Active; 'I' for Inactive)
REMARK    1  A    between atoms: C_1  and  C_2
REMARK    2  A    between atoms: C_2  and  C_3
REMARK    3  A    between atoms: C_3  and  C_5
REMARK    4  A    between atoms: C_5  and  N_6
REMARK    5  A    between atoms: C_5  and  N_14
REMARK    6  A    between atoms: N_6  and  C_7
REMARK    7  A    between atoms: N_14  and  C_15
REMARK    8  A    between atoms: C_15  and  C_16
REMARK    9  A    between atoms: C_15  and  C_22
REMARK   10  A    between atoms: C_16  and  N_17
REMARK                            x       y       z     vdW  Elec       q    Type
REMARK                         _______ _______ _______ _____ _____    ______ ____
ROOT
ATOM      1  N   UNL     1       3.165   6.136  18.261  0.00  0.00    +0.000 NA
ATOM      2  H   UNL     1       2.853   5.396  17.635  0.00  0.00    +0.000 HD
ENDROOT
BRANCH   1   3
ATOM      3  C   UNL     1       4.476   5.720  18.772  0.00  0.00    +0.000 C 
BRANCH   3   4
ATOM      4  C   UNL     1       4.404   4.137  18.750  0.00  0.00    +0.000 C 
ATOM      5  O   UNL     1       5.098   3.427  19.490  0.00  0.00    +0.000 OA
BRANCH   4   7
ATOM      6  C   UNL     1       3.344   1.991  18.011  0.00  0.00    +0.000 C 
ATOM      7  C   UNL     1       3.504   3.473  17.725  0.00  0.00    +0.000 C 
ENDBRANCH   4   7
ENDBRANCH   3   4
BRANCH   3   8
ATOM      8  N   UNL     1       5.714   6.083  18.082  0.00  0.00    +0.000 N 
ATOM      9  H   UNL     1       6.510   6.097  18.709  0.00  0.00    +0.000 HD
BRANCH   8  10
ATOM     10  C   UNL     1       5.975   5.617  16.792  0.00  0.00    +0.000 A 
ATOM     11  C   UNL     1       5.270   6.081  15.678  0.00  0.00    +0.000 A 
ATOM     12  C   UNL     1       5.451   5.525  14.406  0.00  0.00    +0.000 A 
ATOM     13  C   UNL     1       6.387   4.505  14.240  0.00  0.00    +0.000 A 
ATOM     14 CL   UNL     1       6.550   3.747  12.705  0.00  0.00    +0.000 Cl
ATOM     15  C   UNL     1       7.185   4.104  15.307  0.00  0.00    +0.000 A 
ATOM     16  C   UNL     1       6.992   4.679  16.570  0.00  0.00    +0.000 A 
ENDBRANCH   8  10
ENDBRANCH   3   8
ENDBRANCH   1   3
BRANCH   1  17
ATOM     17  C   UNL     1       2.039   6.527  19.132  0.00  0.00    +0.000 C 
BRANCH  17  18
ATOM     18  C   UNL     1       1.820   8.072  19.070  0.00  0.00    +0.000 A 
ATOM     19  C   UNL     1       2.324   8.822  17.976  0.00  0.00    +0.000 A 
ATOM     20  C   UNL     1       2.106  10.199  17.848  0.00  0.00    +0.000 A 
ATOM     21  C   UNL     1       1.418  10.881  18.837  0.00  0.00    +0.000 A 
ATOM     22 CL   UNL     1       1.143  12.571  18.682  0.00  0.00    +0.000 Cl
ATOM     23  C   UNL     1       0.936  10.195  19.943  0.00  0.00    +0.000 A 
ATOM     24  C   UNL     1       1.109   8.804  20.049  0.00  0.00    +0.000 A 
ATOM     25 CL   UNL     1       0.342   8.077  21.417  0.00  0.00    +0.000 Cl
ENDBRANCH  17  18
BRANCH  17  26
ATOM     26  C   UNL     1       2.161   6.019  20.596  0.00  0.00    +0.000 C 
BRANCH  26  27
ATOM     27  N   UNL     1       1.845   4.630  20.850  0.00  0.00    +0.000 N 
ATOM     28  C   UNL     1       2.378   3.791  21.785  0.00  0.00    +0.000 A 
ATOM     29  C   UNL     1       1.650   2.631  21.682  0.00  0.00    +0.000 A 
ATOM     30  N   UNL     1       0.750   2.712  20.651  0.00  0.00    +0.000 NA
ATOM     31  C   UNL     1       0.902   3.919  20.159  0.00  0.00    +0.000 A 
ENDBRANCH  26  27
ENDBRANCH  17  26
ENDBRANCH   1  17
TORSDOF 9
ENDMDL
