MODEL 1
REMARK VINA RESULT:      -6.9      0.000      0.000
REMARK  Name = 
REMARK  11 active torsions:
REMARK  status: ('A' for Active; 'I' for Inactive)
REMARK    1  A    between atoms: C_1  and  C_2
REMARK    2  A    between atoms: C_2  and  C_3
REMARK    3  A    between atoms: C_3  and  C_4
REMARK    4  A    between atoms: C_4  and  N_5
REMARK    5  A    between atoms: N_5  and  C_6
REMARK    6  A    between atoms: N_5  and  C_10
REMARK    7  A    between atoms: C_6  and  C_7
REMARK    8  A    between atoms: C_7  and  C_8
REMARK    9  A    between atoms: C_8  and  C_9
REMARK   10  A    between atoms: C_18  and  O_19
REMARK   11  A    between atoms: O_19  and  C_20
REMARK                            x       y       z     vdW  Elec       q    Type
REMARK                         _______ _______ _______ _____ _____    ______ ____
ROOT
ATOM      1  C   UNL     1       4.835   4.918  17.041  0.00  0.00    +0.000 C 
ATOM      2  C   UNL     1       3.772   3.815  16.846  0.00  0.00    +0.000 C 
ATOM      3  C   UNL     1       3.111   3.434  18.179  0.00  0.00    +0.000 C 
ATOM      4  C   UNL     1       2.625   4.624  18.969  0.00  0.00    +0.000 A 
ATOM      5  C   UNL     1       3.073   5.925  18.646  0.00  0.00    +0.000 A 
ATOM      6  C   UNL     1       2.572   7.022  19.362  0.00  0.00    +0.000 A 
ATOM      7  C   UNL     1       1.667   6.837  20.404  0.00  0.00    +0.000 A 
ATOM      8  C   UNL     1       1.245   5.555  20.746  0.00  0.00    +0.000 A 
ATOM      9  C   UNL     1       1.717   4.432  20.037  0.00  0.00    +0.000 A 
ATOM     10  C   UNL     1       4.092   6.186  17.554  0.00  0.00    +0.000 C 
ENDROOT
BRANCH   9  11
ATOM     11  O   UNL     1       1.304   3.169  20.348  0.00  0.00    +0.000 OA
ATOM     12  C   UNL     1       1.501   2.536  21.558  0.00  0.00    +0.000 C 
ENDBRANCH   9  11
BRANCH   1  13
ATOM     13  N   UNL     1       5.630   5.198  15.787  0.00  0.00    +0.000 NA
BRANCH  13  14
ATOM     14  C   UNL     1       7.086   5.391  16.081  0.00  0.00    +0.000 C 
BRANCH  14  15
ATOM     15  C   UNL     1       7.555   4.877  17.461  0.00  0.00    +0.000 C 
BRANCH  15  17
ATOM     16  C   UNL     1       7.731   7.373  17.789  0.00  0.00    +0.000 C 
ATOM     17  C   UNL     1       7.731   6.011  18.482  0.00  0.00    +0.000 C 
ENDBRANCH  15  17
ENDBRANCH  14  15
ENDBRANCH  13  14
BRANCH  13  18
ATOM     18  C   UNL     1       5.404   4.183  14.709  0.00  0.00    +0.000 C 
BRANCH  18  19
ATOM     19  C   UNL     1       6.594   4.057  13.730  0.00  0.00    +0.000 C 
BRANCH  19  20
ATOM     20  C   UNL     1       6.224   3.390  12.405  0.00  0.00    +0.000 C 
ATOM     21  C   UNL     1       4.711   3.483  12.196  0.00  0.00    +0.000 C 
ENDBRANCH  19  20
ENDBRANCH  18  19
ENDBRANCH  13  18
ENDBRANCH   1  13
TORSDOF 8
ENDMDL
MODEL 2
REMARK VINA RESULT:      -6.7      1.941      4.269
REMARK  Name = 
REMARK  11 active torsions:
REMARK  status: ('A' for Active; 'I' for Inactive)
REMARK    1  A    between atoms: C_1  and  C_2
REMARK    2  A    between atoms: C_2  and  C_3
REMARK    3  A    between atoms: C_3  and  C_4
REMARK    4  A    between atoms: C_4  and  N_5
REMARK    5  A    between atoms: N_5  and  C_6
REMARK    6  A    between atoms: N_5  and  C_10
REMARK    7  A    between atoms: C_6  and  C_7
REMARK    8  A    between atoms: C_7  and  C_8
REMARK    9  A    between atoms: C_8  and  C_9
REMARK   10  A    between atoms: C_18  and  O_19
REMARK   11  A    between atoms: O_19  and  C_20
REMARK                            x       y       z     vdW  Elec       q    Type
REMARK                         _______ _______ _______ _____ _____    ______ ____
ROOT
ATOM      1  C   UNL     1       4.430   5.575  18.702  0.00  0.00    +0.000 C 
ATOM      2  C   UNL     1       3.276   5.015  19.563  0.00  0.00    +0.000 C 
ATOM      3  C   UNL     1       2.618   6.121  20.401  0.00  0.00    +0.000 C 
ATOM      4  C   UNL     1       2.248   7.343  19.598  0.00  0.00    +0.000 A 
ATOM      5  C   UNL     1       2.793   7.540  18.308  0.00  0.00    +0.000 A 
ATOM      6  C   UNL     1       2.398   8.658  17.559  0.00  0.00    +0.000 A 
ATOM      7  C   UNL     1       1.505   9.587  18.086  0.00  0.00    +0.000 A 
ATOM      8  C   UNL     1       0.989   9.414  19.367  0.00  0.00    +0.000 A 
ATOM      9  C   UNL     1       1.351   8.294  20.141  0.00  0.00    +0.000 A 
ATOM     10  C   UNL     1       3.804   6.589  17.699  0.00  0.00    +0.000 C 
ENDROOT
BRANCH   9  11
ATOM     11  O   UNL     1       0.845   8.099  21.393  0.00  0.00    +0.000 OA
ATOM     12  C   UNL     1      -0.001   8.962  22.059  0.00  0.00    +0.000 C 
ENDBRANCH   9  11
BRANCH   1  13
ATOM     13  N   UNL     1       5.216   4.495  17.997  0.00  0.00    +0.000 NA
BRANCH  13  14
ATOM     14  C   UNL     1       4.742   4.285  16.593  0.00  0.00    +0.000 C 
BRANCH  14  15
ATOM     15  C   UNL     1       5.796   3.711  15.618  0.00  0.00    +0.000 C 
BRANCH  15  17
ATOM     16  C   UNL     1       6.137   3.697  13.118  0.00  0.00    +0.000 C 
ATOM     17  C   UNL     1       5.963   4.573  14.359  0.00  0.00    +0.000 C 
ENDBRANCH  15  17
ENDBRANCH  14  15
ENDBRANCH  13  14
BRANCH  13  18
ATOM     18  C   UNL     1       6.698   4.708  18.064  0.00  0.00    +0.000 C 
BRANCH  18  19
ATOM     19  C   UNL     1       7.089   6.142  18.489  0.00  0.00    +0.000 C 
BRANCH  19  20
ATOM     20  C   UNL     1       7.495   7.035  17.316  0.00  0.00    +0.000 C 
ATOM     21  C   UNL     1       8.018   8.369  17.853  0.00  0.00    +0.000 C 
ENDBRANCH  19  20
ENDBRANCH  18  19
ENDBRANCH  13  18
ENDBRANCH   1  13
TORSDOF 8
ENDMDL
MODEL 3
REMARK VINA RESULT:      -6.6      2.595      4.791
REMARK  Name = 
REMARK  11 active torsions:
REMARK  status: ('A' for Active; 'I' for Inactive)
REMARK    1  A    between atoms: C_1  and  C_2
REMARK    2  A    between atoms: C_2  and  C_3
REMARK    3  A    between atoms: C_3  and  C_4
REMARK    4  A    between atoms: C_4  and  N_5
REMARK    5  A    between atoms: N_5  and  C_6
REMARK    6  A    between atoms: N_5  and  C_10
REMARK    7  A    between atoms: C_6  and  C_7
REMARK    8  A    between atoms: C_7  and  C_8
REMARK    9  A    between atoms: C_8  and  C_9
REMARK   10  A    between atoms: C_18  and  O_19
REMARK   11  A    between atoms: O_19  and  C_20
REMARK                            x       y       z     vdW  Elec       q    Type
REMARK                         _______ _______ _______ _____ _____    ______ ____
ROOT
ATOM      1  C   UNL     1       3.644   5.751  19.259  0.00  0.00    +0.000 C 
ATOM      2  C   UNL     1       2.351   5.374  20.016  0.00  0.00    +0.000 C 
ATOM      3  C   UNL     1       1.774   6.580  20.770  0.00  0.00    +0.000 C 
ATOM      4  C   UNL     1       1.648   7.817  19.917  0.00  0.00    +0.000 A 
ATOM      5  C   UNL     1       2.331   7.904  18.682  0.00  0.00    +0.000 A 
ATOM      6  C   UNL     1       2.162   9.044  17.882  0.00  0.00    +0.000 A 
ATOM      7  C   UNL     1       1.358  10.097  18.307  0.00  0.00    +0.000 A 
ATOM      8  C   UNL     1       0.707  10.031  19.536  0.00  0.00    +0.000 A 
ATOM      9  C   UNL     1       0.842   8.894  20.358  0.00  0.00    +0.000 A 
ATOM     10  C   UNL     1       3.256   6.810  18.187  0.00  0.00    +0.000 C 
ENDROOT
BRANCH   9  11
ATOM     11  O   UNL     1       0.202   8.803  21.559  0.00  0.00    +0.000 OA
ATOM     12  C   UNL     1       0.388   9.649  22.634  0.00  0.00    +0.000 C 
ENDBRANCH   9  11
BRANCH   1  13
ATOM     13  N   UNL     1       4.339   4.557  18.649  0.00  0.00    +0.000 NA
BRANCH  13  14
ATOM     14  C   UNL     1       3.859   4.282  17.258  0.00  0.00    +0.000 C 
BRANCH  14  15
ATOM     15  C   UNL     1       2.694   3.273  17.148  0.00  0.00    +0.000 C 
BRANCH  15  17
ATOM     16  C   UNL     1       1.767   1.955  19.091  0.00  0.00    +0.000 C 
ATOM     17  C   UNL     1       2.888   2.050  18.057  0.00  0.00    +0.000 C 
ENDBRANCH  15  17
ENDBRANCH  14  15
ENDBRANCH  13  14
BRANCH  13  18
ATOM     18  C   UNL     1       5.833   4.646  18.721  0.00  0.00    +0.000 C 
BRANCH  18  19
ATOM     19  C   UNL     1       6.505   4.761  17.334  0.00  0.00    +0.000 C 
BRANCH  19  20
ATOM     20  C   UNL     1       7.097   6.143  17.056  0.00  0.00    +0.000 C 
ATOM     21  C   UNL     1       7.756   6.676  18.330  0.00  0.00    +0.000 C 
ENDBRANCH  19  20
ENDBRANCH  18  19
ENDBRANCH  13  18
ENDBRANCH   1  13
TORSDOF 8
ENDMDL
MODEL 4
REMARK VINA RESULT:      -6.6      2.915      5.201
REMARK  Name = 
REMARK  11 active torsions:
REMARK  status: ('A' for Active; 'I' for Inactive)
REMARK    1  A    between atoms: C_1  and  C_2
REMARK    2  A    between atoms: C_2  and  C_3
REMARK    3  A    between atoms: C_3  and  C_4
REMARK    4  A    between atoms: C_4  and  N_5
REMARK    5  A    between atoms: N_5  and  C_6
REMARK    6  A    between atoms: N_5  and  C_10
REMARK    7  A    between atoms: C_6  and  C_7
REMARK    8  A    between atoms: C_7  and  C_8
REMARK    9  A    between atoms: C_8  and  C_9
REMARK   10  A    between atoms: C_18  and  O_19
REMARK   11  A    between atoms: O_19  and  C_20
REMARK                            x       y       z     vdW  Elec       q    Type
REMARK                         _______ _______ _______ _____ _____    ______ ____
ROOT
ATOM      1  C   UNL     1       2.666   6.431  18.317  0.00  0.00    +0.000 C 
ATOM      2  C   UNL     1       3.110   7.763  17.673  0.00  0.00    +0.000 C 
ATOM      3  C   UNL     1       2.010   8.829  17.781  0.00  0.00    +0.000 C 
ATOM      4  C   UNL     1       1.452   8.976  19.175  0.00  0.00    +0.000 A 
ATOM      5  C   UNL     1       1.692   7.978  20.148  0.00  0.00    +0.000 A 
ATOM      6  C   UNL     1       1.204   8.157  21.451  0.00  0.00    +0.000 A 
ATOM      7  C   UNL     1       0.464   9.288  21.783  0.00  0.00    +0.000 A 
ATOM      8  C   UNL     1       0.199  10.260  20.821  0.00  0.00    +0.000 A 
ATOM      9  C   UNL     1       0.687  10.119  19.507  0.00  0.00    +0.000 A 
ATOM     10  C   UNL     1       2.451   6.704  19.834  0.00  0.00    +0.000 C 
ENDROOT
BRANCH   9  11
ATOM     11  O   UNL     1       0.451  11.067  18.554  0.00  0.00    +0.000 OA
ATOM     12  C   UNL     1       0.553  12.431  18.737  0.00  0.00    +0.000 C 
ENDBRANCH   9  11
BRANCH   1  13
ATOM     13  N   UNL     1       3.645   5.306  18.078  0.00  0.00    +0.000 NA
BRANCH  13  14
ATOM     14  C   UNL     1       2.972   4.086  17.530  0.00  0.00    +0.000 C 
BRANCH  14  15
ATOM     15  C   UNL     1       1.450   4.002  17.783  0.00  0.00    +0.000 C 
BRANCH  15  17
ATOM     16  C   UNL     1       1.012   3.321  20.174  0.00  0.00    +0.000 C 
ATOM     17  C   UNL     1       1.074   2.846  18.722  0.00  0.00    +0.000 C 
ENDBRANCH  15  17
ENDBRANCH  14  15
ENDBRANCH  13  14
BRANCH  13  18
ATOM     18  C   UNL     1       4.824   5.718  17.250  0.00  0.00    +0.000 C 
BRANCH  18  19
ATOM     19  C   UNL     1       5.717   4.530  16.826  0.00  0.00    +0.000 C 
BRANCH  19  20
ATOM     20  C   UNL     1       6.567   4.819  15.588  0.00  0.00    +0.000 C 
ATOM     21  C   UNL     1       5.934   4.143  14.370  0.00  0.00    +0.000 C 
ENDBRANCH  19  20
ENDBRANCH  18  19
ENDBRANCH  13  18
ENDBRANCH   1  13
TORSDOF 8
ENDMDL
MODEL 5
REMARK VINA RESULT:      -6.5      3.285      5.372
REMARK  Name = 
REMARK  11 active torsions:
REMARK  status: ('A' for Active; 'I' for Inactive)
REMARK    1  A    between atoms: C_1  and  C_2
REMARK    2  A    between atoms: C_2  and  C_3
REMARK    3  A    between atoms: C_3  and  C_4
REMARK    4  A    between atoms: C_4  and  N_5
REMARK    5  A    between atoms: N_5  and  C_6
REMARK    6  A    between atoms: N_5  and  C_10
REMARK    7  A    between atoms: C_6  and  C_7
REMARK    8  A    between atoms: C_7  and  C_8
REMARK    9  A    between atoms: C_8  and  C_9
REMARK   10  A    between atoms: C_18  and  O_19
REMARK   11  A    between atoms: O_19  and  C_20
REMARK                            x       y       z     vdW  Elec       q    Type
REMARK                         _______ _______ _______ _____ _____    ______ ____
ROOT
ATOM      1  C   UNL     1       2.425   6.783  18.240  0.00  0.00    +0.000 C 
ATOM      2  C   UNL     1       2.834   8.147  17.642  0.00  0.00    +0.000 C 
ATOM      3  C   UNL     1       1.745   9.205  17.867  0.00  0.00    +0.000 C 
ATOM      4  C   UNL     1       1.266   9.279  19.296  0.00  0.00    +0.000 A 
ATOM      5  C   UNL     1       1.558   8.232  20.200  0.00  0.00    +0.000 A 
ATOM      6  C   UNL     1       1.146   8.343  21.536  0.00  0.00    +0.000 A 
ATOM      7  C   UNL     1       0.427   9.454  21.968  0.00  0.00    +0.000 A 
ATOM      8  C   UNL     1       0.111  10.474  21.075  0.00  0.00    +0.000 A 
ATOM      9  C   UNL     1       0.523  10.403  19.729  0.00  0.00    +0.000 A 
ATOM     10  C   UNL     1       2.296   6.976  19.779  0.00  0.00    +0.000 C 
ENDROOT
BRANCH   9  11
ATOM     11  O   UNL     1       0.235  11.398  18.842  0.00  0.00    +0.000 OA
ATOM     12  C   UNL     1      -0.914  12.163  18.839  0.00  0.00    +0.000 C 
ENDBRANCH   9  11
BRANCH   1  13
ATOM     13  N   UNL     1       3.387   5.672  17.888  0.00  0.00    +0.000 NA
BRANCH  13  14
ATOM     14  C   UNL     1       4.812   6.083  18.093  0.00  0.00    +0.000 C 
BRANCH  14  15
ATOM     15  C   UNL     1       5.719   5.017  18.749  0.00  0.00    +0.000 C 
BRANCH  15  17
ATOM     16  C   UNL     1       7.518   6.629  18.018  0.00  0.00    +0.000 C 
ATOM     17  C   UNL     1       7.193   5.173  18.350  0.00  0.00    +0.000 C 
ENDBRANCH  15  17
ENDBRANCH  14  15
ENDBRANCH  13  14
BRANCH  13  18
ATOM     18  C   UNL     1       3.070   4.380  18.576  0.00  0.00    +0.000 C 
BRANCH  18  19
ATOM     19  C   UNL     1       1.837   3.660  17.983  0.00  0.00    +0.000 C 
BRANCH  19  20
ATOM     20  C   UNL     1       1.039   2.867  19.019  0.00  0.00    +0.000 C 
ATOM     21  C   UNL     1       1.049   3.620  20.351  0.00  0.00    +0.000 C 
ENDBRANCH  19  20
ENDBRANCH  18  19
ENDBRANCH  13  18
ENDBRANCH   1  13
TORSDOF 8
ENDMDL
MODEL 6
REMARK VINA RESULT:      -6.4      2.827      5.178
REMARK  Name = 
REMARK  11 active torsions:
REMARK  status: ('A' for Active; 'I' for Inactive)
REMARK    1  A    between atoms: C_1  and  C_2
REMARK    2  A    between atoms: C_2  and  C_3
REMARK    3  A    between atoms: C_3  and  C_4
REMARK    4  A    between atoms: C_4  and  N_5
REMARK    5  A    between atoms: N_5  and  C_6
REMARK    6  A    between atoms: N_5  and  C_10
REMARK    7  A    between atoms: C_6  and  C_7
REMARK    8  A    between atoms: C_7  and  C_8
REMARK    9  A    between atoms: C_8  and  C_9
REMARK   10  A    between atoms: C_18  and  O_19
REMARK   11  A    between atoms: O_19  and  C_20
REMARK                            x       y       z     vdW  Elec       q    Type
REMARK                         _______ _______ _______ _____ _____    ______ ____
ROOT
ATOM      1  C   UNL     1       2.818   6.415  18.092  0.00  0.00    +0.000 C 
ATOM      2  C   UNL     1       3.252   7.806  17.577  0.00  0.00    +0.000 C 
ATOM      3  C   UNL     1       2.123   8.835  17.729  0.00  0.00    +0.000 C 
ATOM      4  C   UNL     1       1.510   8.853  19.108  0.00  0.00    +0.000 A 
ATOM      5  C   UNL     1       1.739   7.783  20.004  0.00  0.00    +0.000 A 
ATOM      6  C   UNL     1       1.199   7.843  21.297  0.00  0.00    +0.000 A 
ATOM      7  C   UNL     1       0.419   8.926  21.692  0.00  0.00    +0.000 A 
ATOM      8  C   UNL     1       0.166   9.969  20.804  0.00  0.00    +0.000 A 
ATOM      9  C   UNL     1       0.705   9.948  19.502  0.00  0.00    +0.000 A 
ATOM     10  C   UNL     1       2.540   6.557  19.617  0.00  0.00    +0.000 C 
ENDROOT
BRANCH   9  11
ATOM     11  O   UNL     1       0.480  10.967  18.623  0.00  0.00    +0.000 OA
ATOM     12  C   UNL     1      -0.407  12.008  18.810  0.00  0.00    +0.000 C 
ENDBRANCH   9  11
BRANCH   1  13
ATOM     13  N   UNL     1       3.833   5.336  17.799  0.00  0.00    +0.000 NA
BRANCH  13  14
ATOM     14  C   UNL     1       5.234   5.805  18.044  0.00  0.00    +0.000 C 
BRANCH  14  15
ATOM     15  C   UNL     1       6.192   5.682  16.837  0.00  0.00    +0.000 C 
BRANCH  15  17
ATOM     16  C   UNL     1       5.896   4.162  14.845  0.00  0.00    +0.000 C 
ATOM     17  C   UNL     1       5.445   5.460  15.514  0.00  0.00    +0.000 C 
ENDBRANCH  15  17
ENDBRANCH  14  15
ENDBRANCH  13  14
BRANCH  13  18
ATOM     18  C   UNL     1       3.541   4.047  18.505  0.00  0.00    +0.000 C 
BRANCH  18  19
ATOM     19  C   UNL     1       2.443   3.208  17.814  0.00  0.00    +0.000 C 
BRANCH  19  20
ATOM     20  C   UNL     1       1.096   3.251  18.537  0.00  0.00    +0.000 C 
ATOM     21  C   UNL     1       1.316   2.998  20.030  0.00  0.00    +0.000 C 
ENDBRANCH  19  20
ENDBRANCH  18  19
ENDBRANCH  13  18
ENDBRANCH   1  13
TORSDOF 8
ENDMDL
MODEL 7
REMARK VINA RESULT:      -6.4      2.817      5.399
REMARK  Name = 
REMARK  11 active torsions:
REMARK  status: ('A' for Active; 'I' for Inactive)
REMARK    1  A    between atoms: C_1  and  C_2
REMARK    2  A    between atoms: C_2  and  C_3
REMARK    3  A    between atoms: C_3  and  C_4
REMARK    4  A    between atoms: C_4  and  N_5
REMARK    5  A    between atoms: N_5  and  C_6
REMARK    6  A    between atoms: N_5  and  C_10
REMARK    7  A    between atoms: C_6  and  C_7
REMARK    8  A    between atoms: C_7  and  C_8
REMARK    9  A    between atoms: C_8  and  C_9
REMARK   10  A    between atoms: C_18  and  O_19
REMARK   11  A    between atoms: O_19  and  C_20
REMARK                            x       y       z     vdW  Elec       q    Type
REMARK                         _______ _______ _______ _____ _____    ______ ____
ROOT
ATOM      1  C   UNL     1       2.866   6.387  18.350  0.00  0.00    +0.000 C 
ATOM      2  C   UNL     1       3.250   7.754  17.740  0.00  0.00    +0.000 C 
ATOM      3  C   UNL     1       2.072   8.738  17.788  0.00  0.00    +0.000 C 
ATOM      4  C   UNL     1       1.424   8.831  19.147  0.00  0.00    +0.000 A 
ATOM      5  C   UNL     1       1.677   7.844  20.127  0.00  0.00    +0.000 A 
ATOM      6  C   UNL     1       1.102   7.976  21.400  0.00  0.00    +0.000 A 
ATOM      7  C   UNL     1       0.264   9.048  21.693  0.00  0.00    +0.000 A 
ATOM      8  C   UNL     1      -0.013  10.007  20.723  0.00  0.00    +0.000 A 
ATOM      9  C   UNL     1       0.560   9.914  19.439  0.00  0.00    +0.000 A 
ATOM     10  C   UNL     1       2.542   6.630  19.853  0.00  0.00    +0.000 C 
ENDROOT
BRANCH   9  11
ATOM     11  O   UNL     1       0.313  10.851  18.479  0.00  0.00    +0.000 OA
ATOM     12  C   UNL     1       0.251  12.215  18.686  0.00  0.00    +0.000 C 
ENDBRANCH   9  11
BRANCH   1  13
ATOM     13  N   UNL     1       3.936   5.338  18.164  0.00  0.00    +0.000 NA
BRANCH  13  14
ATOM     14  C   UNL     1       3.433   3.965  18.485  0.00  0.00    +0.000 C 
BRANCH  14  15
ATOM     15  C   UNL     1       2.176   3.522  17.701  0.00  0.00    +0.000 C 
BRANCH  15  17
ATOM     16  C   UNL     1       0.946   3.426  19.903  0.00  0.00    +0.000 C 
ATOM     17  C   UNL     1       1.194   2.722  18.569  0.00  0.00    +0.000 C 
ENDBRANCH  15  17
ENDBRANCH  14  15
ENDBRANCH  13  14
BRANCH  13  18
ATOM     18  C   UNL     1       4.590   5.397  16.817  0.00  0.00    +0.000 C 
BRANCH  18  19
ATOM     19  C   UNL     1       6.054   5.888  16.871  0.00  0.00    +0.000 C 
BRANCH  19  20
ATOM     20  C   UNL     1       6.982   4.953  17.647  0.00  0.00    +0.000 C 
ATOM     21  C   UNL     1       7.696   5.745  18.745  0.00  0.00    +0.000 C 
ENDBRANCH  19  20
ENDBRANCH  18  19
ENDBRANCH  13  18
ENDBRANCH   1  13
TORSDOF 8
ENDMDL
MODEL 8
REMARK VINA RESULT:      -6.4      3.340      5.264
REMARK  Name = 
REMARK  11 active torsions:
REMARK  status: ('A' for Active; 'I' for Inactive)
REMARK    1  A    between atoms: C_1  and  C_2
REMARK    2  A    between atoms: C_2  and  C_3
REMARK    3  A    between atoms: C_3  and  C_4
REMARK    4  A    between atoms: C_4  and  N_5
REMARK    5  A    between atoms: N_5  and  C_6
REMARK    6  A    between atoms: N_5  and  C_10
REMARK    7  A    between atoms: C_6  and  C_7
REMARK    8  A    between atoms: C_7  and  C_8
REMARK    9  A    between atoms: C_8  and  C_9
REMARK   10  A    between atoms: C_18  and  O_19
REMARK   11  A    between atoms: O_19  and  C_20
REMARK                            x       y       z     vdW  Elec       q    Type
REMARK                         _______ _______ _______ _____ _____    ______ ____
ROOT
ATOM      1  C   UNL     1       2.421   6.834  18.449  0.00  0.00    +0.000 C 
ATOM      2  C   UNL     1       2.808   8.173  17.783  0.00  0.00    +0.000 C 
ATOM      3  C   UNL     1       1.683   9.209  17.916  0.00  0.00    +0.000 C 
ATOM      4  C   UNL     1       1.160   9.350  19.324  0.00  0.00    +0.000 A 
ATOM      5  C   UNL     1       1.455   8.367  20.296  0.00  0.00    +0.000 A 
ATOM      6  C   UNL     1       1.001   8.542  21.611  0.00  0.00    +0.000 A 
ATOM      7  C   UNL     1       0.238   9.654  21.957  0.00  0.00    +0.000 A 
ATOM      8  C   UNL     1      -0.081  10.611  20.997  0.00  0.00    +0.000 A 
ATOM      9  C   UNL     1       0.373  10.474  19.670  0.00  0.00    +0.000 A 
ATOM     10  C   UNL     1       2.241   7.112  19.970  0.00  0.00    +0.000 C 
ENDROOT
BRANCH   9  11
ATOM     11  O   UNL     1       0.083  11.408  18.718  0.00  0.00    +0.000 OA
ATOM     12  C   UNL     1       0.510  12.720  18.725  0.00  0.00    +0.000 C 
ENDBRANCH   9  11
BRANCH   1  13
ATOM     13  N   UNL     1       3.425   5.735  18.190  0.00  0.00    +0.000 NA
BRANCH  13  14
ATOM     14  C   UNL     1       4.197   5.383  19.422  0.00  0.00    +0.000 C 
BRANCH  14  15
ATOM     15  C   UNL     1       5.703   5.113  19.204  0.00  0.00    +0.000 C 
BRANCH  15  17
ATOM     16  C   UNL     1       7.672   6.466  18.390  0.00  0.00    +0.000 C 
ATOM     17  C   UNL     1       6.284   5.931  18.041  0.00  0.00    +0.000 C 
ENDBRANCH  15  17
ENDBRANCH  14  15
ENDBRANCH  13  14
BRANCH  13  18
ATOM     18  C   UNL     1       2.820   4.528  17.540  0.00  0.00    +0.000 C 
BRANCH  18  19
ATOM     19  C   UNL     1       1.874   3.742  18.475  0.00  0.00    +0.000 C 
BRANCH  19  20
ATOM     20  C   UNL     1       1.966   2.226  18.301  0.00  0.00    +0.000 C 
ATOM     21  C   UNL     1       3.438   1.812  18.242  0.00  0.00    +0.000 C 
ENDBRANCH  19  20
ENDBRANCH  18  19
ENDBRANCH  13  18
ENDBRANCH   1  13
TORSDOF 8
ENDMDL
MODEL 9
REMARK VINA RESULT:      -6.4      2.560      4.716
REMARK  Name = 
REMARK  11 active torsions:
REMARK  status: ('A' for Active; 'I' for Inactive)
REMARK    1  A    between atoms: C_1  and  C_2
REMARK    2  A    between atoms: C_2  and  C_3
REMARK    3  A    between atoms: C_3  and  C_4
REMARK    4  A    between atoms: C_4  and  N_5
REMARK    5  A    between atoms: N_5  and  C_6
REMARK    6  A    between atoms: N_5  and  C_10
REMARK    7  A    between atoms: C_6  and  C_7
REMARK    8  A    between atoms: C_7  and  C_8
REMARK    9  A    between atoms: C_8  and  C_9
REMARK   10  A    between atoms: C_18  and  O_19
REMARK   11  A    between atoms: O_19  and  C_20
REMARK                            x       y       z     vdW  Elec       q    Type
REMARK                         _______ _______ _______ _____ _____    ______ ____
ROOT
ATOM      1  C   UNL     1       3.256   5.939  19.250  0.00  0.00    +0.000 C 
ATOM      2  C   UNL     1       2.013   5.664  20.125  0.00  0.00    +0.000 C 
ATOM      3  C   UNL     1       1.604   6.912  20.922  0.00  0.00    +0.000 C 
ATOM      4  C   UNL     1       1.497   8.156  20.075  0.00  0.00    +0.000 A 
ATOM      5  C   UNL     1       2.066   8.189  18.781  0.00  0.00    +0.000 A 
ATOM      6  C   UNL     1       1.913   9.338  17.992  0.00  0.00    +0.000 A 
ATOM      7  C   UNL     1       1.237  10.452  18.483  0.00  0.00    +0.000 A 
ATOM      8  C   UNL     1       0.700  10.436  19.767  0.00  0.00    +0.000 A 
ATOM      9  C   UNL     1       0.821   9.292  20.581  0.00  0.00    +0.000 A 
ATOM     10  C   UNL     1       2.854   7.026  18.211  0.00  0.00    +0.000 C 
ENDROOT
BRANCH   9  11
ATOM     11  O   UNL     1       0.290   9.252  21.837  0.00  0.00    +0.000 OA
ATOM     12  C   UNL     1      -0.311  10.310  22.488  0.00  0.00    +0.000 C 
ENDBRANCH   9  11
BRANCH   1  13
ATOM     13  N   UNL     1       3.796   4.694  18.586  0.00  0.00    +0.000 NA
BRANCH  13  14
ATOM     14  C   UNL     1       5.093   4.953  17.885  0.00  0.00    +0.000 C 
BRANCH  14  15
ATOM     15  C   UNL     1       5.130   4.549  16.394  0.00  0.00    +0.000 C 
BRANCH  15  17
ATOM     16  C   UNL     1       7.579   4.526  17.001  0.00  0.00    +0.000 C 
ATOM     17  C   UNL     1       6.560   4.331  15.879  0.00  0.00    +0.000 C 
ENDBRANCH  15  17
ENDBRANCH  14  15
ENDBRANCH  13  14
BRANCH  13  18
ATOM     18  C   UNL     1       3.883   3.523  19.517  0.00  0.00    +0.000 C 
BRANCH  18  19
ATOM     19  C   UNL     1       3.459   2.190  18.860  0.00  0.00    +0.000 C 
BRANCH  19  20
ATOM     20  C   UNL     1       2.258   2.327  17.924  0.00  0.00    +0.000 C 
ATOM     21  C   UNL     1       0.979   2.447  18.754  0.00  0.00    +0.000 C 
ENDBRANCH  19  20
ENDBRANCH  18  19
ENDBRANCH  13  18
ENDBRANCH   1  13
TORSDOF 8
ENDMDL
