MODEL 1
REMARK VINA RESULT:      -7.9      0.000      0.000
REMARK  Name = 
REMARK  5 active torsions:
REMARK  status: ('A' for Active; 'I' for Inactive)
REMARK    1  A    between atoms: C_1  and  C_2
REMARK    2  A    between atoms: C_2  and  C_3
REMARK    3  A    between atoms: C_2  and  C_4
REMARK    4  A    between atoms: C_11  and  C_12
REMARK    5  A    between atoms: N_16  and  C_17
REMARK                            x       y       z     vdW  Elec       q    Type
REMARK                         _______ _______ _______ _____ _____    ______ ____
ROOT
ATOM      1  C   UNL     1       6.443   4.420  13.870  0.00  0.00    +0.000 A 
ATOM      2  N   UNL     1       7.588   5.093  14.035  0.00  0.00    +0.000 NA
ATOM      3  O   UNL     1       7.378   5.777  15.234  0.00  0.00    +0.000 OA
ATOM      4  C   UNL     1       6.129   5.428  15.680  0.00  0.00    +0.000 A 
ATOM      5  N   UNL     1       5.702   5.926  16.861  0.00  0.00    +0.000 N 
ATOM      6  C   UNL     1       6.648   6.334  17.889  0.00  0.00    +0.000 C 
ATOM      7  C   UNL     1       6.250   5.504  19.102  0.00  0.00    +0.000 C 
ATOM      8  C   UNL     1       4.738   5.354  18.956  0.00  0.00    +0.000 C 
ATOM      9  C   UNL     1       4.464   5.416  17.449  0.00  0.00    +0.000 C 
ATOM     10  N   UNL     1       5.514   4.608  14.862  0.00  0.00    +0.000 NA
ENDROOT
BRANCH   8  11
ATOM     11  C   UNL     1       4.163   4.166  19.668  0.00  0.00    +0.000 A 
ATOM     12  N   UNL     1       4.777   2.996  19.706  0.00  0.00    +0.000 NA
ATOM     13  C   UNL     1       3.954   2.143  20.381  0.00  0.00    +0.000 A 
ATOM     14  C   UNL     1       2.813   2.793  20.776  0.00  0.00    +0.000 A 
ATOM     15  N   UNL     1       2.956   4.084  20.337  0.00  0.00    +0.000 N 
ATOM     16  C   UNL     1       1.970   5.114  20.566  0.00  0.00    +0.000 C 
ENDBRANCH   8  11
BRANCH   1  18
ATOM     17  C   UNL     1       4.771   3.559  12.237  0.00  0.00    +0.000 C 
ATOM     18  C   UNL     1       6.219   3.490  12.726  0.00  0.00    +0.000 C 
ATOM     19  C   UNL     1       7.188   3.771  11.578  0.00  0.00    +0.000 C 
ENDBRANCH   1  18
TORSDOF 2
ENDMDL
MODEL 2
REMARK VINA RESULT:      -7.5      1.056      1.588
REMARK  Name = 
REMARK  5 active torsions:
REMARK  status: ('A' for Active; 'I' for Inactive)
REMARK    1  A    between atoms: C_1  and  C_2
REMARK    2  A    between atoms: C_2  and  C_3
REMARK    3  A    between atoms: C_2  and  C_4
REMARK    4  A    between atoms: C_11  and  C_12
REMARK    5  A    between atoms: N_16  and  C_17
REMARK                            x       y       z     vdW  Elec       q    Type
REMARK                         _______ _______ _______ _____ _____    ______ ____
ROOT
ATOM      1  C   UNL     1       6.438   4.511  14.183  0.00  0.00    +0.000 A 
ATOM      2  N   UNL     1       7.604   4.974  14.649  0.00  0.00    +0.000 NA
ATOM      3  O   UNL     1       7.235   5.612  15.835  0.00  0.00    +0.000 OA
ATOM      4  C   UNL     1       5.880   5.449  15.972  0.00  0.00    +0.000 A 
ATOM      5  N   UNL     1       5.279   5.940  17.077  0.00  0.00    +0.000 N 
ATOM      6  C   UNL     1       6.020   6.124  18.316  0.00  0.00    +0.000 C 
ATOM      7  C   UNL     1       5.242   5.302  19.333  0.00  0.00    +0.000 C 
ATOM      8  C   UNL     1       3.796   5.413  18.857  0.00  0.00    +0.000 C 
ATOM      9  C   UNL     1       3.878   5.608  17.339  0.00  0.00    +0.000 C 
ATOM     10  N   UNL     1       5.349   4.791  14.969  0.00  0.00    +0.000 NA
ENDROOT
BRANCH   8  11
ATOM     11  C   UNL     1       2.906   4.298  19.317  0.00  0.00    +0.000 A 
ATOM     12  N   UNL     1       1.993   4.461  20.259  0.00  0.00    +0.000 NA
ATOM     13  C   UNL     1       1.415   3.242  20.460  0.00  0.00    +0.000 A 
ATOM     14  C   UNL     1       1.970   2.306  19.626  0.00  0.00    +0.000 A 
ATOM     15  N   UNL     1       2.905   2.983  18.887  0.00  0.00    +0.000 N 
ATOM     16  C   UNL     1       3.714   2.360  17.866  0.00  0.00    +0.000 C 
ENDBRANCH   8  11
BRANCH   1  18
ATOM     17  C   UNL     1       4.895   3.625  12.440  0.00  0.00    +0.000 C 
ATOM     18  C   UNL     1       6.341   3.700  12.935  0.00  0.00    +0.000 C 
ATOM     19  C   UNL     1       7.256   4.245  11.840  0.00  0.00    +0.000 C 
ENDBRANCH   1  18
TORSDOF 2
ENDMDL
MODEL 3
REMARK VINA RESULT:      -7.4      1.275      1.450
REMARK  Name = 
REMARK  5 active torsions:
REMARK  status: ('A' for Active; 'I' for Inactive)
REMARK    1  A    between atoms: C_1  and  C_2
REMARK    2  A    between atoms: C_2  and  C_3
REMARK    3  A    between atoms: C_2  and  C_4
REMARK    4  A    between atoms: C_11  and  C_12
REMARK    5  A    between atoms: N_16  and  C_17
REMARK                            x       y       z     vdW  Elec       q    Type
REMARK                         _______ _______ _______ _____ _____    ______ ____
ROOT
ATOM      1  C   UNL     1       6.582   4.491  14.244  0.00  0.00    +0.000 A 
ATOM      2  N   UNL     1       7.724   4.823  14.857  0.00  0.00    +0.000 NA
ATOM      3  O   UNL     1       7.285   5.349  16.073  0.00  0.00    +0.000 OA
ATOM      4  C   UNL     1       5.916   5.261  16.075  0.00  0.00    +0.000 A 
ATOM      5  N   UNL     1       5.245   5.665  17.175  0.00  0.00    +0.000 N 
ATOM      6  C   UNL     1       5.879   5.664  18.485  0.00  0.00    +0.000 C 
ATOM      7  C   UNL     1       4.967   4.787  19.332  0.00  0.00    +0.000 C 
ATOM      8  C   UNL     1       3.579   5.044  18.752  0.00  0.00    +0.000 C 
ATOM      9  C   UNL     1       3.810   5.399  17.278  0.00  0.00    +0.000 C 
ATOM     10  N   UNL     1       5.443   4.753  14.962  0.00  0.00    +0.000 NA
ENDROOT
BRANCH   8  11
ATOM     11  C   UNL     1       2.591   3.945  19.003  0.00  0.00    +0.000 A 
ATOM     12  N   UNL     1       2.090   3.206  18.029  0.00  0.00    +0.000 NA
ATOM     13  C   UNL     1       1.193   2.353  18.605  0.00  0.00    +0.000 A 
ATOM     14  C   UNL     1       1.141   2.558  19.959  0.00  0.00    +0.000 A 
ATOM     15  N   UNL     1       2.044   3.559  20.213  0.00  0.00    +0.000 N 
ATOM     16  C   UNL     1       2.312   4.069  21.536  0.00  0.00    +0.000 C 
ENDBRANCH   8  11
BRANCH   1  18
ATOM     17  C   UNL     1       5.116   3.596  12.440  0.00  0.00    +0.000 C 
ATOM     18  C   UNL     1       6.554   3.830  12.907  0.00  0.00    +0.000 C 
ATOM     19  C   UNL     1       7.332   4.635  11.867  0.00  0.00    +0.000 C 
ENDBRANCH   1  18
TORSDOF 2
ENDMDL
MODEL 4
REMARK VINA RESULT:      -7.0      1.290      1.516
REMARK  Name = 
REMARK  5 active torsions:
REMARK  status: ('A' for Active; 'I' for Inactive)
REMARK    1  A    between atoms: C_1  and  C_2
REMARK    2  A    between atoms: C_2  and  C_3
REMARK    3  A    between atoms: C_2  and  C_4
REMARK    4  A    between atoms: C_11  and  C_12
REMARK    5  A    between atoms: N_16  and  C_17
REMARK                            x       y       z     vdW  Elec       q    Type
REMARK                         _______ _______ _______ _____ _____    ______ ____
ROOT
ATOM      1  C   UNL     1       6.145   4.018  12.766  0.00  0.00    +0.000 A 
ATOM      2  N   UNL     1       7.396   4.491  12.826  0.00  0.00    +0.000 NA
ATOM      3  O   UNL     1       7.419   5.157  14.053  0.00  0.00    +0.000 OA
ATOM      4  C   UNL     1       6.179   4.999  14.617  0.00  0.00    +0.000 A 
ATOM      5  N   UNL     1       5.957   5.516  15.845  0.00  0.00    +0.000 N 
ATOM      6  C   UNL     1       7.053   5.729  16.778  0.00  0.00    +0.000 C 
ATOM      7  C   UNL     1       6.644   4.932  18.009  0.00  0.00    +0.000 C 
ATOM      8  C   UNL     1       5.121   5.033  18.016  0.00  0.00    +0.000 C 
ATOM      9  C   UNL     1       4.714   5.192  16.546  0.00  0.00    +0.000 C 
ATOM     10  N   UNL     1       5.361   4.317  13.850  0.00  0.00    +0.000 NA
ENDROOT
BRANCH   8  11
ATOM     11  C   UNL     1       4.431   3.929  18.760  0.00  0.00    +0.000 A 
ATOM     12  N   UNL     1       5.085   3.078  19.531  0.00  0.00    +0.000 NA
ATOM     13  C   UNL     1       4.164   2.186  19.999  0.00  0.00    +0.000 A 
ATOM     14  C   UNL     1       2.916   2.492  19.519  0.00  0.00    +0.000 A 
ATOM     15  N   UNL     1       3.085   3.611  18.746  0.00  0.00    +0.000 N 
ATOM     16  C   UNL     1       2.001   4.275  18.062  0.00  0.00    +0.000 C 
ENDBRANCH   8  11
BRANCH   1  18
ATOM     17  C   UNL     1       6.152   1.734  11.770  0.00  0.00    +0.000 C 
ATOM     18  C   UNL     1       5.661   3.177  11.633  0.00  0.00    +0.000 C 
ATOM     19  C   UNL     1       4.139   3.218  11.514  0.00  0.00    +0.000 C 
ENDBRANCH   1  18
TORSDOF 2
ENDMDL
MODEL 5
REMARK VINA RESULT:      -7.0      0.855      1.170
REMARK  Name = 
REMARK  5 active torsions:
REMARK  status: ('A' for Active; 'I' for Inactive)
REMARK    1  A    between atoms: C_1  and  C_2
REMARK    2  A    between atoms: C_2  and  C_3
REMARK    3  A    between atoms: C_2  and  C_4
REMARK    4  A    between atoms: C_11  and  C_12
REMARK    5  A    between atoms: N_16  and  C_17
REMARK                            x       y       z     vdW  Elec       q    Type
REMARK                         _______ _______ _______ _____ _____    ______ ____
ROOT
ATOM      1  C   UNL     1       6.509   4.637  13.589  0.00  0.00    +0.000 A 
ATOM      2  N   UNL     1       7.726   5.024  13.989  0.00  0.00    +0.000 NA
ATOM      3  O   UNL     1       7.492   5.511  15.277  0.00  0.00    +0.000 OA
ATOM      4  C   UNL     1       6.154   5.348  15.528  0.00  0.00    +0.000 A 
ATOM      5  N   UNL     1       5.677   5.701  16.742  0.00  0.00    +0.000 N 
ATOM      6  C   UNL     1       6.541   5.718  17.912  0.00  0.00    +0.000 C 
ATOM      7  C   UNL     1       5.848   4.782  18.892  0.00  0.00    +0.000 C 
ATOM      8  C   UNL     1       4.365   4.969  18.583  0.00  0.00    +0.000 C 
ATOM      9  C   UNL     1       4.301   5.355  17.100  0.00  0.00    +0.000 C 
ATOM     10  N   UNL     1       5.510   4.828  14.510  0.00  0.00    +0.000 NA
ENDROOT
BRANCH   8  11
ATOM     11  C   UNL     1       3.498   3.815  18.987  0.00  0.00    +0.000 A 
ATOM     12  N   UNL     1       3.567   2.635  18.395  0.00  0.00    +0.000 NA
ATOM     13  C   UNL     1       2.610   1.851  18.971  0.00  0.00    +0.000 A 
ATOM     14  C   UNL     1       1.941   2.549  19.942  0.00  0.00    +0.000 A 
ATOM     15  N   UNL     1       2.519   3.792  19.963  0.00  0.00    +0.000 N 
ATOM     16  C   UNL     1       2.113   4.841  20.869  0.00  0.00    +0.000 C 
ENDBRANCH   8  11
BRANCH   1  18
ATOM     17  C   UNL     1       7.360   2.968  11.948  0.00  0.00    +0.000 C 
ATOM     18  C   UNL     1       6.269   3.993  12.266  0.00  0.00    +0.000 C 
ATOM     19  C   UNL     1       4.887   3.344  12.201  0.00  0.00    +0.000 C 
ENDBRANCH   1  18
TORSDOF 2
ENDMDL
MODEL 6
REMARK VINA RESULT:      -6.9      2.643      6.177
REMARK  Name = 
REMARK  5 active torsions:
REMARK  status: ('A' for Active; 'I' for Inactive)
REMARK    1  A    between atoms: C_1  and  C_2
REMARK    2  A    between atoms: C_2  and  C_3
REMARK    3  A    between atoms: C_2  and  C_4
REMARK    4  A    between atoms: C_11  and  C_12
REMARK    5  A    between atoms: N_16  and  C_17
REMARK                            x       y       z     vdW  Elec       q    Type
REMARK                         _______ _______ _______ _____ _____    ______ ____
ROOT
ATOM      1  C   UNL     1       2.665   2.798  19.030  0.00  0.00    +0.000 A 
ATOM      2  N   UNL     1       2.986   1.687  18.356  0.00  0.00    +0.000 NA
ATOM      3  O   UNL     1       3.769   2.175  17.307  0.00  0.00    +0.000 OA
ATOM      4  C   UNL     1       3.854   3.534  17.470  0.00  0.00    +0.000 A 
ATOM      5  N   UNL     1       4.606   4.243  16.600  0.00  0.00    +0.000 N 
ATOM      6  C   UNL     1       5.711   3.622  15.884  0.00  0.00    +0.000 C 
ATOM      7  C   UNL     1       6.913   4.479  16.255  0.00  0.00    +0.000 C 
ATOM      8  C   UNL     1       6.323   5.876  16.425  0.00  0.00    +0.000 C 
ATOM      9  C   UNL     1       4.871   5.656  16.868  0.00  0.00    +0.000 C 
ATOM     10  N   UNL     1       3.176   3.959  18.509  0.00  0.00    +0.000 NA
ENDROOT
BRANCH   8  11
ATOM     11  C   UNL     1       7.132   6.787  17.298  0.00  0.00    +0.000 A 
ATOM     12  N   UNL     1       7.447   8.019  16.937  0.00  0.00    +0.000 NA
ATOM     13  C   UNL     1       8.226   8.533  17.933  0.00  0.00    +0.000 A 
ATOM     14  C   UNL     1       8.392   7.610  18.934  0.00  0.00    +0.000 A 
ATOM     15  N   UNL     1       7.681   6.507  18.536  0.00  0.00    +0.000 N 
ATOM     16  C   UNL     1       7.580   5.301  19.323  0.00  0.00    +0.000 C 
ENDBRANCH   8  11
BRANCH   1  18
ATOM     17  C   UNL     1       2.768   2.786  21.519  0.00  0.00    +0.000 C 
ATOM     18  C   UNL     1       1.862   2.767  20.286  0.00  0.00    +0.000 C 
ATOM     19  C   UNL     1       0.858   3.918  20.339  0.00  0.00    +0.000 C 
ENDBRANCH   1  18
TORSDOF 2
ENDMDL
MODEL 7
REMARK VINA RESULT:      -6.6      1.762      6.590
REMARK  Name = 
REMARK  5 active torsions:
REMARK  status: ('A' for Active; 'I' for Inactive)
REMARK    1  A    between atoms: C_1  and  C_2
REMARK    2  A    between atoms: C_2  and  C_3
REMARK    3  A    between atoms: C_2  and  C_4
REMARK    4  A    between atoms: C_11  and  C_12
REMARK    5  A    between atoms: N_16  and  C_17
REMARK                            x       y       z     vdW  Elec       q    Type
REMARK                         _______ _______ _______ _____ _____    ______ ____
ROOT
ATOM      1  C   UNL     1       3.181   3.664  19.536  0.00  0.00    +0.000 A 
ATOM      2  N   UNL     1       3.003   4.907  20.000  0.00  0.00    +0.000 NA
ATOM      3  O   UNL     1       4.043   5.617  19.398  0.00  0.00    +0.000 OA
ATOM      4  C   UNL     1       4.732   4.728  18.613  0.00  0.00    +0.000 A 
ATOM      5  N   UNL     1       5.769   5.185  17.878  0.00  0.00    +0.000 N 
ATOM      6  C   UNL     1       5.840   6.579  17.465  0.00  0.00    +0.000 C 
ATOM      7  C   UNL     1       5.943   6.506  15.948  0.00  0.00    +0.000 C 
ATOM      8  C   UNL     1       6.721   5.215  15.701  0.00  0.00    +0.000 C 
ATOM      9  C   UNL     1       6.390   4.304  16.889  0.00  0.00    +0.000 C 
ATOM     10  N   UNL     1       4.244   3.513  18.682  0.00  0.00    +0.000 NA
ENDROOT
BRANCH   8  11
ATOM     11  C   UNL     1       6.503   4.612  14.346  0.00  0.00    +0.000 A 
ATOM     12  N   UNL     1       5.526   3.757  14.099  0.00  0.00    +0.000 NA
ATOM     13  C   UNL     1       5.660   3.375  12.795  0.00  0.00    +0.000 A 
ATOM     14  C   UNL     1       6.731   4.008  12.219  0.00  0.00    +0.000 A 
ATOM     15  N   UNL     1       7.255   4.808  13.202  0.00  0.00    +0.000 N 
ATOM     16  C   UNL     1       8.398   5.667  13.000  0.00  0.00    +0.000 C 
ENDBRANCH   8  11
BRANCH   1  18
ATOM     17  C   UNL     1       1.510   2.822  21.180  0.00  0.00    +0.000 C 
ATOM     18  C   UNL     1       2.257   2.543  19.874  0.00  0.00    +0.000 C 
ATOM     19  C   UNL     1       1.271   2.267  18.740  0.00  0.00    +0.000 C 
ENDBRANCH   1  18
TORSDOF 2
ENDMDL
MODEL 8
REMARK VINA RESULT:      -6.2      1.266      1.845
REMARK  Name = 
REMARK  5 active torsions:
REMARK  status: ('A' for Active; 'I' for Inactive)
REMARK    1  A    between atoms: C_1  and  C_2
REMARK    2  A    between atoms: C_2  and  C_3
REMARK    3  A    between atoms: C_2  and  C_4
REMARK    4  A    between atoms: C_11  and  C_12
REMARK    5  A    between atoms: N_16  and  C_17
REMARK                            x       y       z     vdW  Elec       q    Type
REMARK                         _______ _______ _______ _____ _____    ______ ____
ROOT
ATOM      1  C   UNL     1       6.405   4.321  13.520  0.00  0.00    +0.000 A 
ATOM      2  N   UNL     1       7.644   4.478  14.002  0.00  0.00    +0.000 NA
ATOM      3  O   UNL     1       7.417   4.932  15.303  0.00  0.00    +0.000 OA
ATOM      4  C   UNL     1       6.058   4.983  15.478  0.00  0.00    +0.000 A 
ATOM      5  N   UNL     1       5.575   5.350  16.685  0.00  0.00    +0.000 N 
ATOM      6  C   UNL     1       6.360   5.163  17.896  0.00  0.00    +0.000 C 
ATOM      7  C   UNL     1       5.466   4.309  18.783  0.00  0.00    +0.000 C 
ATOM      8  C   UNL     1       4.055   4.757  18.412  0.00  0.00    +0.000 C 
ATOM      9  C   UNL     1       4.143   5.221  16.953  0.00  0.00    +0.000 C 
ATOM     10  N   UNL     1       5.399   4.629  14.400  0.00  0.00    +0.000 NA
ENDROOT
BRANCH   8  11
ATOM     11  C   UNL     1       2.988   3.744  18.704  0.00  0.00    +0.000 A 
ATOM     12  N   UNL     1       1.808   3.767  18.109  0.00  0.00    +0.000 NA
ATOM     13  C   UNL     1       1.078   2.748  18.648  0.00  0.00    +0.000 A 
ATOM     14  C   UNL     1       1.817   2.075  19.587  0.00  0.00    +0.000 A 
ATOM     15  N   UNL     1       3.038   2.699  19.608  0.00  0.00    +0.000 N 
ATOM     16  C   UNL     1       4.127   2.284  20.459  0.00  0.00    +0.000 C 
ENDBRANCH   8  11
BRANCH   1  18
ATOM     17  C   UNL     1       7.071   2.622  11.825  0.00  0.00    +0.000 C 
ATOM     18  C   UNL     1       6.141   3.792  12.151  0.00  0.00    +0.000 C 
ATOM     19  C   UNL     1       4.680   3.380  11.982  0.00  0.00    +0.000 C 
ENDBRANCH   1  18
TORSDOF 2
ENDMDL
MODEL 9
REMARK VINA RESULT:      -6.1      5.430      7.453
REMARK  Name = 
REMARK  5 active torsions:
REMARK  status: ('A' for Active; 'I' for Inactive)
REMARK    1  A    between atoms: C_1  and  C_2
REMARK    2  A    between atoms: C_2  and  C_3
REMARK    3  A    between atoms: C_2  and  C_4
REMARK    4  A    between atoms: C_11  and  C_12
REMARK    5  A    between atoms: N_16  and  C_17
REMARK                            x       y       z     vdW  Elec       q    Type
REMARK                         _______ _______ _______ _____ _____    ______ ____
ROOT
ATOM      1  C   UNL     1       2.593   5.143  18.554  0.00  0.00    +0.000 A 
ATOM      2  N   UNL     1       2.609   4.821  19.853  0.00  0.00    +0.000 NA
ATOM      3  O   UNL     1       2.338   6.039  20.480  0.00  0.00    +0.000 OA
ATOM      4  C   UNL     1       2.166   6.969  19.487  0.00  0.00    +0.000 A 
ATOM      5  N   UNL     1       1.841   8.233  19.836  0.00  0.00    +0.000 N 
ATOM      6  C   UNL     1       1.157   8.513  21.090  0.00  0.00    +0.000 C 
ATOM      7  C   UNL     1      -0.106   9.249  20.661  0.00  0.00    +0.000 C 
ATOM      8  C   UNL     1       0.330  10.019  19.417  0.00  0.00    +0.000 C 
ATOM      9  C   UNL     1       1.460   9.189  18.796  0.00  0.00    +0.000 C 
ATOM     10  N   UNL     1       2.330   6.463  18.288  0.00  0.00    +0.000 NA
ENDROOT
BRANCH   8  11
ATOM     11  C   UNL     1      -0.790  10.380  18.489  0.00  0.00    +0.000 A 
ATOM     12  N   UNL     1      -1.116   9.634  17.447  0.00  0.00    +0.000 NA
ATOM     13  C   UNL     1      -2.129  10.283  16.802  0.00  0.00    +0.000 A 
ATOM     14  C   UNL     1      -2.444  11.446  17.456  0.00  0.00    +0.000 A 
ATOM     15  N   UNL     1      -1.604  11.497  18.538  0.00  0.00    +0.000 N 
ATOM     16  C   UNL     1      -1.622  12.567  19.508  0.00  0.00    +0.000 C 
ENDBRANCH   8  11
BRANCH   1  18
ATOM     17  C   UNL     1       4.267   3.994  17.110  0.00  0.00    +0.000 C 
ATOM     18  C   UNL     1       2.787   4.131  17.476  0.00  0.00    +0.000 C 
ATOM     19  C   UNL     1       2.204   2.774  17.869  0.00  0.00    +0.000 C 
ENDBRANCH   1  18
TORSDOF 2
ENDMDL
