MODEL 1
REMARK VINA RESULT:      -8.9      0.000      0.000
REMARK  Name = 
REMARK  8 active torsions:
REMARK  status: ('A' for Active; 'I' for Inactive)
REMARK    1  A    between atoms: C_1  and  O_2
REMARK    2  A    between atoms: O_2  and  C_3
REMARK    3  A    between atoms: C_6  and  C_7
REMARK    4  A    between atoms: C_7  and  C_8
REMARK    5  A    between atoms: C_7  and  N_22
REMARK    6  A    between atoms: C_8  and  N_9
REMARK    7  A    between atoms: C_10  and  C_12
REMARK    8  A    between atoms: C_20  and  C_21
REMARK                            x       y       z     vdW  Elec       q    Type
REMARK                         _______ _______ _______ _____ _____    ______ ____
ROOT
ATOM      1  C   UNL     1       3.732   5.664  18.687  0.00  0.00    +0.000 C 
ENDROOT
BRANCH   1   5
ATOM      2  C   UNL     1       6.815   5.265  15.630  0.00  0.00    +0.000 A 
ATOM      3  C   UNL     1       7.017   6.087  16.742  0.00  0.00    +0.000 A 
ATOM      4  C   UNL     1       6.045   6.185  17.746  0.00  0.00    +0.000 A 
ATOM      5  C   UNL     1       4.839   5.475  17.645  0.00  0.00    +0.000 A 
ATOM      6  C   UNL     1       4.663   4.627  16.540  0.00  0.00    +0.000 A 
ATOM      7  C   UNL     1       5.642   4.528  15.539  0.00  0.00    +0.000 A 
BRANCH   2   9
ATOM      8  C   UNL     1       7.466   4.896  13.377  0.00  0.00    +0.000 C 
ATOM      9  O   UNL     1       7.812   5.307  14.694  0.00  0.00    +0.000 OA
ENDBRANCH   2   9
ENDBRANCH   1   5
BRANCH   1  10
ATOM     10  N   UNL     1       3.123   4.351  19.123  0.00  0.00    +0.000 NA
ATOM     11  C   UNL     1       2.964   4.307  20.591  0.00  0.00    +0.000 C 
ATOM     12  C   UNL     1       2.139   3.118  21.108  0.00  0.00    +0.000 C 
ATOM     13  C   UNL     1       0.792   3.035  20.413  0.00  0.00    +0.000 C 
ATOM     14  C   UNL     1       1.031   2.920  18.920  0.00  0.00    +0.000 C 
ATOM     15  C   UNL     1       1.852   4.102  18.415  0.00  0.00    +0.000 C 
ENDBRANCH   1  10
BRANCH   1  16
ATOM     16  C   UNL     1       2.665   6.682  18.153  0.00  0.00    +0.000 C 
BRANCH  16  17
ATOM     17  N   UNL     1       2.186   7.691  19.078  0.00  0.00    +0.000 N 
ATOM     18  C   UNL     1       1.754   8.916  18.594  0.00  0.00    +0.000 C 
ATOM     19  O   UNL     1       1.859   9.216  17.403  0.00  0.00    +0.000 OA
ATOM     20  H   UNL     1       1.965   7.464  20.044  0.00  0.00    +0.000 HD
BRANCH  18  21
ATOM     21  C   UNL     1       1.128   9.774  19.580  0.00  0.00    +0.000 A 
ATOM     22  O   UNL     1       0.536   9.190  20.673  0.00  0.00    +0.000 OA
ATOM     23  C   UNL     1      -0.021  10.190  21.404  0.00  0.00    +0.000 A 
ATOM     24  C   UNL     1      -0.681  10.017  22.617  0.00  0.00    +0.000 A 
ATOM     25  C   UNL     1      -1.248  11.160  23.186  0.00  0.00    +0.000 A 
ATOM     26  C   UNL     1      -1.160  12.401  22.550  0.00  0.00    +0.000 A 
ATOM     27  C   UNL     1      -0.450  12.549  21.350  0.00  0.00    +0.000 A 
ATOM     28  C   UNL     1       0.154  11.415  20.778  0.00  0.00    +0.000 A 
ATOM     29  C   UNL     1       0.991  11.154  19.645  0.00  0.00    +0.000 A 
ATOM     30  C   UNL     1       1.600  12.157  18.733  0.00  0.00    +0.000 C 
ENDBRANCH  18  21
ENDBRANCH  16  17
ENDBRANCH   1  16
TORSDOF 6
ENDMDL
MODEL 2
REMARK VINA RESULT:      -8.7      1.007      1.742
REMARK  Name = 
REMARK  8 active torsions:
REMARK  status: ('A' for Active; 'I' for Inactive)
REMARK    1  A    between atoms: C_1  and  O_2
REMARK    2  A    between atoms: O_2  and  C_3
REMARK    3  A    between atoms: C_6  and  C_7
REMARK    4  A    between atoms: C_7  and  C_8
REMARK    5  A    between atoms: C_7  and  N_22
REMARK    6  A    between atoms: C_8  and  N_9
REMARK    7  A    between atoms: C_10  and  C_12
REMARK    8  A    between atoms: C_20  and  C_21
REMARK                            x       y       z     vdW  Elec       q    Type
REMARK                         _______ _______ _______ _____ _____    ______ ____
ROOT
ATOM      1  C   UNL     1       3.687   5.937  19.039  0.00  0.00    +0.000 C 
ENDROOT
BRANCH   1   5
ATOM      2  C   UNL     1       6.856   5.320  16.108  0.00  0.00    +0.000 A 
ATOM      3  C   UNL     1       5.690   6.010  15.763  0.00  0.00    +0.000 A 
ATOM      4  C   UNL     1       4.688   6.244  16.713  0.00  0.00    +0.000 A 
ATOM      5  C   UNL     1       4.826   5.774  18.028  0.00  0.00    +0.000 A 
ATOM      6  C   UNL     1       6.017   5.113  18.371  0.00  0.00    +0.000 A 
ATOM      7  C   UNL     1       7.020   4.884  17.416  0.00  0.00    +0.000 A 
BRANCH   2   9
ATOM      8  C   UNL     1       7.146   4.870  13.795  0.00  0.00    +0.000 C 
ATOM      9  O   UNL     1       7.724   5.103  15.074  0.00  0.00    +0.000 OA
ENDBRANCH   2   9
ENDBRANCH   1   5
BRANCH   1  10
ATOM     10  N   UNL     1       3.158   4.608  19.527  0.00  0.00    +0.000 NA
ATOM     11  C   UNL     1       2.417   4.771  20.794  0.00  0.00    +0.000 C 
ATOM     12  C   UNL     1       1.641   3.523  21.245  0.00  0.00    +0.000 C 
ATOM     13  C   UNL     1       0.729   3.010  20.144  0.00  0.00    +0.000 C 
ATOM     14  C   UNL     1       1.577   2.710  18.923  0.00  0.00    +0.000 C 
ATOM     15  C   UNL     1       2.345   3.952  18.484  0.00  0.00    +0.000 C 
ENDBRANCH   1  10
BRANCH   1  16
ATOM     16  C   UNL     1       2.566   6.854  18.435  0.00  0.00    +0.000 C 
BRANCH  16  17
ATOM     17  N   UNL     1       2.033   7.900  19.287  0.00  0.00    +0.000 N 
ATOM     18  C   UNL     1       1.633   9.104  18.726  0.00  0.00    +0.000 C 
ATOM     19  O   UNL     1       1.812   9.353  17.532  0.00  0.00    +0.000 OA
ATOM     20  H   UNL     1       1.753   7.714  20.245  0.00  0.00    +0.000 HD
BRANCH  18  21
ATOM     21  C   UNL     1       0.950  10.001  19.634  0.00  0.00    +0.000 A 
ATOM     22  O   UNL     1       1.011  11.351  19.390  0.00  0.00    +0.000 OA
ATOM     23  C   UNL     1       0.351  11.969  20.403  0.00  0.00    +0.000 A 
ATOM     24  C   UNL     1       0.149  13.342  20.502  0.00  0.00    +0.000 A 
ATOM     25  C   UNL     1      -0.496  13.796  21.656  0.00  0.00    +0.000 A 
ATOM     26  C   UNL     1      -0.898  12.905  22.654  0.00  0.00    +0.000 A 
ATOM     27  C   UNL     1      -0.718  11.522  22.504  0.00  0.00    +0.000 A 
ATOM     28  C   UNL     1      -0.098  11.045  21.335  0.00  0.00    +0.000 A 
ATOM     29  C   UNL     1       0.202   9.759  20.780  0.00  0.00    +0.000 A 
ATOM     30  C   UNL     1      -0.213   8.435  21.312  0.00  0.00    +0.000 C 
ENDBRANCH  18  21
ENDBRANCH  16  17
ENDBRANCH   1  16
TORSDOF 6
ENDMDL
MODEL 3
REMARK VINA RESULT:      -8.7      0.820      1.038
REMARK  Name = 
REMARK  8 active torsions:
REMARK  status: ('A' for Active; 'I' for Inactive)
REMARK    1  A    between atoms: C_1  and  O_2
REMARK    2  A    between atoms: O_2  and  C_3
REMARK    3  A    between atoms: C_6  and  C_7
REMARK    4  A    between atoms: C_7  and  C_8
REMARK    5  A    between atoms: C_7  and  N_22
REMARK    6  A    between atoms: C_8  and  N_9
REMARK    7  A    between atoms: C_10  and  C_12
REMARK    8  A    between atoms: C_20  and  C_21
REMARK                            x       y       z     vdW  Elec       q    Type
REMARK                         _______ _______ _______ _____ _____    ______ ____
ROOT
ATOM      1  C   UNL     1       3.580   5.437  18.232  0.00  0.00    +0.000 C 
ENDROOT
BRANCH   1   5
ATOM      2  C   UNL     1       6.202   4.600  14.850  0.00  0.00    +0.000 A 
ATOM      3  C   UNL     1       5.768   3.568  15.688  0.00  0.00    +0.000 A 
ATOM      4  C   UNL     1       4.894   3.828  16.751  0.00  0.00    +0.000 A 
ATOM      5  C   UNL     1       4.450   5.134  17.008  0.00  0.00    +0.000 A 
ATOM      6  C   UNL     1       4.865   6.156  16.139  0.00  0.00    +0.000 A 
ATOM      7  C   UNL     1       5.738   5.890  15.072  0.00  0.00    +0.000 A 
BRANCH   2   9
ATOM      8  C   UNL     1       6.562   3.728  12.672  0.00  0.00    +0.000 C 
ATOM      9  O   UNL     1       7.102   4.223  13.891  0.00  0.00    +0.000 OA
ENDBRANCH   2   9
ENDBRANCH   1   5
BRANCH   1  10
ATOM     10  N   UNL     1       3.044   4.181  18.880  0.00  0.00    +0.000 NA
ATOM     11  C   UNL     1       3.180   4.248  20.349  0.00  0.00    +0.000 C 
ATOM     12  C   UNL     1       2.451   3.130  21.110  0.00  0.00    +0.000 C 
ATOM     13  C   UNL     1       0.990   3.044  20.703  0.00  0.00    +0.000 C 
ATOM     14  C   UNL     1       0.924   2.814  19.206  0.00  0.00    +0.000 C 
ATOM     15  C   UNL     1       1.652   3.927  18.458  0.00  0.00    +0.000 C 
ENDBRANCH   1  10
BRANCH   1  16
ATOM     16  C   UNL     1       2.448   6.452  17.844  0.00  0.00    +0.000 C 
BRANCH  16  17
ATOM     17  N   UNL     1       2.029   7.400  18.858  0.00  0.00    +0.000 N 
ATOM     18  C   UNL     1       1.748   8.710  18.499  0.00  0.00    +0.000 C 
ATOM     19  O   UNL     1       1.942   9.123  17.353  0.00  0.00    +0.000 OA
ATOM     20  H   UNL     1       1.739   7.096  19.783  0.00  0.00    +0.000 HD
BRANCH  18  21
ATOM     21  C   UNL     1       1.165   9.518  19.549  0.00  0.00    +0.000 A 
ATOM     22  O   UNL     1       0.588   8.880  20.620  0.00  0.00    +0.000 OA
ATOM     23  C   UNL     1       0.070   9.844  21.425  0.00  0.00    +0.000 A 
ATOM     24  C   UNL     1      -0.564   9.611  22.642  0.00  0.00    +0.000 A 
ATOM     25  C   UNL     1      -1.093  10.728  23.293  0.00  0.00    +0.000 A 
ATOM     26  C   UNL     1      -0.995  12.004  22.731  0.00  0.00    +0.000 A 
ATOM     27  C   UNL     1      -0.312  12.211  21.523  0.00  0.00    +0.000 A 
ATOM     28  C   UNL     1       0.254  11.102  20.869  0.00  0.00    +0.000 A 
ATOM     29  C   UNL     1       1.057  10.894  19.701  0.00  0.00    +0.000 A 
ATOM     30  C   UNL     1       1.665  11.938  18.835  0.00  0.00    +0.000 C 
ENDBRANCH  18  21
ENDBRANCH  16  17
ENDBRANCH   1  16
TORSDOF 6
ENDMDL
MODEL 4
REMARK VINA RESULT:      -8.6      1.287      1.688
REMARK  Name = 
REMARK  8 active torsions:
REMARK  status: ('A' for Active; 'I' for Inactive)
REMARK    1  A    between atoms: C_1  and  O_2
REMARK    2  A    between atoms: O_2  and  C_3
REMARK    3  A    between atoms: C_6  and  C_7
REMARK    4  A    between atoms: C_7  and  C_8
REMARK    5  A    between atoms: C_7  and  N_22
REMARK    6  A    between atoms: C_8  and  N_9
REMARK    7  A    between atoms: C_10  and  C_12
REMARK    8  A    between atoms: C_20  and  C_21
REMARK                            x       y       z     vdW  Elec       q    Type
REMARK                         _______ _______ _______ _____ _____    ______ ____
ROOT
ATOM      1  C   UNL     1       3.625   6.042  19.111  0.00  0.00    +0.000 C 
ENDROOT
BRANCH   1   5
ATOM      2  C   UNL     1       6.834   5.573  16.196  0.00  0.00    +0.000 A 
ATOM      3  C   UNL     1       5.560   5.982  15.793  0.00  0.00    +0.000 A 
ATOM      4  C   UNL     1       4.538   6.172  16.732  0.00  0.00    +0.000 A 
ATOM      5  C   UNL     1       4.769   5.937  18.096  0.00  0.00    +0.000 A 
ATOM      6  C   UNL     1       6.062   5.560  18.492  0.00  0.00    +0.000 A 
ATOM      7  C   UNL     1       7.084   5.375  17.548  0.00  0.00    +0.000 A 
BRANCH   2   9
ATOM      8  C   UNL     1       7.178   4.896  13.946  0.00  0.00    +0.000 C 
ATOM      9  O   UNL     1       7.721   5.363  15.176  0.00  0.00    +0.000 OA
ENDBRANCH   2   9
ENDBRANCH   1   5
BRANCH   1  10
ATOM     10  N   UNL     1       3.383   4.741  19.840  0.00  0.00    +0.000 NA
ATOM     11  C   UNL     1       2.378   4.916  20.907  0.00  0.00    +0.000 C 
ATOM     12  C   UNL     1       1.890   3.605  21.545  0.00  0.00    +0.000 C 
ATOM     13  C   UNL     1       1.401   2.626  20.494  0.00  0.00    +0.000 C 
ATOM     14  C   UNL     1       2.533   2.365  19.520  0.00  0.00    +0.000 C 
ATOM     15  C   UNL     1       3.014   3.670  18.893  0.00  0.00    +0.000 C 
ENDBRANCH   1  10
BRANCH   1  16
ATOM     16  C   UNL     1       2.337   6.594  18.406  0.00  0.00    +0.000 C 
BRANCH  16  17
ATOM     17  N   UNL     1       1.709   7.764  18.989  0.00  0.00    +0.000 N 
ATOM     18  C   UNL     1       1.647   8.944  18.263  0.00  0.00    +0.000 C 
ATOM     19  O   UNL     1       2.203   9.060  17.169  0.00  0.00    +0.000 OA
ATOM     20  H   UNL     1       1.136   7.698  19.825  0.00  0.00    +0.000 HD
BRANCH  18  21
ATOM     21  C   UNL     1       0.842   9.987  18.864  0.00  0.00    +0.000 A 
ATOM     22  O   UNL     1       1.388  10.730  19.881  0.00  0.00    +0.000 OA
ATOM     23  C   UNL     1       0.425  11.589  20.307  0.00  0.00    +0.000 A 
ATOM     24  C   UNL     1       0.596  12.547  21.301  0.00  0.00    +0.000 A 
ATOM     25  C   UNL     1      -0.535  13.292  21.649  0.00  0.00    +0.000 A 
ATOM     26  C   UNL     1      -1.767  13.063  21.030  0.00  0.00    +0.000 A 
ATOM     27  C   UNL     1      -1.894  12.119  20.001  0.00  0.00    +0.000 A 
ATOM     28  C   UNL     1      -0.760  11.381  19.617  0.00  0.00    +0.000 A 
ATOM     29  C   UNL     1      -0.456  10.411  18.608  0.00  0.00    +0.000 A 
ATOM     30  C   UNL     1      -1.342   9.958  17.504  0.00  0.00    +0.000 C 
ENDBRANCH  18  21
ENDBRANCH  16  17
ENDBRANCH   1  16
TORSDOF 6
ENDMDL
MODEL 5
REMARK VINA RESULT:      -8.5      0.863      1.451
REMARK  Name = 
REMARK  8 active torsions:
REMARK  status: ('A' for Active; 'I' for Inactive)
REMARK    1  A    between atoms: C_1  and  O_2
REMARK    2  A    between atoms: O_2  and  C_3
REMARK    3  A    between atoms: C_6  and  C_7
REMARK    4  A    between atoms: C_7  and  C_8
REMARK    5  A    between atoms: C_7  and  N_22
REMARK    6  A    between atoms: C_8  and  N_9
REMARK    7  A    between atoms: C_10  and  C_12
REMARK    8  A    between atoms: C_20  and  C_21
REMARK                            x       y       z     vdW  Elec       q    Type
REMARK                         _______ _______ _______ _____ _____    ______ ____
ROOT
ATOM      1  C   UNL     1       3.824   5.956  18.606  0.00  0.00    +0.000 C 
ENDROOT
BRANCH   1   5
ATOM      2  C   UNL     1       6.882   5.360  15.556  0.00  0.00    +0.000 A 
ATOM      3  C   UNL     1       7.180   6.042  16.739  0.00  0.00    +0.000 A 
ATOM      4  C   UNL     1       6.211   6.200  17.738  0.00  0.00    +0.000 A 
ATOM      5  C   UNL     1       4.914   5.693  17.562  0.00  0.00    +0.000 A 
ATOM      6  C   UNL     1       4.638   4.979  16.385  0.00  0.00    +0.000 A 
ATOM      7  C   UNL     1       5.614   4.819  15.389  0.00  0.00    +0.000 A 
BRANCH   2   9
ATOM      8  C   UNL     1       7.542   4.955  13.311  0.00  0.00    +0.000 C 
ATOM      9  O   UNL     1       7.896   5.331  14.637  0.00  0.00    +0.000 OA
ENDBRANCH   2   9
ENDBRANCH   1   5
BRANCH   1  10
ATOM     10  N   UNL     1       3.172   4.682  19.091  0.00  0.00    +0.000 NA
ATOM     11  C   UNL     1       2.855   4.768  20.530  0.00  0.00    +0.000 C 
ATOM     12  C   UNL     1       1.979   3.622  21.061  0.00  0.00    +0.000 C 
ATOM     13  C   UNL     1       0.715   3.464  20.235  0.00  0.00    +0.000 C 
ATOM     14  C   UNL     1       1.114   3.218  18.793  0.00  0.00    +0.000 C 
ATOM     15  C   UNL     1       1.985   4.358  18.275  0.00  0.00    +0.000 C 
ENDBRANCH   1  10
BRANCH   1  16
ATOM     16  C   UNL     1       2.790   6.995  18.046  0.00  0.00    +0.000 C 
BRANCH  16  17
ATOM     17  N   UNL     1       2.101   7.832  19.009  0.00  0.00    +0.000 N 
ATOM     18  C   UNL     1       1.594   9.061  18.611  0.00  0.00    +0.000 C 
ATOM     19  O   UNL     1       1.801   9.512  17.483  0.00  0.00    +0.000 OA
ATOM     20  H   UNL     1       1.799   7.470  19.908  0.00  0.00    +0.000 HD
BRANCH  18  21
ATOM     21  C   UNL     1       0.771   9.728  19.598  0.00  0.00    +0.000 A 
ATOM     22  O   UNL     1       0.006  10.796  19.198  0.00  0.00    +0.000 OA
ATOM     23  C   UNL     1      -0.618  11.275  20.305  0.00  0.00    +0.000 A 
ATOM     24  C   UNL     1      -1.522  12.333  20.314  0.00  0.00    +0.000 A 
ATOM     25  C   UNL     1      -2.008  12.725  21.565  0.00  0.00    +0.000 A 
ATOM     26  C   UNL     1      -1.587  12.088  22.734  0.00  0.00    +0.000 A 
ATOM     27  C   UNL     1      -0.708  10.996  22.686  0.00  0.00    +0.000 A 
ATOM     28  C   UNL     1      -0.232  10.567  21.434  0.00  0.00    +0.000 A 
ATOM     29  C   UNL     1       0.590   9.496  20.956  0.00  0.00    +0.000 A 
ATOM     30  C   UNL     1       1.130   8.360  21.747  0.00  0.00    +0.000 C 
ENDBRANCH  18  21
ENDBRANCH  16  17
ENDBRANCH   1  16
TORSDOF 6
ENDMDL
MODEL 6
REMARK VINA RESULT:      -8.5      2.272      2.712
REMARK  Name = 
REMARK  8 active torsions:
REMARK  status: ('A' for Active; 'I' for Inactive)
REMARK    1  A    between atoms: C_1  and  O_2
REMARK    2  A    between atoms: O_2  and  C_3
REMARK    3  A    between atoms: C_6  and  C_7
REMARK    4  A    between atoms: C_7  and  C_8
REMARK    5  A    between atoms: C_7  and  N_22
REMARK    6  A    between atoms: C_8  and  N_9
REMARK    7  A    between atoms: C_10  and  C_12
REMARK    8  A    between atoms: C_20  and  C_21
REMARK                            x       y       z     vdW  Elec       q    Type
REMARK                         _______ _______ _______ _____ _____    ______ ____
ROOT
ATOM      1  C   UNL     1       3.478   6.537  18.405  0.00  0.00    +0.000 C 
ENDROOT
BRANCH   1   5
ATOM      2  C   UNL     1       5.954   4.425  15.502  0.00  0.00    +0.000 A 
ATOM      3  C   UNL     1       5.560   5.746  15.275  0.00  0.00    +0.000 A 
ATOM      4  C   UNL     1       4.799   6.440  16.224  0.00  0.00    +0.000 A 
ATOM      5  C   UNL     1       4.399   5.815  17.415  0.00  0.00    +0.000 A 
ATOM      6  C   UNL     1       4.831   4.500  17.647  0.00  0.00    +0.000 A 
ATOM      7  C   UNL     1       5.597   3.810  16.695  0.00  0.00    +0.000 A 
BRANCH   2   9
ATOM      8  C   UNL     1       5.935   3.693  13.244  0.00  0.00    +0.000 C 
ATOM      9  O   UNL     1       6.639   3.842  14.471  0.00  0.00    +0.000 OA
ENDBRANCH   2   9
ENDBRANCH   1   5
BRANCH   1  10
ATOM     10  N   UNL     1       2.267   5.710  18.770  0.00  0.00    +0.000 NA
ATOM     11  C   UNL     1       2.100   4.581  17.834  0.00  0.00    +0.000 C 
ATOM     12  C   UNL     1       1.043   3.549  18.260  0.00  0.00    +0.000 C 
ATOM     13  C   UNL     1       1.291   3.052  19.673  0.00  0.00    +0.000 C 
ATOM     14  C   UNL     1       1.291   4.247  20.607  0.00  0.00    +0.000 C 
ATOM     15  C   UNL     1       2.340   5.266  20.176  0.00  0.00    +0.000 C 
ENDBRANCH   1  10
BRANCH   1  16
ATOM     16  C   UNL     1       3.103   7.954  17.846  0.00  0.00    +0.000 C 
BRANCH  16  17
ATOM     17  N   UNL     1       1.806   8.491  18.213  0.00  0.00    +0.000 N 
ATOM     18  C   UNL     1       1.553   9.845  18.049  0.00  0.00    +0.000 C 
ATOM     19  O   UNL     1       2.434  10.630  17.694  0.00  0.00    +0.000 OA
ATOM     20  H   UNL     1       1.012   7.885  18.394  0.00  0.00    +0.000 HD
BRANCH  18  21
ATOM     21  C   UNL     1       0.177  10.238  18.271  0.00  0.00    +0.000 A 
ATOM     22  O   UNL     1      -0.799   9.669  17.491  0.00  0.00    +0.000 OA
ATOM     23  C   UNL     1      -1.979  10.239  17.851  0.00  0.00    +0.000 A 
ATOM     24  C   UNL     1      -3.221   9.901  17.323  0.00  0.00    +0.000 A 
ATOM     25  C   UNL     1      -4.312  10.650  17.771  0.00  0.00    +0.000 A 
ATOM     26  C   UNL     1      -4.145  11.689  18.690  0.00  0.00    +0.000 A 
ATOM     27  C   UNL     1      -2.885  11.976  19.235  0.00  0.00    +0.000 A 
ATOM     28  C   UNL     1      -1.780  11.212  18.820  0.00  0.00    +0.000 A 
ATOM     29  C   UNL     1      -0.391  11.137  19.165  0.00  0.00    +0.000 A 
ATOM     30  C   UNL     1       0.299  11.860  20.264  0.00  0.00    +0.000 C 
ENDBRANCH  18  21
ENDBRANCH  16  17
ENDBRANCH   1  16
TORSDOF 6
ENDMDL
MODEL 7
REMARK VINA RESULT:      -8.5      1.372      1.836
REMARK  Name = 
REMARK  8 active torsions:
REMARK  status: ('A' for Active; 'I' for Inactive)
REMARK    1  A    between atoms: C_1  and  O_2
REMARK    2  A    between atoms: O_2  and  C_3
REMARK    3  A    between atoms: C_6  and  C_7
REMARK    4  A    between atoms: C_7  and  C_8
REMARK    5  A    between atoms: C_7  and  N_22
REMARK    6  A    between atoms: C_8  and  N_9
REMARK    7  A    between atoms: C_10  and  C_12
REMARK    8  A    between atoms: C_20  and  C_21
REMARK                            x       y       z     vdW  Elec       q    Type
REMARK                         _______ _______ _______ _____ _____    ______ ____
ROOT
ATOM      1  C   UNL     1       2.965   6.663  19.078  0.00  0.00    +0.000 C 
ENDROOT
BRANCH   1   5
ATOM      2  C   UNL     1       6.401   5.289  16.772  0.00  0.00    +0.000 A 
ATOM      3  C   UNL     1       5.409   6.072  16.174  0.00  0.00    +0.000 A 
ATOM      4  C   UNL     1       4.325   6.547  16.922  0.00  0.00    +0.000 A 
ATOM      5  C   UNL     1       4.203   6.232  18.284  0.00  0.00    +0.000 A 
ATOM      6  C   UNL     1       5.224   5.475  18.881  0.00  0.00    +0.000 A 
ATOM      7  C   UNL     1       6.311   5.004  18.128  0.00  0.00    +0.000 A 
BRANCH   2   9
ATOM      8  C   UNL     1       7.017   4.754  14.542  0.00  0.00    +0.000 C 
ATOM      9  O   UNL     1       7.370   4.837  15.918  0.00  0.00    +0.000 OA
ENDBRANCH   2   9
ENDBRANCH   1   5
BRANCH   1  10
ATOM     10  N   UNL     1       1.974   5.535  19.252  0.00  0.00    +0.000 NA
ATOM     11  C   UNL     1       2.096   4.554  18.156  0.00  0.00    +0.000 C 
ATOM     12  C   UNL     1       1.301   3.256  18.369  0.00  0.00    +0.000 C 
ATOM     13  C   UNL     1       1.629   2.619  19.708  0.00  0.00    +0.000 C 
ATOM     14  C   UNL     1       1.329   3.625  20.802  0.00  0.00    +0.000 C 
ATOM     15  C   UNL     1       2.120   4.910  20.582  0.00  0.00    +0.000 C 
ENDBRANCH   1  10
BRANCH   1  16
ATOM     16  C   UNL     1       2.328   7.937  18.421  0.00  0.00    +0.000 C 
BRANCH  16  17
ATOM     17  N   UNL     1       1.459   8.749  19.251  0.00  0.00    +0.000 N 
ATOM     18  C   UNL     1       1.336  10.107  18.994  0.00  0.00    +0.000 C 
ATOM     19  O   UNL     1       2.024  10.669  18.139  0.00  0.00    +0.000 OA
ATOM     20  H   UNL     1       0.785   8.330  19.884  0.00  0.00    +0.000 HD
BRANCH  18  21
ATOM     21  C   UNL     1       0.310  10.781  19.761  0.00  0.00    +0.000 A 
ATOM     22  O   UNL     1       0.283  10.597  21.121  0.00  0.00    +0.000 OA
ATOM     23  C   UNL     1      -0.793  11.278  21.594  0.00  0.00    +0.000 A 
ATOM     24  C   UNL     1      -1.146  11.379  22.936  0.00  0.00    +0.000 A 
ATOM     25  C   UNL     1      -2.329  12.067  23.219  0.00  0.00    +0.000 A 
ATOM     26  C   UNL     1      -3.111  12.607  22.195  0.00  0.00    +0.000 A 
ATOM     27  C   UNL     1      -2.705  12.525  20.855  0.00  0.00    +0.000 A 
ATOM     28  C   UNL     1      -1.501  11.863  20.554  0.00  0.00    +0.000 A 
ATOM     29  C   UNL     1      -0.724  11.625  19.374  0.00  0.00    +0.000 A 
ATOM     30  C   UNL     1      -0.964  12.179  18.016  0.00  0.00    +0.000 C 
ENDBRANCH  18  21
ENDBRANCH  16  17
ENDBRANCH   1  16
TORSDOF 6
ENDMDL
MODEL 8
REMARK VINA RESULT:      -8.5      1.316      2.199
REMARK  Name = 
REMARK  8 active torsions:
REMARK  status: ('A' for Active; 'I' for Inactive)
REMARK    1  A    between atoms: C_1  and  O_2
REMARK    2  A    between atoms: O_2  and  C_3
REMARK    3  A    between atoms: C_6  and  C_7
REMARK    4  A    between atoms: C_7  and  C_8
REMARK    5  A    between atoms: C_7  and  N_22
REMARK    6  A    between atoms: C_8  and  N_9
REMARK    7  A    between atoms: C_10  and  C_12
REMARK    8  A    between atoms: C_20  and  C_21
REMARK                            x       y       z     vdW  Elec       q    Type
REMARK                         _______ _______ _______ _____ _____    ______ ____
ROOT
ATOM      1  C   UNL     1       3.650   5.822  19.323  0.00  0.00    +0.000 C 
ENDROOT
BRANCH   1   5
ATOM      2  C   UNL     1       6.754   5.508  16.277  0.00  0.00    +0.000 A 
ATOM      3  C   UNL     1       5.535   6.129  15.991  0.00  0.00    +0.000 A 
ATOM      4  C   UNL     1       4.552   6.267  16.979  0.00  0.00    +0.000 A 
ATOM      5  C   UNL     1       4.764   5.767  18.272  0.00  0.00    +0.000 A 
ATOM      6  C   UNL     1       6.006   5.176  18.556  0.00  0.00    +0.000 A 
ATOM      7  C   UNL     1       6.990   5.045  17.564  0.00  0.00    +0.000 A 
BRANCH   2   9
ATOM      8  C   UNL     1       7.051   4.814  14.026  0.00  0.00    +0.000 C 
ATOM      9  O   UNL     1       7.600   5.382  15.209  0.00  0.00    +0.000 OA
ENDBRANCH   2   9
ENDBRANCH   1   5
BRANCH   1  10
ATOM     10  N   UNL     1       3.291   4.453  19.853  0.00  0.00    +0.000 NA
ATOM     11  C   UNL     1       2.500   4.561  21.094  0.00  0.00    +0.000 C 
ATOM     12  C   UNL     1       1.886   3.237  21.577  0.00  0.00    +0.000 C 
ATOM     13  C   UNL     1       1.083   2.565  20.477  0.00  0.00    +0.000 C 
ATOM     14  C   UNL     1       1.997   2.338  19.289  0.00  0.00    +0.000 C 
ATOM     15  C   UNL     1       2.604   3.655  18.818  0.00  0.00    +0.000 C 
ENDBRANCH   1  10
BRANCH   1  16
ATOM     16  C   UNL     1       2.413   6.597  18.748  0.00  0.00    +0.000 C 
BRANCH  16  17
ATOM     17  N   UNL     1       2.196   7.950  19.223  0.00  0.00    +0.000 N 
ATOM     18  C   UNL     1       1.912   8.959  18.315  0.00  0.00    +0.000 C 
ATOM     19  O   UNL     1       1.938   8.761  17.098  0.00  0.00    +0.000 OA
ATOM     20  H   UNL     1       2.045   8.150  20.207  0.00  0.00    +0.000 HD
BRANCH  18  21
ATOM     21  C   UNL     1       1.534  10.224  18.909  0.00  0.00    +0.000 A 
ATOM     22  O   UNL     1       2.110  11.372  18.425  0.00  0.00    +0.000 OA
ATOM     23  C   UNL     1       1.641  12.401  19.177  0.00  0.00    +0.000 A 
ATOM     24  C   UNL     1       1.953  13.742  18.977  0.00  0.00    +0.000 A 
ATOM     25  C   UNL     1       1.425  14.649  19.900  0.00  0.00    +0.000 A 
ATOM     26  C   UNL     1       0.639  14.213  20.970  0.00  0.00    +0.000 A 
ATOM     27  C   UNL     1       0.308  12.858  21.119  0.00  0.00    +0.000 A 
ATOM     28  C   UNL     1       0.805  11.935  20.181  0.00  0.00    +0.000 A 
ATOM     29  C   UNL     1       0.655  10.531  19.940  0.00  0.00    +0.000 A 
ATOM     30  C   UNL     1      -0.263   9.595  20.639  0.00  0.00    +0.000 C 
ENDBRANCH  18  21
ENDBRANCH  16  17
ENDBRANCH   1  16
TORSDOF 6
ENDMDL
MODEL 9
REMARK VINA RESULT:      -8.4      1.302      2.152
REMARK  Name = 
REMARK  8 active torsions:
REMARK  status: ('A' for Active; 'I' for Inactive)
REMARK    1  A    between atoms: C_1  and  O_2
REMARK    2  A    between atoms: O_2  and  C_3
REMARK    3  A    between atoms: C_6  and  C_7
REMARK    4  A    between atoms: C_7  and  C_8
REMARK    5  A    between atoms: C_7  and  N_22
REMARK    6  A    between atoms: C_8  and  N_9
REMARK    7  A    between atoms: C_10  and  C_12
REMARK    8  A    between atoms: C_20  and  C_21
REMARK                            x       y       z     vdW  Elec       q    Type
REMARK                         _______ _______ _______ _____ _____    ______ ____
ROOT
ATOM      1  C   UNL     1       3.036   6.508  19.019  0.00  0.00    +0.000 C 
ENDROOT
BRANCH   1   5
ATOM      2  C   UNL     1       6.456   5.105  16.706  0.00  0.00    +0.000 A 
ATOM      3  C   UNL     1       5.550   6.016  16.157  0.00  0.00    +0.000 A 
ATOM      4  C   UNL     1       4.473   6.499  16.911  0.00  0.00    +0.000 A 
ATOM      5  C   UNL     1       4.271   6.063  18.229  0.00  0.00    +0.000 A 
ATOM      6  C   UNL     1       5.208   5.174  18.781  0.00  0.00    +0.000 A 
ATOM      7  C   UNL     1       6.288   4.697  18.023  0.00  0.00    +0.000 A 
BRANCH   2   9
ATOM      8  C   UNL     1       7.082   4.638  14.464  0.00  0.00    +0.000 C 
ATOM      9  O   UNL     1       7.423   4.665  15.845  0.00  0.00    +0.000 OA
ENDBRANCH   2   9
ENDBRANCH   1   5
BRANCH   1  10
ATOM     10  N   UNL     1       2.010   5.406  19.150  0.00  0.00    +0.000 NA
ATOM     11  C   UNL     1       2.200   4.384  18.102  0.00  0.00    +0.000 C 
ATOM     12  C   UNL     1       1.362   3.109  18.294  0.00  0.00    +0.000 C 
ATOM     13  C   UNL     1       1.567   2.515  19.676  0.00  0.00    +0.000 C 
ATOM     14  C   UNL     1       1.200   3.565  20.707  0.00  0.00    +0.000 C 
ATOM     15  C   UNL     1       2.033   4.827  20.508  0.00  0.00    +0.000 C 
ENDBRANCH   1  10
BRANCH   1  16
ATOM     16  C   UNL     1       2.446   7.819  18.391  0.00  0.00    +0.000 C 
BRANCH  16  17
ATOM     17  N   UNL     1       1.832   8.772  19.295  0.00  0.00    +0.000 N 
ATOM     18  C   UNL     1       0.768   9.547  18.856  0.00  0.00    +0.000 C 
ATOM     19  O   UNL     1       0.391   9.524  17.683  0.00  0.00    +0.000 OA
ATOM     20  H   UNL     1       2.016   8.752  20.293  0.00  0.00    +0.000 HD
BRANCH  18  21
ATOM     21  C   UNL     1       0.117  10.326  19.889  0.00  0.00    +0.000 A 
ATOM     22  O   UNL     1      -0.122  11.657  19.650  0.00  0.00    +0.000 OA
ATOM     23  C   UNL     1      -0.679  12.169  20.778  0.00  0.00    +0.000 A 
ATOM     24  C   UNL     1      -1.111  13.484  20.927  0.00  0.00    +0.000 A 
ATOM     25  C   UNL     1      -1.595  13.841  22.189  0.00  0.00    +0.000 A 
ATOM     26  C   UNL     1      -1.624  12.918  23.237  0.00  0.00    +0.000 A 
ATOM     27  C   UNL     1      -1.222  11.589  23.041  0.00  0.00    +0.000 A 
ATOM     28  C   UNL     1      -0.761  11.203  21.770  0.00  0.00    +0.000 A 
ATOM     29  C   UNL     1      -0.338   9.980  21.155  0.00  0.00    +0.000 A 
ATOM     30  C   UNL     1      -0.389   8.617  21.744  0.00  0.00    +0.000 C 
ENDBRANCH  18  21
ENDBRANCH  16  17
ENDBRANCH   1  16
TORSDOF 6
ENDMDL
