MODEL 1
REMARK VINA RESULT:      -8.2      0.000      0.000
REMARK  Name = 
REMARK  11 active torsions:
REMARK  status: ('A' for Active; 'I' for Inactive)
REMARK    1  A    between atoms: C_2  and  O_3
REMARK    2  A    between atoms: C_2  and  C_4
REMARK    3  A    between atoms: C_4  and  C_5
REMARK    4  A    between atoms: C_5  and  C_6
REMARK    5  A    between atoms: C_6  and  C_7
REMARK    6  A    between atoms: C_7  and  C_8
REMARK    7  A    between atoms: C_8  and  C_9
REMARK    8  A    between atoms: C_9  and  N_10
REMARK    9  A    between atoms: C_11  and  C_13
REMARK   10  A    between atoms: N_17  and  C_18
REMARK   11  A    between atoms: N_17  and  C_24
REMARK                            x       y       z     vdW  Elec       q    Type
REMARK                         _______ _______ _______ _____ _____    ______ ____
ROOT
ATOM      1  C   UNL     1       1.507   9.477  18.802  0.00  0.00    +0.000 A 
ATOM      2  C   UNL     1       2.287   9.002  17.779  0.00  0.00    +0.000 A 
ATOM      3  N   UNL     1       2.844   7.766  17.772  0.00  0.00    +0.000 NA
ATOM      4  C   UNL     1       2.629   6.967  18.843  0.00  0.00    +0.000 A 
ATOM      5  N   UNL     1       3.191   5.631  18.857  0.00  0.00    +0.000 N 
ATOM      6  N   UNL     1       1.898   7.387  19.900  0.00  0.00    +0.000 NA
ATOM      7  C   UNL     1       1.359   8.626  19.866  0.00  0.00    +0.000 A 
ENDROOT
BRANCH   5   8
ATOM      8  C   UNL     1       4.399   5.356  18.126  0.00  0.00    +0.000 A 
ATOM      9  C   UNL     1       4.359   4.705  16.886  0.00  0.00    +0.000 A 
ATOM     10  C   UNL     1       5.526   4.365  16.215  0.00  0.00    +0.000 A 
ATOM     11  C   UNL     1       6.759   4.713  16.757  0.00  0.00    +0.000 A 
ATOM     12  C   UNL     1       6.826   5.415  17.955  0.00  0.00    +0.000 A 
ATOM     13  C   UNL     1       5.655   5.743  18.632  0.00  0.00    +0.000 A 
ENDBRANCH   5   8
BRANCH   5  14
ATOM     14  C   UNL     1       2.539   4.597  19.613  0.00  0.00    +0.000 A 
ATOM     15  C   UNL     1       2.964   4.264  20.907  0.00  0.00    +0.000 A 
ATOM     16  C   UNL     1       2.373   3.227  21.614  0.00  0.00    +0.000 A 
ATOM     17  C   UNL     1       1.311   2.523  21.042  0.00  0.00    +0.000 A 
ATOM     18  C   UNL     1       0.845   2.858  19.783  0.00  0.00    +0.000 A 
ATOM     19  C   UNL     1       1.448   3.887  19.072  0.00  0.00    +0.000 A 
ENDBRANCH   5  14
BRANCH   1  21
ATOM     20  N   UNL     1      -0.304  10.919  18.109  0.00  0.00    +0.000 N 
ATOM     21  C   UNL     1       0.881  10.800  18.802  0.00  0.00    +0.000 C 
ATOM     22  O   UNL     1       1.403  11.717  19.431  0.00  0.00    +0.000 OA
ATOM     23  H   UNL     1      -0.788  10.092  17.778  0.00  0.00    +0.000 HD
BRANCH  20  24
ATOM     24  C   UNL     1      -1.022  12.175  18.092  0.00  0.00    +0.000 C 
BRANCH  24  25
ATOM     25  C   UNL     1      -2.523  11.968  18.283  0.00  0.00    +0.000 C 
BRANCH  25  26
ATOM     26  C   UNL     1      -3.135  11.296  17.057  0.00  0.00    +0.000 C 
BRANCH  26  27
ATOM     27  C   UNL     1      -4.665  11.295  17.104  0.00  0.00    +0.000 C 
BRANCH  27  28
ATOM     28  C   UNL     1      -5.166  11.190  18.553  0.00  0.00    +0.000 C 
BRANCH  28  29
ATOM     29  C   UNL     1      -6.699  11.055  18.621  0.00  0.00    +0.000 C 
BRANCH  29  31
ATOM     30  O   UNL     1      -7.201  10.358  20.872  0.00  0.00    +0.000 OA
ATOM     31  C   UNL     1      -7.179  10.103  19.688  0.00  0.00    +0.000 C 
BRANCH  31  32
ATOM     32  O   UNL     1      -7.597   8.903  19.229  0.00  0.00    +0.000 OA
ATOM     33  H   UNL     1      -7.431   8.133  19.797  0.00  0.00    +0.000 HD
ENDBRANCH  31  32
ENDBRANCH  29  31
ENDBRANCH  28  29
ENDBRANCH  27  28
ENDBRANCH  26  27
ENDBRANCH  25  26
ENDBRANCH  24  25
ENDBRANCH  20  24
ENDBRANCH   1  21
TORSDOF 11
ENDMDL
MODEL 2
REMARK VINA RESULT:      -8.1      2.586      4.488
REMARK  Name = 
REMARK  11 active torsions:
REMARK  status: ('A' for Active; 'I' for Inactive)
REMARK    1  A    between atoms: C_2  and  O_3
REMARK    2  A    between atoms: C_2  and  C_4
REMARK    3  A    between atoms: C_4  and  C_5
REMARK    4  A    between atoms: C_5  and  C_6
REMARK    5  A    between atoms: C_6  and  C_7
REMARK    6  A    between atoms: C_7  and  C_8
REMARK    7  A    between atoms: C_8  and  C_9
REMARK    8  A    between atoms: C_9  and  N_10
REMARK    9  A    between atoms: C_11  and  C_13
REMARK   10  A    between atoms: N_17  and  C_18
REMARK   11  A    between atoms: N_17  and  C_24
REMARK                            x       y       z     vdW  Elec       q    Type
REMARK                         _______ _______ _______ _____ _____    ______ ____
ROOT
ATOM      1  C   UNL     1       1.696   9.267  18.769  0.00  0.00    +0.000 A 
ATOM      2  C   UNL     1       1.416   8.425  19.815  0.00  0.00    +0.000 A 
ATOM      3  N   UNL     1       1.937   7.179  19.935  0.00  0.00    +0.000 NA
ATOM      4  C   UNL     1       2.766   6.741  18.959  0.00  0.00    +0.000 A 
ATOM      5  N   UNL     1       3.358   5.423  19.068  0.00  0.00    +0.000 N 
ATOM      6  N   UNL     1       3.056   7.508  17.884  0.00  0.00    +0.000 NA
ATOM      7  C   UNL     1       2.516   8.745  17.803  0.00  0.00    +0.000 A 
ENDROOT
BRANCH   5   8
ATOM      8  C   UNL     1       2.669   4.387  19.790  0.00  0.00    +0.000 A 
ATOM      9  C   UNL     1       1.677   3.614  19.171  0.00  0.00    +0.000 A 
ATOM     10  C   UNL     1       0.953   2.670  19.884  0.00  0.00    +0.000 A 
ATOM     11  C   UNL     1       1.241   2.450  21.227  0.00  0.00    +0.000 A 
ATOM     12  C   UNL     1       2.262   3.158  21.850  0.00  0.00    +0.000 A 
ATOM     13  C   UNL     1       2.978   4.114  21.136  0.00  0.00    +0.000 A 
ENDBRANCH   5   8
BRANCH   5  14
ATOM     14  C   UNL     1       4.625   5.162  18.441  0.00  0.00    +0.000 A 
ATOM     15  C   UNL     1       5.832   5.415  19.108  0.00  0.00    +0.000 A 
ATOM     16  C   UNL     1       7.055   5.218  18.482  0.00  0.00    +0.000 A 
ATOM     17  C   UNL     1       7.086   4.724  17.176  0.00  0.00    +0.000 A 
ATOM     18  C   UNL     1       5.911   4.427  16.510  0.00  0.00    +0.000 A 
ATOM     19  C   UNL     1       4.688   4.639  17.134  0.00  0.00    +0.000 A 
ENDBRANCH   5  14
BRANCH   1  21
ATOM     20  N   UNL     1      -0.206  10.758  18.795  0.00  0.00    +0.000 N 
ATOM     21  C   UNL     1       1.158  10.623  18.650  0.00  0.00    +0.000 C 
ATOM     22  O   UNL     1       1.924  11.565  18.467  0.00  0.00    +0.000 OA
ATOM     23  H   UNL     1      -0.763   9.984  19.139  0.00  0.00    +0.000 HD
BRANCH  20  24
ATOM     24  C   UNL     1      -0.824  12.065  18.742  0.00  0.00    +0.000 C 
BRANCH  24  25
ATOM     25  C   UNL     1      -2.064  12.064  17.850  0.00  0.00    +0.000 C 
BRANCH  25  26
ATOM     26  C   UNL     1      -2.657  10.661  17.753  0.00  0.00    +0.000 C 
BRANCH  26  27
ATOM     27  C   UNL     1      -2.285   9.968  16.440  0.00  0.00    +0.000 C 
BRANCH  27  28
ATOM     28  C   UNL     1      -2.900  10.705  15.240  0.00  0.00    +0.000 C 
BRANCH  28  29
ATOM     29  C   UNL     1      -3.862   9.804  14.445  0.00  0.00    +0.000 C 
BRANCH  29  31
ATOM     30  O   UNL     1      -4.407   9.902  12.100  0.00  0.00    +0.000 OA
ATOM     31  C   UNL     1      -3.572   9.760  12.965  0.00  0.00    +0.000 C 
BRANCH  31  32
ATOM     32  O   UNL     1      -2.276   9.545  12.649  0.00  0.00    +0.000 OA
ATOM     33  H   UNL     1      -1.679  10.309  12.694  0.00  0.00    +0.000 HD
ENDBRANCH  31  32
ENDBRANCH  29  31
ENDBRANCH  28  29
ENDBRANCH  27  28
ENDBRANCH  26  27
ENDBRANCH  25  26
ENDBRANCH  24  25
ENDBRANCH  20  24
ENDBRANCH   1  21
TORSDOF 11
ENDMDL
MODEL 3
REMARK VINA RESULT:      -8.0      2.687      3.268
REMARK  Name = 
REMARK  11 active torsions:
REMARK  status: ('A' for Active; 'I' for Inactive)
REMARK    1  A    between atoms: C_2  and  O_3
REMARK    2  A    between atoms: C_2  and  C_4
REMARK    3  A    between atoms: C_4  and  C_5
REMARK    4  A    between atoms: C_5  and  C_6
REMARK    5  A    between atoms: C_6  and  C_7
REMARK    6  A    between atoms: C_7  and  C_8
REMARK    7  A    between atoms: C_8  and  C_9
REMARK    8  A    between atoms: C_9  and  N_10
REMARK    9  A    between atoms: C_11  and  C_13
REMARK   10  A    between atoms: N_17  and  C_18
REMARK   11  A    between atoms: N_17  and  C_24
REMARK                            x       y       z     vdW  Elec       q    Type
REMARK                         _______ _______ _______ _____ _____    ______ ____
ROOT
ATOM      1  C   UNL     1       1.520   9.255  18.879  0.00  0.00    +0.000 A 
ATOM      2  C   UNL     1       2.272   9.010  17.759  0.00  0.00    +0.000 A 
ATOM      3  N   UNL     1       2.913   7.838  17.527  0.00  0.00    +0.000 NA
ATOM      4  C   UNL     1       2.813   6.864  18.462  0.00  0.00    +0.000 A 
ATOM      5  N   UNL     1       3.466   5.591  18.234  0.00  0.00    +0.000 N 
ATOM      6  N   UNL     1       2.115   7.054  19.604  0.00  0.00    +0.000 NA
ATOM      7  C   UNL     1       1.491   8.237  19.796  0.00  0.00    +0.000 A 
ENDROOT
BRANCH   5   8
ATOM      8  C   UNL     1       4.648   5.530  17.416  0.00  0.00    +0.000 A 
ATOM      9  C   UNL     1       4.697   4.712  16.280  0.00  0.00    +0.000 A 
ATOM     10  C   UNL     1       5.860   4.587  15.534  0.00  0.00    +0.000 A 
ATOM     11  C   UNL     1       6.990   5.319  15.889  0.00  0.00    +0.000 A 
ATOM     12  C   UNL     1       6.949   6.186  16.975  0.00  0.00    +0.000 A 
ATOM     13  C   UNL     1       5.786   6.299  17.729  0.00  0.00    +0.000 A 
ENDBRANCH   5   8
BRANCH   5  14
ATOM     14  C   UNL     1       2.931   4.402  18.840  0.00  0.00    +0.000 A 
ATOM     15  C   UNL     1       1.767   3.796  18.346  0.00  0.00    +0.000 A 
ATOM     16  C   UNL     1       1.217   2.683  18.966  0.00  0.00    +0.000 A 
ATOM     17  C   UNL     1       1.854   2.133  20.081  0.00  0.00    +0.000 A 
ATOM     18  C   UNL     1       3.025   2.687  20.563  0.00  0.00    +0.000 A 
ATOM     19  C   UNL     1       3.566   3.810  19.949  0.00  0.00    +0.000 A 
ENDBRANCH   5  14
BRANCH   1  21
ATOM     20  N   UNL     1      -0.572  10.444  19.105  0.00  0.00    +0.000 N 
ATOM     21  C   UNL     1       0.805  10.509  19.121  0.00  0.00    +0.000 C 
ATOM     22  O   UNL     1       1.440  11.533  19.359  0.00  0.00    +0.000 OA
ATOM     23  H   UNL     1      -1.042   9.546  19.101  0.00  0.00    +0.000 HD
BRANCH  20  24
ATOM     24  C   UNL     1      -1.366  11.622  19.381  0.00  0.00    +0.000 C 
BRANCH  24  25
ATOM     25  C   UNL     1      -2.451  11.829  18.327  0.00  0.00    +0.000 C 
BRANCH  25  26
ATOM     26  C   UNL     1      -2.030  11.218  16.993  0.00  0.00    +0.000 C 
BRANCH  26  27
ATOM     27  C   UNL     1      -3.168  10.436  16.333  0.00  0.00    +0.000 C 
BRANCH  27  28
ATOM     28  C   UNL     1      -3.279  10.790  14.841  0.00  0.00    +0.000 C 
BRANCH  28  29
ATOM     29  C   UNL     1      -3.868   9.629  14.019  0.00  0.00    +0.000 C 
BRANCH  29  31
ATOM     30  O   UNL     1      -4.151   9.672  11.626  0.00  0.00    +0.000 OA
ATOM     31  C   UNL     1      -3.410   9.607  12.582  0.00  0.00    +0.000 C 
BRANCH  31  32
ATOM     32  O   UNL     1      -2.072   9.506  12.416  0.00  0.00    +0.000 OA
ATOM     33  H   UNL     1      -1.529   9.493  13.221  0.00  0.00    +0.000 HD
ENDBRANCH  31  32
ENDBRANCH  29  31
ENDBRANCH  28  29
ENDBRANCH  27  28
ENDBRANCH  26  27
ENDBRANCH  25  26
ENDBRANCH  24  25
ENDBRANCH  20  24
ENDBRANCH   1  21
TORSDOF 11
ENDMDL
MODEL 4
REMARK VINA RESULT:      -8.0      2.450      4.642
REMARK  Name = 
REMARK  11 active torsions:
REMARK  status: ('A' for Active; 'I' for Inactive)
REMARK    1  A    between atoms: C_2  and  O_3
REMARK    2  A    between atoms: C_2  and  C_4
REMARK    3  A    between atoms: C_4  and  C_5
REMARK    4  A    between atoms: C_5  and  C_6
REMARK    5  A    between atoms: C_6  and  C_7
REMARK    6  A    between atoms: C_7  and  C_8
REMARK    7  A    between atoms: C_8  and  C_9
REMARK    8  A    between atoms: C_9  and  N_10
REMARK    9  A    between atoms: C_11  and  C_13
REMARK   10  A    between atoms: N_17  and  C_18
REMARK   11  A    between atoms: N_17  and  C_24
REMARK                            x       y       z     vdW  Elec       q    Type
REMARK                         _______ _______ _______ _____ _____    ______ ____
ROOT
ATOM      1  C   UNL     1       1.533   9.597  18.836  0.00  0.00    +0.000 A 
ATOM      2  C   UNL     1       1.377   8.702  19.865  0.00  0.00    +0.000 A 
ATOM      3  N   UNL     1       1.885   7.445  19.849  0.00  0.00    +0.000 NA
ATOM      4  C   UNL     1       2.569   7.051  18.749  0.00  0.00    +0.000 A 
ATOM      5  N   UNL     1       3.145   5.722  18.709  0.00  0.00    +0.000 N 
ATOM      6  N   UNL     1       2.728   7.872  17.687  0.00  0.00    +0.000 NA
ATOM      7  C   UNL     1       2.207   9.118  17.744  0.00  0.00    +0.000 A 
ENDROOT
BRANCH   5   8
ATOM      8  C   UNL     1       2.537   4.657  19.462  0.00  0.00    +0.000 A 
ATOM      9  C   UNL     1       1.443   3.946  18.951  0.00  0.00    +0.000 A 
ATOM     10  C   UNL     1       0.802   2.973  19.705  0.00  0.00    +0.000 A 
ATOM     11  C   UNL     1       1.277   2.662  20.976  0.00  0.00    +0.000 A 
ATOM     12  C   UNL     1       2.398   3.308  21.483  0.00  0.00    +0.000 A 
ATOM     13  C   UNL     1       3.031   4.292  20.730  0.00  0.00    +0.000 A 
ENDBRANCH   5   8
BRANCH   5  14
ATOM     14  C   UNL     1       4.312   5.480  17.906  0.00  0.00    +0.000 A 
ATOM     15  C   UNL     1       5.563   5.996  18.269  0.00  0.00    +0.000 A 
ATOM     16  C   UNL     1       6.679   5.811  17.464  0.00  0.00    +0.000 A 
ATOM     17  C   UNL     1       6.562   5.068  16.288  0.00  0.00    +0.000 A 
ATOM     18  C   UNL     1       5.347   4.513  15.928  0.00  0.00    +0.000 A 
ATOM     19  C   UNL     1       4.229   4.711  16.729  0.00  0.00    +0.000 A 
ENDBRANCH   5  14
BRANCH   1  21
ATOM     20  N   UNL     1      -0.219  11.162  18.268  0.00  0.00    +0.000 N 
ATOM     21  C   UNL     1       1.010  10.963  18.861  0.00  0.00    +0.000 C 
ATOM     22  O   UNL     1       1.650  11.847  19.424  0.00  0.00    +0.000 OA
ATOM     23  H   UNL     1      -0.790  10.370  17.996  0.00  0.00    +0.000 HD
BRANCH  20  24
ATOM     24  C   UNL     1      -0.840  12.469  18.285  0.00  0.00    +0.000 C 
BRANCH  24  25
ATOM     25  C   UNL     1      -2.191  12.440  18.997  0.00  0.00    +0.000 C 
BRANCH  25  26
ATOM     26  C   UNL     1      -2.158  13.312  20.249  0.00  0.00    +0.000 C 
BRANCH  26  27
ATOM     27  C   UNL     1      -1.158  12.794  21.286  0.00  0.00    +0.000 C 
BRANCH  27  28
ATOM     28  C   UNL     1      -1.467  11.335  21.659  0.00  0.00    +0.000 C 
BRANCH  28  29
ATOM     29  C   UNL     1      -1.020  11.004  23.095  0.00  0.00    +0.000 C 
BRANCH  29  31
ATOM     30  O   UNL     1       0.833   9.585  23.695  0.00  0.00    +0.000 OA
ATOM     31  C   UNL     1      -0.273   9.699  23.214  0.00  0.00    +0.000 C 
BRANCH  31  32
ATOM     32  O   UNL     1      -0.934   8.623  22.733  0.00  0.00    +0.000 OA
ATOM     33  H   UNL     1      -1.813   8.445  23.104  0.00  0.00    +0.000 HD
ENDBRANCH  31  32
ENDBRANCH  29  31
ENDBRANCH  28  29
ENDBRANCH  27  28
ENDBRANCH  26  27
ENDBRANCH  25  26
ENDBRANCH  24  25
ENDBRANCH  20  24
ENDBRANCH   1  21
TORSDOF 11
ENDMDL
MODEL 5
REMARK VINA RESULT:      -7.9      0.441      3.496
REMARK  Name = 
REMARK  11 active torsions:
REMARK  status: ('A' for Active; 'I' for Inactive)
REMARK    1  A    between atoms: C_2  and  O_3
REMARK    2  A    between atoms: C_2  and  C_4
REMARK    3  A    between atoms: C_4  and  C_5
REMARK    4  A    between atoms: C_5  and  C_6
REMARK    5  A    between atoms: C_6  and  C_7
REMARK    6  A    between atoms: C_7  and  C_8
REMARK    7  A    between atoms: C_8  and  C_9
REMARK    8  A    between atoms: C_9  and  N_10
REMARK    9  A    between atoms: C_11  and  C_13
REMARK   10  A    between atoms: N_17  and  C_18
REMARK   11  A    between atoms: N_17  and  C_24
REMARK                            x       y       z     vdW  Elec       q    Type
REMARK                         _______ _______ _______ _____ _____    ______ ____
ROOT
ATOM      1  C   UNL     1       1.655   9.391  18.676  0.00  0.00    +0.000 A 
ATOM      2  C   UNL     1       1.454   8.535  19.728  0.00  0.00    +0.000 A 
ATOM      3  N   UNL     1       1.983   7.288  19.792  0.00  0.00    +0.000 NA
ATOM      4  C   UNL     1       2.738   6.865  18.751  0.00  0.00    +0.000 A 
ATOM      5  N   UNL     1       3.337   5.546  18.798  0.00  0.00    +0.000 N 
ATOM      6  N   UNL     1       2.947   7.647  17.668  0.00  0.00    +0.000 NA
ATOM      7  C   UNL     1       2.402   8.884  17.645  0.00  0.00    +0.000 A 
ENDROOT
BRANCH   5   8
ATOM      8  C   UNL     1       2.704   4.499  19.555  0.00  0.00    +0.000 A 
ATOM      9  C   UNL     1       1.564   3.847  19.068  0.00  0.00    +0.000 A 
ATOM     10  C   UNL     1       0.902   2.894  19.829  0.00  0.00    +0.000 A 
ATOM     11  C   UNL     1       1.399   2.543  21.080  0.00  0.00    +0.000 A 
ATOM     12  C   UNL     1       2.564   3.130  21.561  0.00  0.00    +0.000 A 
ATOM     13  C   UNL     1       3.219   4.095  20.801  0.00  0.00    +0.000 A 
ENDBRANCH   5   8
BRANCH   5  14
ATOM     14  C   UNL     1       4.554   5.296  18.075  0.00  0.00    +0.000 A 
ATOM     15  C   UNL     1       4.536   4.711  16.801  0.00  0.00    +0.000 A 
ATOM     16  C   UNL     1       5.713   4.416  16.128  0.00  0.00    +0.000 A 
ATOM     17  C   UNL     1       6.938   4.740  16.713  0.00  0.00    +0.000 A 
ATOM     18  C   UNL     1       6.984   5.355  17.951  0.00  0.00    +0.000 A 
ATOM     19  C   UNL     1       5.804   5.636  18.629  0.00  0.00    +0.000 A 
ENDBRANCH   5  14
BRANCH   1  21
ATOM     20  N   UNL     1      -0.265  10.859  18.638  0.00  0.00    +0.000 N 
ATOM     21  C   UNL     1       1.109  10.748  18.616  0.00  0.00    +0.000 C 
ATOM     22  O   UNL     1       1.873  11.709  18.585  0.00  0.00    +0.000 OA
ATOM     23  H   UNL     1      -0.840  10.054  18.862  0.00  0.00    +0.000 HD
BRANCH  20  24
ATOM     24  C   UNL     1      -0.897  12.160  18.631  0.00  0.00    +0.000 C 
BRANCH  24  25
ATOM     25  C   UNL     1      -2.348  12.083  19.100  0.00  0.00    +0.000 C 
BRANCH  25  26
ATOM     26  C   UNL     1      -3.192  11.285  18.110  0.00  0.00    +0.000 C 
BRANCH  26  27
ATOM     27  C   UNL     1      -4.560  11.929  17.868  0.00  0.00    +0.000 C 
BRANCH  27  28
ATOM     28  C   UNL     1      -5.501  11.672  19.055  0.00  0.00    +0.000 C 
BRANCH  28  29
ATOM     29  C   UNL     1      -6.685  10.770  18.663  0.00  0.00    +0.000 C 
BRANCH  29  31
ATOM     30  O   UNL     1      -7.278  10.221  20.934  0.00  0.00    +0.000 OA
ATOM     31  C   UNL     1      -7.162   9.874  19.780  0.00  0.00    +0.000 C 
BRANCH  31  32
ATOM     32  O   UNL     1      -7.462   8.611  19.402  0.00  0.00    +0.000 OA
ATOM     33  H   UNL     1      -7.175   7.895  19.992  0.00  0.00    +0.000 HD
ENDBRANCH  31  32
ENDBRANCH  29  31
ENDBRANCH  28  29
ENDBRANCH  27  28
ENDBRANCH  26  27
ENDBRANCH  25  26
ENDBRANCH  24  25
ENDBRANCH  20  24
ENDBRANCH   1  21
TORSDOF 11
ENDMDL
MODEL 6
REMARK VINA RESULT:      -7.8      2.195      2.827
REMARK  Name = 
REMARK  11 active torsions:
REMARK  status: ('A' for Active; 'I' for Inactive)
REMARK    1  A    between atoms: C_2  and  O_3
REMARK    2  A    between atoms: C_2  and  C_4
REMARK    3  A    between atoms: C_4  and  C_5
REMARK    4  A    between atoms: C_5  and  C_6
REMARK    5  A    between atoms: C_6  and  C_7
REMARK    6  A    between atoms: C_7  and  C_8
REMARK    7  A    between atoms: C_8  and  C_9
REMARK    8  A    between atoms: C_9  and  N_10
REMARK    9  A    between atoms: C_11  and  C_13
REMARK   10  A    between atoms: N_17  and  C_18
REMARK   11  A    between atoms: N_17  and  C_24
REMARK                            x       y       z     vdW  Elec       q    Type
REMARK                         _______ _______ _______ _____ _____    ______ ____
ROOT
ATOM      1  C   UNL     1       1.661   9.037  19.127  0.00  0.00    +0.000 A 
ATOM      2  C   UNL     1       2.399   8.884  17.981  0.00  0.00    +0.000 A 
ATOM      3  N   UNL     1       3.031   7.733  17.644  0.00  0.00    +0.000 NA
ATOM      4  C   UNL     1       2.939   6.685  18.496  0.00  0.00    +0.000 A 
ATOM      5  N   UNL     1       3.583   5.433  18.156  0.00  0.00    +0.000 N 
ATOM      6  N   UNL     1       2.255   6.781  19.659  0.00  0.00    +0.000 NA
ATOM      7  C   UNL     1       1.638   7.947  19.956  0.00  0.00    +0.000 A 
ENDROOT
BRANCH   5   8
ATOM      8  C   UNL     1       4.755   5.436  17.321  0.00  0.00    +0.000 A 
ATOM      9  C   UNL     1       4.758   4.785  16.080  0.00  0.00    +0.000 A 
ATOM     10  C   UNL     1       5.909   4.716  15.308  0.00  0.00    +0.000 A 
ATOM     11  C   UNL     1       7.073   5.340  15.748  0.00  0.00    +0.000 A 
ATOM     12  C   UNL     1       7.081   6.046  16.945  0.00  0.00    +0.000 A 
ATOM     13  C   UNL     1       5.929   6.102  17.724  0.00  0.00    +0.000 A 
ENDBRANCH   5   8
BRANCH   5  14
ATOM     14  C   UNL     1       3.050   4.200  18.667  0.00  0.00    +0.000 A 
ATOM     15  C   UNL     1       1.839   3.679  18.190  0.00  0.00    +0.000 A 
ATOM     16  C   UNL     1       1.294   2.520  18.724  0.00  0.00    +0.000 A 
ATOM     17  C   UNL     1       1.982   1.838  19.730  0.00  0.00    +0.000 A 
ATOM     18  C   UNL     1       3.198   2.308  20.190  0.00  0.00    +0.000 A 
ATOM     19  C   UNL     1       3.734   3.477  19.664  0.00  0.00    +0.000 A 
ENDBRANCH   5  14
BRANCH   1  21
ATOM     20  N   UNL     1       0.539  11.063  18.432  0.00  0.00    +0.000 N 
ATOM     21  C   UNL     1       0.954  10.269  19.480  0.00  0.00    +0.000 C 
ATOM     22  O   UNL     1       0.733  10.523  20.662  0.00  0.00    +0.000 OA
ATOM     23  H   UNL     1       0.572  10.712  17.482  0.00  0.00    +0.000 HD
BRANCH  20  24
ATOM     24  C   UNL     1      -0.210  12.275  18.681  0.00  0.00    +0.000 C 
BRANCH  24  25
ATOM     25  C   UNL     1      -1.526  12.292  17.908  0.00  0.00    +0.000 C 
BRANCH  25  26
ATOM     26  C   UNL     1      -2.234  10.944  18.021  0.00  0.00    +0.000 C 
BRANCH  26  27
ATOM     27  C   UNL     1      -3.749  11.071  17.841  0.00  0.00    +0.000 C 
BRANCH  27  28
ATOM     28  C   UNL     1      -4.125  11.059  16.351  0.00  0.00    +0.000 C 
BRANCH  28  29
ATOM     29  C   UNL     1      -2.912  10.740  15.457  0.00  0.00    +0.000 C 
BRANCH  29  31
ATOM     30  O   UNL     1      -2.476   9.746  13.305  0.00  0.00    +0.000 OA
ATOM     31  C   UNL     1      -3.275  10.060  14.160  0.00  0.00    +0.000 C 
BRANCH  31  32
ATOM     32  O   UNL     1      -4.595   9.814  14.000  0.00  0.00    +0.000 OA
ATOM     33  H   UNL     1      -5.007  10.138  13.182  0.00  0.00    +0.000 HD
ENDBRANCH  31  32
ENDBRANCH  29  31
ENDBRANCH  28  29
ENDBRANCH  27  28
ENDBRANCH  26  27
ENDBRANCH  25  26
ENDBRANCH  24  25
ENDBRANCH  20  24
ENDBRANCH   1  21
TORSDOF 11
ENDMDL
MODEL 7
REMARK VINA RESULT:      -7.8      2.481      4.595
REMARK  Name = 
REMARK  11 active torsions:
REMARK  status: ('A' for Active; 'I' for Inactive)
REMARK    1  A    between atoms: C_2  and  O_3
REMARK    2  A    between atoms: C_2  and  C_4
REMARK    3  A    between atoms: C_4  and  C_5
REMARK    4  A    between atoms: C_5  and  C_6
REMARK    5  A    between atoms: C_6  and  C_7
REMARK    6  A    between atoms: C_7  and  C_8
REMARK    7  A    between atoms: C_8  and  C_9
REMARK    8  A    between atoms: C_9  and  N_10
REMARK    9  A    between atoms: C_11  and  C_13
REMARK   10  A    between atoms: N_17  and  C_18
REMARK   11  A    between atoms: N_17  and  C_24
REMARK                            x       y       z     vdW  Elec       q    Type
REMARK                         _______ _______ _______ _____ _____    ______ ____
ROOT
ATOM      1  C   UNL     1       1.345   9.253  18.963  0.00  0.00    +0.000 A 
ATOM      2  C   UNL     1       1.433   8.407  20.040  0.00  0.00    +0.000 A 
ATOM      3  N   UNL     1       2.087   7.221  20.011  0.00  0.00    +0.000 NA
ATOM      4  C   UNL     1       2.671   6.847  18.848  0.00  0.00    +0.000 A 
ATOM      5  N   UNL     1       3.399   5.595  18.788  0.00  0.00    +0.000 N 
ATOM      6  N   UNL     1       2.592   7.618  17.740  0.00  0.00    +0.000 NA
ATOM      7  C   UNL     1       1.930   8.794  17.813  0.00  0.00    +0.000 A 
ENDROOT
BRANCH   5   8
ATOM      8  C   UNL     1       3.029   4.511  19.659  0.00  0.00    +0.000 A 
ATOM      9  C   UNL     1       3.966   3.543  20.043  0.00  0.00    +0.000 A 
ATOM     10  C   UNL     1       3.596   2.452  20.816  0.00  0.00    +0.000 A 
ATOM     11  C   UNL     1       2.282   2.333  21.258  0.00  0.00    +0.000 A 
ATOM     12  C   UNL     1       1.346   3.312  20.943  0.00  0.00    +0.000 A 
ATOM     13  C   UNL     1       1.717   4.398  20.157  0.00  0.00    +0.000 A 
ENDBRANCH   5   8
BRANCH   5  14
ATOM     14  C   UNL     1       4.477   5.447  17.849  0.00  0.00    +0.000 A 
ATOM     15  C   UNL     1       4.345   4.633  16.715  0.00  0.00    +0.000 A 
ATOM     16  C   UNL     1       5.405   4.443  15.839  0.00  0.00    +0.000 A 
ATOM     17  C   UNL     1       6.614   5.103  16.070  0.00  0.00    +0.000 A 
ATOM     18  C   UNL     1       6.757   5.944  17.159  0.00  0.00    +0.000 A 
ATOM     19  C   UNL     1       5.699   6.120  18.042  0.00  0.00    +0.000 A 
ENDBRANCH   5  14
BRANCH   1  21
ATOM     20  N   UNL     1      -0.715  10.515  19.057  0.00  0.00    +0.000 N 
ATOM     21  C   UNL     1       0.662  10.547  18.999  0.00  0.00    +0.000 C 
ATOM     22  O   UNL     1       1.325  11.581  19.013  0.00  0.00    +0.000 OA
ATOM     23  H   UNL     1      -1.199   9.643  19.242  0.00  0.00    +0.000 HD
BRANCH  20  24
ATOM     24  C   UNL     1      -1.475  11.743  19.144  0.00  0.00    +0.000 C 
BRANCH  24  25
ATOM     25  C   UNL     1      -2.528  11.832  18.042  0.00  0.00    +0.000 C 
BRANCH  25  26
ATOM     26  C   UNL     1      -2.071  11.073  16.798  0.00  0.00    +0.000 C 
BRANCH  26  27
ATOM     27  C   UNL     1      -3.142  10.106  16.288  0.00  0.00    +0.000 C 
BRANCH  27  28
ATOM     28  C   UNL     1      -3.742  10.605  14.963  0.00  0.00    +0.000 C 
BRANCH  28  29
ATOM     29  C   UNL     1      -3.104   9.907  13.748  0.00  0.00    +0.000 C 
BRANCH  29  31
ATOM     30  O   UNL     1      -5.242   9.459  12.730  0.00  0.00    +0.000 OA
ATOM     31  C   UNL     1      -4.061   9.691  12.601  0.00  0.00    +0.000 C 
BRANCH  31  32
ATOM     32  O   UNL     1      -3.500   9.771  11.374  0.00  0.00    +0.000 OA
ATOM     33  H   UNL     1      -4.105   9.835  10.617  0.00  0.00    +0.000 HD
ENDBRANCH  31  32
ENDBRANCH  29  31
ENDBRANCH  28  29
ENDBRANCH  27  28
ENDBRANCH  26  27
ENDBRANCH  25  26
ENDBRANCH  24  25
ENDBRANCH  20  24
ENDBRANCH   1  21
TORSDOF 11
ENDMDL
MODEL 8
REMARK VINA RESULT:      -7.7      0.942      1.349
REMARK  Name = 
REMARK  11 active torsions:
REMARK  status: ('A' for Active; 'I' for Inactive)
REMARK    1  A    between atoms: C_2  and  O_3
REMARK    2  A    between atoms: C_2  and  C_4
REMARK    3  A    between atoms: C_4  and  C_5
REMARK    4  A    between atoms: C_5  and  C_6
REMARK    5  A    between atoms: C_6  and  C_7
REMARK    6  A    between atoms: C_7  and  C_8
REMARK    7  A    between atoms: C_8  and  C_9
REMARK    8  A    between atoms: C_9  and  N_10
REMARK    9  A    between atoms: C_11  and  C_13
REMARK   10  A    between atoms: N_17  and  C_18
REMARK   11  A    between atoms: N_17  and  C_24
REMARK                            x       y       z     vdW  Elec       q    Type
REMARK                         _______ _______ _______ _____ _____    ______ ____
ROOT
ATOM      1  C   UNL     1       1.574   9.329  18.960  0.00  0.00    +0.000 A 
ATOM      2  C   UNL     1       2.334   9.089  17.844  0.00  0.00    +0.000 A 
ATOM      3  N   UNL     1       2.940   7.904  17.589  0.00  0.00    +0.000 NA
ATOM      4  C   UNL     1       2.797   6.910  18.497  0.00  0.00    +0.000 A 
ATOM      5  N   UNL     1       3.412   5.622  18.245  0.00  0.00    +0.000 N 
ATOM      6  N   UNL     1       2.089   7.092  19.635  0.00  0.00    +0.000 NA
ATOM      7  C   UNL     1       1.500   8.290  19.850  0.00  0.00    +0.000 A 
ENDROOT
BRANCH   5   8
ATOM      8  C   UNL     1       4.603   5.545  17.441  0.00  0.00    +0.000 A 
ATOM      9  C   UNL     1       4.618   4.816  16.245  0.00  0.00    +0.000 A 
ATOM     10  C   UNL     1       5.785   4.670  15.507  0.00  0.00    +0.000 A 
ATOM     11  C   UNL     1       6.954   5.293  15.935  0.00  0.00    +0.000 A 
ATOM     12  C   UNL     1       6.951   6.074  17.085  0.00  0.00    +0.000 A 
ATOM     13  C   UNL     1       5.783   6.207  17.830  0.00  0.00    +0.000 A 
ENDBRANCH   5   8
BRANCH   5  14
ATOM     14  C   UNL     1       2.830   4.436  18.812  0.00  0.00    +0.000 A 
ATOM     15  C   UNL     1       1.650   3.886  18.292  0.00  0.00    +0.000 A 
ATOM     16  C   UNL     1       1.057   2.775  18.875  0.00  0.00    +0.000 A 
ATOM     17  C   UNL     1       1.664   2.172  19.978  0.00  0.00    +0.000 A 
ATOM     18  C   UNL     1       2.850   2.670  20.486  0.00  0.00    +0.000 A 
ATOM     19  C   UNL     1       3.435   3.791  19.908  0.00  0.00    +0.000 A 
ENDBRANCH   5  14
BRANCH   1  21
ATOM     20  N   UNL     1       0.007  11.034  18.266  0.00  0.00    +0.000 N 
ATOM     21  C   UNL     1       0.896  10.599  19.226  0.00  0.00    +0.000 C 
ATOM     22  O   UNL     1       1.111  11.192  20.279  0.00  0.00    +0.000 OA
ATOM     23  H   UNL     1      -0.279  10.414  17.516  0.00  0.00    +0.000 HD
BRANCH  20  24
ATOM     24  C   UNL     1      -0.747  12.252  18.461  0.00  0.00    +0.000 C 
BRANCH  24  25
ATOM     25  C   UNL     1      -2.251  12.003  18.375  0.00  0.00    +0.000 C 
BRANCH  25  26
ATOM     26  C   UNL     1      -2.536  10.542  18.037  0.00  0.00    +0.000 C 
BRANCH  26  27
ATOM     27  C   UNL     1      -3.957  10.341  17.505  0.00  0.00    +0.000 C 
BRANCH  27  28
ATOM     28  C   UNL     1      -4.940  11.299  18.196  0.00  0.00    +0.000 C 
BRANCH  28  29
ATOM     29  C   UNL     1      -6.221  10.576  18.652  0.00  0.00    +0.000 C 
BRANCH  29  31
ATOM     30  O   UNL     1      -7.723  12.316  19.375  0.00  0.00    +0.000 OA
ATOM     31  C   UNL     1      -7.037  11.358  19.652  0.00  0.00    +0.000 C 
BRANCH  31  32
ATOM     32  O   UNL     1      -6.952  10.909  20.924  0.00  0.00    +0.000 OA
ATOM     33  H   UNL     1      -6.616  10.007  21.051  0.00  0.00    +0.000 HD
ENDBRANCH  31  32
ENDBRANCH  29  31
ENDBRANCH  28  29
ENDBRANCH  27  28
ENDBRANCH  26  27
ENDBRANCH  25  26
ENDBRANCH  24  25
ENDBRANCH  20  24
ENDBRANCH   1  21
TORSDOF 11
ENDMDL
MODEL 9
REMARK VINA RESULT:      -7.7      2.474      3.213
REMARK  Name = 
REMARK  11 active torsions:
REMARK  status: ('A' for Active; 'I' for Inactive)
REMARK    1  A    between atoms: C_2  and  O_3
REMARK    2  A    between atoms: C_2  and  C_4
REMARK    3  A    between atoms: C_4  and  C_5
REMARK    4  A    between atoms: C_5  and  C_6
REMARK    5  A    between atoms: C_6  and  C_7
REMARK    6  A    between atoms: C_7  and  C_8
REMARK    7  A    between atoms: C_8  and  C_9
REMARK    8  A    between atoms: C_9  and  N_10
REMARK    9  A    between atoms: C_11  and  C_13
REMARK   10  A    between atoms: N_17  and  C_18
REMARK   11  A    between atoms: N_17  and  C_24
REMARK                            x       y       z     vdW  Elec       q    Type
REMARK                         _______ _______ _______ _____ _____    ______ ____
ROOT
ATOM      1  C   UNL     1       1.528   9.418  18.785  0.00  0.00    +0.000 A 
ATOM      2  C   UNL     1       2.265   8.992  17.710  0.00  0.00    +0.000 A 
ATOM      3  N   UNL     1       2.835   7.764  17.630  0.00  0.00    +0.000 NA
ATOM      4  C   UNL     1       2.678   6.922  18.679  0.00  0.00    +0.000 A 
ATOM      5  N   UNL     1       3.254   5.594  18.616  0.00  0.00    +0.000 N 
ATOM      6  N   UNL     1       1.992   7.293  19.783  0.00  0.00    +0.000 NA
ATOM      7  C   UNL     1       1.439   8.526  19.822  0.00  0.00    +0.000 A 
ENDROOT
BRANCH   5   8
ATOM      8  C   UNL     1       4.430   5.362  17.821  0.00  0.00    +0.000 A 
ATOM      9  C   UNL     1       4.391   4.514  16.706  0.00  0.00    +0.000 A 
ATOM     10  C   UNL     1       5.539   4.223  15.984  0.00  0.00    +0.000 A 
ATOM     11  C   UNL     1       6.747   4.815  16.341  0.00  0.00    +0.000 A 
ATOM     12  C   UNL     1       6.803   5.709  17.405  0.00  0.00    +0.000 A 
ATOM     13  C   UNL     1       5.652   5.988  18.135  0.00  0.00    +0.000 A 
ENDBRANCH   5   8
BRANCH   5  14
ATOM     14  C   UNL     1       2.649   4.524  19.361  0.00  0.00    +0.000 A 
ATOM     15  C   UNL     1       1.437   3.950  18.954  0.00  0.00    +0.000 A 
ATOM     16  C   UNL     1       0.823   2.957  19.704  0.00  0.00    +0.000 A 
ATOM     17  C   UNL     1       1.441   2.495  20.868  0.00  0.00    +0.000 A 
ATOM     18  C   UNL     1       2.658   3.015  21.271  0.00  0.00    +0.000 A 
ATOM     19  C   UNL     1       3.263   4.020  20.525  0.00  0.00    +0.000 A 
ENDBRANCH   5  14
BRANCH   1  21
ATOM     20  N   UNL     1      -0.329  10.862  18.232  0.00  0.00    +0.000 N 
ATOM     21  C   UNL     1       0.889  10.732  18.864  0.00  0.00    +0.000 C 
ATOM     22  O   UNL     1       1.429  11.632  19.502  0.00  0.00    +0.000 OA
ATOM     23  H   UNL     1      -0.819  10.042  17.892  0.00  0.00    +0.000 HD
BRANCH  20  24
ATOM     24  C   UNL     1      -1.060  12.108  18.296  0.00  0.00    +0.000 C 
BRANCH  24  25
ATOM     25  C   UNL     1      -2.058  12.117  19.452  0.00  0.00    +0.000 C 
BRANCH  25  26
ATOM     26  C   UNL     1      -1.976  13.430  20.225  0.00  0.00    +0.000 C 
BRANCH  26  27
ATOM     27  C   UNL     1      -2.886  13.433  21.456  0.00  0.00    +0.000 C 
BRANCH  27  28
ATOM     28  C   UNL     1      -2.577  12.232  22.365  0.00  0.00    +0.000 C 
BRANCH  28  29
ATOM     29  C   UNL     1      -1.088  12.177  22.754  0.00  0.00    +0.000 C 
BRANCH  29  31
ATOM     30  O   UNL     1      -1.080   9.800  23.151  0.00  0.00    +0.000 OA
ATOM     31  C   UNL     1      -0.507  10.784  22.739  0.00  0.00    +0.000 C 
BRANCH  31  32
ATOM     32  O   UNL     1       0.738  10.697  22.221  0.00  0.00    +0.000 OA
ATOM     33  H   UNL     1       1.266  11.511  22.205  0.00  0.00    +0.000 HD
ENDBRANCH  31  32
ENDBRANCH  29  31
ENDBRANCH  28  29
ENDBRANCH  27  28
ENDBRANCH  26  27
ENDBRANCH  25  26
ENDBRANCH  24  25
ENDBRANCH  20  24
ENDBRANCH   1  21
TORSDOF 11
ENDMDL
