MODEL 1
REMARK VINA RESULT:      -7.8      0.000      0.000
REMARK  Name = 
REMARK  11 active torsions:
REMARK  status: ('A' for Active; 'I' for Inactive)
REMARK    1  A    between atoms: C_1  and  C_2
REMARK    2  A    between atoms: C_2  and  C_3
REMARK    3  A    between atoms: C_2  and  C_4
REMARK    4  A    between atoms: C_2  and  C_5
REMARK    5  A    between atoms: C_7  and  C_8
REMARK    6  A    between atoms: C_16  and  C_17
REMARK    7  A    between atoms: N_24  and  S_25
REMARK    8  A    between atoms: S_25  and  C_28
REMARK    9  A    between atoms: C_28  and  C_29
REMARK   10  A    between atoms: C_28  and  C_30
REMARK   11  A    between atoms: C_28  and  C_31
REMARK                            x       y       z     vdW  Elec       q    Type
REMARK                         _______ _______ _______ _____ _____    ______ ____
ROOT
ATOM      1  C   UNL     1      -1.745  12.123  18.585  0.00  0.00    +0.000 A 
ATOM      2  C   UNL     1      -2.058  11.384  17.438  0.00  0.00    +0.000 A 
ATOM      3  C   UNL     1      -3.363  10.940  17.199  0.00  0.00    +0.000 A 
ATOM      4  C   UNL     1      -4.359  11.224  18.138  0.00  0.00    +0.000 A 
ATOM      5  N   UNL     1      -5.688  10.909  18.097  0.00  0.00    +0.000 NA
ATOM      6  C   UNL     1      -6.210  11.393  19.199  0.00  0.00    +0.000 A 
ATOM      7  N   UNL     1      -7.529  11.332  19.450  0.00  0.00    +0.000 N 
ATOM      8  N   UNL     1      -5.227  11.956  19.989  0.00  0.00    +0.000 N 
ATOM      9  C   UNL     1      -4.041  11.932  19.290  0.00  0.00    +0.000 A 
ATOM     10  C   UNL     1      -2.749  12.417  19.524  0.00  0.00    +0.000 A 
ATOM     11  H   UNL     1      -8.040  10.694  18.840  0.00  0.00    +0.000 HD
ATOM     12  H   UNL     1      -7.907  11.366  20.397  0.00  0.00    +0.000 HD
ENDROOT
BRANCH   1  16
ATOM     13  C   UNL     1       1.298  14.059  18.982  0.00  0.00    +0.000 A 
ATOM     14  N   UNL     1       1.771  12.927  19.454  0.00  0.00    +0.000 NA
ATOM     15  C   UNL     1       0.759  12.003  19.360  0.00  0.00    +0.000 A 
ATOM     16  C   UNL     1      -0.381  12.590  18.820  0.00  0.00    +0.000 A 
ATOM     17  N   UNL     1       0.012  13.882  18.544  0.00  0.00    +0.000 N 
ATOM     18  H   UNL     1      -0.570  14.597  18.131  0.00  0.00    +0.000 HD
BRANCH  15  19
ATOM     19  C   UNL     1       0.937  10.621  19.782  0.00  0.00    +0.000 A 
ATOM     20  C   UNL     1       0.620  10.216  21.088  0.00  0.00    +0.000 A 
ATOM     21  C   UNL     1       0.850   8.902  21.503  0.00  0.00    +0.000 A 
ATOM     22  C   UNL     1       1.347   7.973  20.603  0.00  0.00    +0.000 A 
ATOM     23  F   UNL     1       1.551   6.707  21.004  0.00  0.00    +0.000 F 
ATOM     24  C   UNL     1       1.643   8.332  19.299  0.00  0.00    +0.000 A 
ATOM     25  C   UNL     1       1.444   9.658  18.898  0.00  0.00    +0.000 A 
ATOM     26  F   UNL     1       1.784   9.982  17.639  0.00  0.00    +0.000 F 
ENDBRANCH  15  19
BRANCH  13  28
ATOM     27  C   UNL     1       1.041  16.483  18.507  0.00  0.00    +0.000 C 
ATOM     28  C   UNL     1       2.037  15.375  18.901  0.00  0.00    +0.000 C 
ATOM     29  C   UNL     1       3.152  15.318  17.842  0.00  0.00    +0.000 C 
ATOM     30  C   UNL     1       2.655  15.718  20.266  0.00  0.00    +0.000 C 
ENDBRANCH  13  28
ENDBRANCH   1  16
BRANCH   8  31
ATOM     31  S   UNL     1      -5.429  12.655  21.516  0.00  0.00    +0.000 S 
ATOM     32  O   UNL     1      -6.696  12.112  21.999  0.00  0.00    +0.000 OA
ATOM     33  O   UNL     1      -4.212  12.349  22.241  0.00  0.00    +0.000 OA
BRANCH  31  34
ATOM     34  C   UNL     1      -5.586  14.462  21.392  0.00  0.00    +0.000 C 
ATOM     35  C   UNL     1      -6.666  14.941  22.373  0.00  0.00    +0.000 C 
ATOM     36  C   UNL     1      -4.208  15.084  21.712  0.00  0.00    +0.000 C 
ATOM     37  C   UNL     1      -5.972  14.923  19.981  0.00  0.00    +0.000 C 
ENDBRANCH  31  34
ENDBRANCH   8  31
TORSDOF 5
ENDMDL
MODEL 2
REMARK VINA RESULT:      -7.7      0.083      1.031
REMARK  Name = 
REMARK  11 active torsions:
REMARK  status: ('A' for Active; 'I' for Inactive)
REMARK    1  A    between atoms: C_1  and  C_2
REMARK    2  A    between atoms: C_2  and  C_3
REMARK    3  A    between atoms: C_2  and  C_4
REMARK    4  A    between atoms: C_2  and  C_5
REMARK    5  A    between atoms: C_7  and  C_8
REMARK    6  A    between atoms: C_16  and  C_17
REMARK    7  A    between atoms: N_24  and  S_25
REMARK    8  A    between atoms: S_25  and  C_28
REMARK    9  A    between atoms: C_28  and  C_29
REMARK   10  A    between atoms: C_28  and  C_30
REMARK   11  A    between atoms: C_28  and  C_31
REMARK                            x       y       z     vdW  Elec       q    Type
REMARK                         _______ _______ _______ _____ _____    ______ ____
ROOT
ATOM      1  C   UNL     1      -1.729  12.137  18.566  0.00  0.00    +0.000 A 
ATOM      2  C   UNL     1      -2.035  11.395  17.419  0.00  0.00    +0.000 A 
ATOM      3  C   UNL     1      -3.338  10.946  17.176  0.00  0.00    +0.000 A 
ATOM      4  C   UNL     1      -4.338  11.229  18.111  0.00  0.00    +0.000 A 
ATOM      5  N   UNL     1      -5.665  10.909  18.066  0.00  0.00    +0.000 NA
ATOM      6  C   UNL     1      -6.193  11.393  19.166  0.00  0.00    +0.000 A 
ATOM      7  N   UNL     1      -7.512  11.328  19.413  0.00  0.00    +0.000 N 
ATOM      8  N   UNL     1      -5.214  11.961  19.958  0.00  0.00    +0.000 N 
ATOM      9  C   UNL     1      -4.026  11.940  19.263  0.00  0.00    +0.000 A 
ATOM     10  C   UNL     1      -2.737  12.430  19.500  0.00  0.00    +0.000 A 
ATOM     11  H   UNL     1      -8.020  10.687  18.802  0.00  0.00    +0.000 HD
ATOM     12  H   UNL     1      -7.893  11.363  20.358  0.00  0.00    +0.000 HD
ENDROOT
BRANCH   1  16
ATOM     13  C   UNL     1       1.307  14.085  18.967  0.00  0.00    +0.000 A 
ATOM     14  N   UNL     1       1.782  12.955  19.445  0.00  0.00    +0.000 NA
ATOM     15  C   UNL     1       0.773  12.028  19.350  0.00  0.00    +0.000 A 
ATOM     16  C   UNL     1      -0.367  12.609  18.804  0.00  0.00    +0.000 A 
ATOM     17  N   UNL     1       0.023  13.901  18.525  0.00  0.00    +0.000 N 
ATOM     18  H   UNL     1      -0.559  14.613  18.107  0.00  0.00    +0.000 HD
BRANCH  15  19
ATOM     19  C   UNL     1       0.954  10.648  19.778  0.00  0.00    +0.000 A 
ATOM     20  C   UNL     1       0.664  10.254  21.094  0.00  0.00    +0.000 A 
ATOM     21  C   UNL     1       0.896   8.942  21.512  0.00  0.00    +0.000 A 
ATOM     22  C   UNL     1       1.369   8.004  20.608  0.00  0.00    +0.000 A 
ATOM     23  F   UNL     1       1.575   6.739  21.013  0.00  0.00    +0.000 F 
ATOM     24  C   UNL     1       1.638   8.352  19.295  0.00  0.00    +0.000 A 
ATOM     25  C   UNL     1       1.436   9.677  18.889  0.00  0.00    +0.000 A 
ATOM     26  F   UNL     1       1.750   9.990  17.621  0.00  0.00    +0.000 F 
ENDBRANCH  15  19
BRANCH  13  28
ATOM     27  C   UNL     1       2.692  15.698  20.250  0.00  0.00    +0.000 C 
ATOM     28  C   UNL     1       2.042  15.402  18.884  0.00  0.00    +0.000 C 
ATOM     29  C   UNL     1       1.078  16.551  18.541  0.00  0.00    +0.000 C 
ATOM     30  C   UNL     1       3.141  15.327  17.812  0.00  0.00    +0.000 C 
ENDBRANCH  13  28
ENDBRANCH   1  16
BRANCH   8  31
ATOM     31  S   UNL     1      -5.423  12.662  21.483  0.00  0.00    +0.000 S 
ATOM     32  O   UNL     1      -6.693  12.119  21.962  0.00  0.00    +0.000 OA
ATOM     33  O   UNL     1      -4.209  12.358  22.214  0.00  0.00    +0.000 OA
BRANCH  31  34
ATOM     34  C   UNL     1      -5.582  14.469  21.356  0.00  0.00    +0.000 C 
ATOM     35  C   UNL     1      -6.196  14.824  19.994  0.00  0.00    +0.000 C 
ATOM     36  C   UNL     1      -6.467  14.954  22.525  0.00  0.00    +0.000 C 
ATOM     37  C   UNL     1      -4.233  15.188  21.482  0.00  0.00    +0.000 C 
ENDBRANCH  31  34
ENDBRANCH   8  31
TORSDOF 5
ENDMDL
MODEL 3
REMARK VINA RESULT:      -7.7      0.904      1.416
REMARK  Name = 
REMARK  11 active torsions:
REMARK  status: ('A' for Active; 'I' for Inactive)
REMARK    1  A    between atoms: C_1  and  C_2
REMARK    2  A    between atoms: C_2  and  C_3
REMARK    3  A    between atoms: C_2  and  C_4
REMARK    4  A    between atoms: C_2  and  C_5
REMARK    5  A    between atoms: C_7  and  C_8
REMARK    6  A    between atoms: C_16  and  C_17
REMARK    7  A    between atoms: N_24  and  S_25
REMARK    8  A    between atoms: S_25  and  C_28
REMARK    9  A    between atoms: C_28  and  C_29
REMARK   10  A    between atoms: C_28  and  C_30
REMARK   11  A    between atoms: C_28  and  C_31
REMARK                            x       y       z     vdW  Elec       q    Type
REMARK                         _______ _______ _______ _____ _____    ______ ____
ROOT
ATOM      1  C   UNL     1      -1.911  12.226  18.474  0.00  0.00    +0.000 A 
ATOM      2  C   UNL     1      -2.195  11.407  17.375  0.00  0.00    +0.000 A 
ATOM      3  C   UNL     1      -3.466  10.851  17.197  0.00  0.00    +0.000 A 
ATOM      4  C   UNL     1      -4.456  11.104  18.151  0.00  0.00    +0.000 A 
ATOM      5  N   UNL     1      -5.756  10.685  18.166  0.00  0.00    +0.000 NA
ATOM      6  C   UNL     1      -6.286  11.183  19.259  0.00  0.00    +0.000 A 
ATOM      7  N   UNL     1      -7.589  11.031  19.552  0.00  0.00    +0.000 N 
ATOM      8  N   UNL     1      -5.330  11.860  19.989  0.00  0.00    +0.000 N 
ATOM      9  C   UNL     1      -4.165  11.893  19.257  0.00  0.00    +0.000 A 
ATOM     10  C   UNL     1      -2.910  12.489  19.427  0.00  0.00    +0.000 A 
ATOM     11  H   UNL     1      -8.064  10.325  18.990  0.00  0.00    +0.000 HD
ATOM     12  H   UNL     1      -7.943  11.085  20.507  0.00  0.00    +0.000 HD
ENDROOT
BRANCH   1  16
ATOM     13  C   UNL     1       0.950  14.425  18.859  0.00  0.00    +0.000 A 
ATOM     14  N   UNL     1       1.582  13.301  19.114  0.00  0.00    +0.000 NA
ATOM     15  C   UNL     1       0.663  12.289  18.983  0.00  0.00    +0.000 A 
ATOM     16  C   UNL     1      -0.583  12.809  18.644  0.00  0.00    +0.000 A 
ATOM     17  N   UNL     1      -0.353  14.163  18.524  0.00  0.00    +0.000 N 
ATOM     18  H   UNL     1      -1.044  14.856  18.276  0.00  0.00    +0.000 HD
BRANCH  15  19
ATOM     19  C   UNL     1       1.023  10.892  19.180  0.00  0.00    +0.000 A 
ATOM     20  C   UNL     1       1.646  10.155  18.161  0.00  0.00    +0.000 A 
ATOM     21  C   UNL     1       1.935   8.799  18.337  0.00  0.00    +0.000 A 
ATOM     22  C   UNL     1       1.652   8.186  19.547  0.00  0.00    +0.000 A 
ATOM     23  F   UNL     1       1.947   6.886  19.715  0.00  0.00    +0.000 F 
ATOM     24  C   UNL     1       1.064   8.892  20.583  0.00  0.00    +0.000 A 
ATOM     25  C   UNL     1       0.745  10.241  20.390  0.00  0.00    +0.000 A 
ATOM     26  F   UNL     1       0.134  10.883  21.400  0.00  0.00    +0.000 F 
ENDBRANCH  15  19
BRANCH  13  28
ATOM     27  C   UNL     1       0.482  16.822  18.410  0.00  0.00    +0.000 C 
ATOM     28  C   UNL     1       1.541  15.815  18.901  0.00  0.00    +0.000 C 
ATOM     29  C   UNL     1       2.776  15.918  17.989  0.00  0.00    +0.000 C 
ATOM     30  C   UNL     1       1.945  16.173  20.340  0.00  0.00    +0.000 C 
ENDBRANCH  13  28
ENDBRANCH   1  16
BRANCH   8  31
ATOM     31  S   UNL     1      -5.546  12.618  21.486  0.00  0.00    +0.000 S 
ATOM     32  O   UNL     1      -6.784  12.043  22.009  0.00  0.00    +0.000 OA
ATOM     33  O   UNL     1      -4.310  12.399  22.208  0.00  0.00    +0.000 OA
BRANCH  31  34
ATOM     34  C   UNL     1      -5.785  14.410  21.282  0.00  0.00    +0.000 C 
ATOM     35  C   UNL     1      -6.439  14.677  19.919  0.00  0.00    +0.000 C 
ATOM     36  C   UNL     1      -6.669  14.908  22.447  0.00  0.00    +0.000 C 
ATOM     37  C   UNL     1      -4.467  15.190  21.351  0.00  0.00    +0.000 C 
ENDBRANCH  31  34
ENDBRANCH   8  31
TORSDOF 5
ENDMDL
MODEL 4
REMARK VINA RESULT:      -7.6      0.968      1.454
REMARK  Name = 
REMARK  11 active torsions:
REMARK  status: ('A' for Active; 'I' for Inactive)
REMARK    1  A    between atoms: C_1  and  C_2
REMARK    2  A    between atoms: C_2  and  C_3
REMARK    3  A    between atoms: C_2  and  C_4
REMARK    4  A    between atoms: C_2  and  C_5
REMARK    5  A    between atoms: C_7  and  C_8
REMARK    6  A    between atoms: C_16  and  C_17
REMARK    7  A    between atoms: N_24  and  S_25
REMARK    8  A    between atoms: S_25  and  C_28
REMARK    9  A    between atoms: C_28  and  C_29
REMARK   10  A    between atoms: C_28  and  C_30
REMARK   11  A    between atoms: C_28  and  C_31
REMARK                            x       y       z     vdW  Elec       q    Type
REMARK                         _______ _______ _______ _____ _____    ______ ____
ROOT
ATOM      1  C   UNL     1      -2.081  12.296  18.662  0.00  0.00    +0.000 A 
ATOM      2  C   UNL     1      -2.358  11.503  17.542  0.00  0.00    +0.000 A 
ATOM      3  C   UNL     1      -3.626  10.945  17.349  0.00  0.00    +0.000 A 
ATOM      4  C   UNL     1      -4.619  11.168  18.308  0.00  0.00    +0.000 A 
ATOM      5  N   UNL     1      -5.916  10.742  18.310  0.00  0.00    +0.000 NA
ATOM      6  C   UNL     1      -6.450  11.208  19.415  0.00  0.00    +0.000 A 
ATOM      7  N   UNL     1      -7.753  11.042  19.703  0.00  0.00    +0.000 N 
ATOM      8  N   UNL     1      -5.499  11.873  20.164  0.00  0.00    +0.000 N 
ATOM      9  C   UNL     1      -4.334  11.931  19.434  0.00  0.00    +0.000 A 
ATOM     10  C   UNL     1      -3.082  12.530  19.621  0.00  0.00    +0.000 A 
ATOM     11  H   UNL     1      -8.223  10.348  19.122  0.00  0.00    +0.000 HD
ATOM     12  H   UNL     1      -8.108  11.070  20.658  0.00  0.00    +0.000 HD
ENDROOT
BRANCH   1  16
ATOM     13  C   UNL     1       0.782  14.500  19.002  0.00  0.00    +0.000 A 
ATOM     14  N   UNL     1       1.388  13.398  19.383  0.00  0.00    +0.000 NA
ATOM     15  C   UNL     1       0.465  12.384  19.292  0.00  0.00    +0.000 A 
ATOM     16  C   UNL     1      -0.756  12.883  18.849  0.00  0.00    +0.000 A 
ATOM     17  N   UNL     1      -0.505  14.220  18.625  0.00  0.00    +0.000 N 
ATOM     18  H   UNL     1      -1.176  14.894  18.285  0.00  0.00    +0.000 HD
BRANCH  15  19
ATOM     19  C   UNL     1       0.800  11.007  19.625  0.00  0.00    +0.000 A 
ATOM     20  C   UNL     1       1.328  10.137  18.658  0.00  0.00    +0.000 A 
ATOM     21  C   UNL     1       1.591   8.801  18.970  0.00  0.00    +0.000 A 
ATOM     22  C   UNL     1       1.378   8.340  20.259  0.00  0.00    +0.000 A 
ATOM     23  F   UNL     1       1.648   7.057  20.557  0.00  0.00    +0.000 F 
ATOM     24  C   UNL     1       0.886   9.179  21.244  0.00  0.00    +0.000 A 
ATOM     25  C   UNL     1       0.591  10.508  20.918  0.00  0.00    +0.000 A 
ATOM     26  F   UNL     1       0.073  11.282  21.886  0.00  0.00    +0.000 F 
ENDBRANCH  15  19
BRANCH  13  28
ATOM     27  C   UNL     1       1.763  16.312  20.387  0.00  0.00    +0.000 C 
ATOM     28  C   UNL     1       1.386  15.885  18.955  0.00  0.00    +0.000 C 
ATOM     29  C   UNL     1       0.384  16.905  18.387  0.00  0.00    +0.000 C 
ATOM     30  C   UNL     1       2.651  15.880  18.083  0.00  0.00    +0.000 C 
ENDBRANCH  13  28
ENDBRANCH   1  16
BRANCH   8  31
ATOM     31  S   UNL     1      -5.722  12.592  21.678  0.00  0.00    +0.000 S 
ATOM     32  O   UNL     1      -6.920  11.950  22.213  0.00  0.00    +0.000 OA
ATOM     33  O   UNL     1      -4.462  12.419  22.373  0.00  0.00    +0.000 OA
BRANCH  31  34
ATOM     34  C   UNL     1      -6.048  14.373  21.514  0.00  0.00    +0.000 C 
ATOM     35  C   UNL     1      -7.102  14.788  22.550  0.00  0.00    +0.000 C 
ATOM     36  C   UNL     1      -4.714  15.124  21.726  0.00  0.00    +0.000 C 
ATOM     37  C   UNL     1      -6.561  14.751  20.120  0.00  0.00    +0.000 C 
ENDBRANCH  31  34
ENDBRANCH   8  31
TORSDOF 5
ENDMDL
MODEL 5
REMARK VINA RESULT:      -7.4      0.941      1.615
REMARK  Name = 
REMARK  11 active torsions:
REMARK  status: ('A' for Active; 'I' for Inactive)
REMARK    1  A    between atoms: C_1  and  C_2
REMARK    2  A    between atoms: C_2  and  C_3
REMARK    3  A    between atoms: C_2  and  C_4
REMARK    4  A    between atoms: C_2  and  C_5
REMARK    5  A    between atoms: C_7  and  C_8
REMARK    6  A    between atoms: C_16  and  C_17
REMARK    7  A    between atoms: N_24  and  S_25
REMARK    8  A    between atoms: S_25  and  C_28
REMARK    9  A    between atoms: C_28  and  C_29
REMARK   10  A    between atoms: C_28  and  C_30
REMARK   11  A    between atoms: C_28  and  C_31
REMARK                            x       y       z     vdW  Elec       q    Type
REMARK                         _______ _______ _______ _____ _____    ______ ____
ROOT
ATOM      1  C   UNL     1      -1.788  12.329  18.469  0.00  0.00    +0.000 A 
ATOM      2  C   UNL     1      -2.076  11.533  17.354  0.00  0.00    +0.000 A 
ATOM      3  C   UNL     1      -3.348  10.983  17.167  0.00  0.00    +0.000 A 
ATOM      4  C   UNL     1      -4.336  11.219  18.129  0.00  0.00    +0.000 A 
ATOM      5  N   UNL     1      -5.637  10.802  18.139  0.00  0.00    +0.000 NA
ATOM      6  C   UNL     1      -6.163  11.278  19.243  0.00  0.00    +0.000 A 
ATOM      7  N   UNL     1      -7.465  11.122  19.537  0.00  0.00    +0.000 N 
ATOM      8  N   UNL     1      -5.204  11.938  19.985  0.00  0.00    +0.000 N 
ATOM      9  C   UNL     1      -4.041  11.984  19.250  0.00  0.00    +0.000 A 
ATOM     10  C   UNL     1      -2.784  12.574  19.430  0.00  0.00    +0.000 A 
ATOM     11  H   UNL     1      -7.943  10.429  18.961  0.00  0.00    +0.000 HD
ATOM     12  H   UNL     1      -7.816  11.157  20.493  0.00  0.00    +0.000 HD
ENDROOT
BRANCH   1  16
ATOM     13  C   UNL     1       1.072  14.510  18.950  0.00  0.00    +0.000 A 
ATOM     14  N   UNL     1       1.717  13.373  19.093  0.00  0.00    +0.000 NA
ATOM     15  C   UNL     1       0.799  12.369  18.905  0.00  0.00    +0.000 A 
ATOM     16  C   UNL     1      -0.458  12.906  18.648  0.00  0.00    +0.000 A 
ATOM     17  N   UNL     1      -0.238  14.267  18.632  0.00  0.00    +0.000 N 
ATOM     18  H   UNL     1      -0.941  14.973  18.463  0.00  0.00    +0.000 HD
BRANCH  15  19
ATOM     19  C   UNL     1       1.172  10.963  18.976  0.00  0.00    +0.000 A 
ATOM     20  C   UNL     1       1.869  10.345  17.926  0.00  0.00    +0.000 A 
ATOM     21  C   UNL     1       2.171   8.982  17.976  0.00  0.00    +0.000 A 
ATOM     22  C   UNL     1       1.827   8.241  19.095  0.00  0.00    +0.000 A 
ATOM     23  F   UNL     1       2.135   6.934  19.144  0.00  0.00    +0.000 F 
ATOM     24  C   UNL     1       1.166   8.826  20.162  0.00  0.00    +0.000 A 
ATOM     25  C   UNL     1       0.834  10.184  20.092  0.00  0.00    +0.000 A 
ATOM     26  F   UNL     1       0.153  10.709  21.125  0.00  0.00    +0.000 F 
ENDBRANCH  15  19
BRANCH  13  28
ATOM     27  C   UNL     1       1.508  16.356  20.552  0.00  0.00    +0.000 C 
ATOM     28  C   UNL     1       1.657  15.896  19.089  0.00  0.00    +0.000 C 
ATOM     29  C   UNL     1       0.922  16.899  18.183  0.00  0.00    +0.000 C 
ATOM     30  C   UNL     1       3.149  15.879  18.717  0.00  0.00    +0.000 C 
ENDBRANCH  13  28
ENDBRANCH   1  16
BRANCH   8  31
ATOM     31  S   UNL     1      -5.415  12.665  21.497  0.00  0.00    +0.000 S 
ATOM     32  O   UNL     1      -6.688  12.136  21.981  0.00  0.00    +0.000 OA
ATOM     33  O   UNL     1      -4.204  12.369  22.237  0.00  0.00    +0.000 OA
BRANCH  31  34
ATOM     34  C   UNL     1      -5.564  14.470  21.339  0.00  0.00    +0.000 C 
ATOM     35  C   UNL     1      -4.170  15.102  21.461  0.00  0.00    +0.000 C 
ATOM     36  C   UNL     1      -6.212  14.777  19.970  0.00  0.00    +0.000 C 
ATOM     37  C   UNL     1      -6.471  15.082  22.414  0.00  0.00    +0.000 C 
ENDBRANCH  31  34
ENDBRANCH   8  31
TORSDOF 5
ENDMDL
MODEL 6
REMARK VINA RESULT:      -7.1      7.540     11.741
REMARK  Name = 
REMARK  11 active torsions:
REMARK  status: ('A' for Active; 'I' for Inactive)
REMARK    1  A    between atoms: C_1  and  C_2
REMARK    2  A    between atoms: C_2  and  C_3
REMARK    3  A    between atoms: C_2  and  C_4
REMARK    4  A    between atoms: C_2  and  C_5
REMARK    5  A    between atoms: C_7  and  C_8
REMARK    6  A    between atoms: C_16  and  C_17
REMARK    7  A    between atoms: N_24  and  S_25
REMARK    8  A    between atoms: S_25  and  C_28
REMARK    9  A    between atoms: C_28  and  C_29
REMARK   10  A    between atoms: C_28  and  C_30
REMARK   11  A    between atoms: C_28  and  C_31
REMARK                            x       y       z     vdW  Elec       q    Type
REMARK                         _______ _______ _______ _____ _____    ______ ____
ROOT
ATOM      1  C   UNL     1       6.418  15.440  19.662  0.00  0.00    +0.000 A 
ATOM      2  C   UNL     1       6.538  16.805  19.376  0.00  0.00    +0.000 A 
ATOM      3  C   UNL     1       7.611  17.293  18.623  0.00  0.00    +0.000 A 
ATOM      4  C   UNL     1       8.587  16.398  18.174  0.00  0.00    +0.000 A 
ATOM      5  N   UNL     1       9.695  16.650  17.416  0.00  0.00    +0.000 NA
ATOM      6  C   UNL     1      10.294  15.494  17.251  0.00  0.00    +0.000 A 
ATOM      7  N   UNL     1      11.387  15.361  16.480  0.00  0.00    +0.000 N 
ATOM      8  N   UNL     1       9.629  14.506  17.950  0.00  0.00    +0.000 N 
ATOM      9  C   UNL     1       8.482  15.048  18.484  0.00  0.00    +0.000 A 
ATOM     10  C   UNL     1       7.393  14.539  19.202  0.00  0.00    +0.000 A 
ATOM     11  H   UNL     1      11.831  16.244  16.229  0.00  0.00    +0.000 HD
ATOM     12  H   UNL     1      12.055  14.600  16.607  0.00  0.00    +0.000 HD
ENDROOT
BRANCH   1  16
ATOM     13  C   UNL     1       3.183  14.295  20.844  0.00  0.00    +0.000 A 
ATOM     14  N   UNL     1       3.867  13.965  21.917  0.00  0.00    +0.000 NA
ATOM     15  C   UNL     1       5.165  14.357  21.698  0.00  0.00    +0.000 A 
ATOM     16  C   UNL     1       5.287  14.940  20.441  0.00  0.00    +0.000 A 
ATOM     17  N   UNL     1       4.000  14.931  19.947  0.00  0.00    +0.000 N 
ATOM     18  H   UNL     1       3.714  15.291  19.047  0.00  0.00    +0.000 HD
BRANCH  15  19
ATOM     19  C   UNL     1       6.207  14.160  22.696  0.00  0.00    +0.000 A 
ATOM     20  C   UNL     1       6.679  12.875  23.005  0.00  0.00    +0.000 A 
ATOM     21  C   UNL     1       7.636  12.689  24.006  0.00  0.00    +0.000 A 
ATOM     22  C   UNL     1       8.165  13.787  24.665  0.00  0.00    +0.000 A 
ATOM     23  F   UNL     1       9.098  13.602  25.615  0.00  0.00    +0.000 F 
ATOM     24  C   UNL     1       7.744  15.071  24.363  0.00  0.00    +0.000 A 
ATOM     25  C   UNL     1       6.759  15.249  23.385  0.00  0.00    +0.000 A 
ATOM     26  F   UNL     1       6.340  16.504  23.150  0.00  0.00    +0.000 F 
ENDBRANCH  15  19
BRANCH  13  28
ATOM     27  C   UNL     1       0.920  14.511  21.842  0.00  0.00    +0.000 C 
ATOM     28  C   UNL     1       1.713  14.043  20.606  0.00  0.00    +0.000 C 
ATOM     29  C   UNL     1       1.437  12.545  20.385  0.00  0.00    +0.000 C 
ATOM     30  C   UNL     1       1.235  14.830  19.375  0.00  0.00    +0.000 C 
ENDBRANCH  13  28
ENDBRANCH   1  16
BRANCH   8  31
ATOM     31  S   UNL     1      10.067  12.876  18.067  0.00  0.00    +0.000 S 
ATOM     32  O   UNL     1       8.842  12.147  17.747  0.00  0.00    +0.000 OA
ATOM     33  O   UNL     1      11.220  12.727  17.201  0.00  0.00    +0.000 OA
BRANCH  31  34
ATOM     34  C   UNL     1      10.564  12.453  19.764  0.00  0.00    +0.000 C 
ATOM     35  C   UNL     1       9.545  11.466  20.353  0.00  0.00    +0.000 C 
ATOM     36  C   UNL     1      11.982  11.843  19.708  0.00  0.00    +0.000 C 
ATOM     37  C   UNL     1      10.636  13.681  20.679  0.00  0.00    +0.000 C 
ENDBRANCH  31  34
ENDBRANCH   8  31
TORSDOF 5
ENDMDL
MODEL 7
REMARK VINA RESULT:      -7.1      7.579     11.793
REMARK  Name = 
REMARK  11 active torsions:
REMARK  status: ('A' for Active; 'I' for Inactive)
REMARK    1  A    between atoms: C_1  and  C_2
REMARK    2  A    between atoms: C_2  and  C_3
REMARK    3  A    between atoms: C_2  and  C_4
REMARK    4  A    between atoms: C_2  and  C_5
REMARK    5  A    between atoms: C_7  and  C_8
REMARK    6  A    between atoms: C_16  and  C_17
REMARK    7  A    between atoms: N_24  and  S_25
REMARK    8  A    between atoms: S_25  and  C_28
REMARK    9  A    between atoms: C_28  and  C_29
REMARK   10  A    between atoms: C_28  and  C_30
REMARK   11  A    between atoms: C_28  and  C_31
REMARK                            x       y       z     vdW  Elec       q    Type
REMARK                         _______ _______ _______ _____ _____    ______ ____
ROOT
ATOM      1  C   UNL     1       6.472  15.509  19.830  0.00  0.00    +0.000 A 
ATOM      2  C   UNL     1       6.620  16.893  19.685  0.00  0.00    +0.000 A 
ATOM      3  C   UNL     1       7.696  17.434  18.974  0.00  0.00    +0.000 A 
ATOM      4  C   UNL     1       8.648  16.571  18.423  0.00  0.00    +0.000 A 
ATOM      5  N   UNL     1       9.753  16.877  17.682  0.00  0.00    +0.000 NA
ATOM      6  C   UNL     1      10.325  15.732  17.391  0.00  0.00    +0.000 A 
ATOM      7  N   UNL     1      11.407  15.657  16.598  0.00  0.00    +0.000 N 
ATOM      8  N   UNL     1       9.646  14.691  17.992  0.00  0.00    +0.000 N 
ATOM      9  C   UNL     1       8.516  15.198  18.593  0.00  0.00    +0.000 A 
ATOM     10  C   UNL     1       7.423  14.640  19.267  0.00  0.00    +0.000 A 
ATOM     11  H   UNL     1      11.868  16.552  16.434  0.00  0.00    +0.000 HD
ATOM     12  H   UNL     1      12.060  14.874  16.638  0.00  0.00    +0.000 HD
ENDROOT
BRANCH   1  16
ATOM     13  C   UNL     1       3.233  14.282  20.913  0.00  0.00    +0.000 A 
ATOM     14  N   UNL     1       3.912  13.875  21.962  0.00  0.00    +0.000 NA
ATOM     15  C   UNL     1       5.212  14.282  21.777  0.00  0.00    +0.000 A 
ATOM     16  C   UNL     1       5.338  14.955  20.566  0.00  0.00    +0.000 A 
ATOM     17  N   UNL     1       4.054  14.982  20.068  0.00  0.00    +0.000 N 
ATOM     18  H   UNL     1       3.771  15.406  19.195  0.00  0.00    +0.000 HD
BRANCH  15  19
ATOM     19  C   UNL     1       6.249  14.013  22.762  0.00  0.00    +0.000 A 
ATOM     20  C   UNL     1       6.698  12.704  23.001  0.00  0.00    +0.000 A 
ATOM     21  C   UNL     1       7.652  12.447  23.989  0.00  0.00    +0.000 A 
ATOM     22  C   UNL     1       8.200  13.499  24.707  0.00  0.00    +0.000 A 
ATOM     23  F   UNL     1       9.129  13.246  25.645  0.00  0.00    +0.000 F 
ATOM     24  C   UNL     1       7.802  14.804  24.475  0.00  0.00    +0.000 A 
ATOM     25  C   UNL     1       6.820  15.053  23.509  0.00  0.00    +0.000 A 
ATOM     26  F   UNL     1       6.425  16.326  23.342  0.00  0.00    +0.000 F 
ENDBRANCH  15  19
BRANCH  13  28
ATOM     27  C   UNL     1       1.374  14.750  19.335  0.00  0.00    +0.000 C 
ATOM     28  C   UNL     1       1.763  14.049  20.652  0.00  0.00    +0.000 C 
ATOM     29  C   UNL     1       0.901  14.627  21.788  0.00  0.00    +0.000 C 
ATOM     30  C   UNL     1       1.483  12.544  20.522  0.00  0.00    +0.000 C 
ENDBRANCH  13  28
ENDBRANCH   1  16
BRANCH   8  31
ATOM     31  S   UNL     1      10.049  13.049  17.935  0.00  0.00    +0.000 S 
ATOM     32  O   UNL     1       8.788  12.375  17.634  0.00  0.00    +0.000 OA
ATOM     33  O   UNL     1      11.139  12.956  16.984  0.00  0.00    +0.000 OA
BRANCH  31  34
ATOM     34  C   UNL     1      10.644  12.465  19.551  0.00  0.00    +0.000 C 
ATOM     35  C   UNL     1      11.948  11.679  19.352  0.00  0.00    +0.000 C 
ATOM     36  C   UNL     1      10.854  13.699  20.456  0.00  0.00    +0.000 C 
ATOM     37  C   UNL     1       9.631  11.555  20.256  0.00  0.00    +0.000 C 
ENDBRANCH  31  34
ENDBRANCH   8  31
TORSDOF 5
ENDMDL
MODEL 8
REMARK VINA RESULT:      -7.1      7.862     12.070
REMARK  Name = 
REMARK  11 active torsions:
REMARK  status: ('A' for Active; 'I' for Inactive)
REMARK    1  A    between atoms: C_1  and  C_2
REMARK    2  A    between atoms: C_2  and  C_3
REMARK    3  A    between atoms: C_2  and  C_4
REMARK    4  A    between atoms: C_2  and  C_5
REMARK    5  A    between atoms: C_7  and  C_8
REMARK    6  A    between atoms: C_16  and  C_17
REMARK    7  A    between atoms: N_24  and  S_25
REMARK    8  A    between atoms: S_25  and  C_28
REMARK    9  A    between atoms: C_28  and  C_29
REMARK   10  A    between atoms: C_28  and  C_30
REMARK   11  A    between atoms: C_28  and  C_31
REMARK                            x       y       z     vdW  Elec       q    Type
REMARK                         _______ _______ _______ _____ _____    ______ ____
ROOT
ATOM      1  C   UNL     1       7.155  15.262  20.880  0.00  0.00    +0.000 A 
ATOM      2  C   UNL     1       7.132  16.660  20.794  0.00  0.00    +0.000 A 
ATOM      3  C   UNL     1       7.861  17.334  19.809  0.00  0.00    +0.000 A 
ATOM      4  C   UNL     1       8.640  16.593  18.915  0.00  0.00    +0.000 A 
ATOM      5  N   UNL     1       9.406  17.039  17.876  0.00  0.00    +0.000 NA
ATOM      6  C   UNL     1       9.938  15.970  17.331  0.00  0.00    +0.000 A 
ATOM      7  N   UNL     1      10.695  16.036  16.222  0.00  0.00    +0.000 N 
ATOM      8  N   UNL     1       9.586  14.842  18.046  0.00  0.00    +0.000 N 
ATOM      9  C   UNL     1       8.685  15.209  19.020  0.00  0.00    +0.000 A 
ATOM     10  C   UNL     1       7.930  14.517  19.975  0.00  0.00    +0.000 A 
ATOM     11  H   UNL     1      11.000  16.978  15.981  0.00  0.00    +0.000 HD
ATOM     12  H   UNL     1      11.384  15.321  15.989  0.00  0.00    +0.000 HD
ENDROOT
BRANCH   1  16
ATOM     13  C   UNL     1       6.008  13.473  23.822  0.00  0.00    +0.000 A 
ATOM     14  N   UNL     1       4.819  13.744  23.331  0.00  0.00    +0.000 NA
ATOM     15  C   UNL     1       5.020  14.412  22.147  0.00  0.00    +0.000 A 
ATOM     16  C   UNL     1       6.381  14.568  21.907  0.00  0.00    +0.000 A 
ATOM     17  N   UNL     1       6.980  13.916  22.963  0.00  0.00    +0.000 N 
ATOM     18  H   UNL     1       7.975  13.822  23.107  0.00  0.00    +0.000 HD
BRANCH  15  19
ATOM     19  C   UNL     1       3.910  14.856  21.317  0.00  0.00    +0.000 A 
ATOM     20  C   UNL     1       3.247  13.964  20.458  0.00  0.00    +0.000 A 
ATOM     21  C   UNL     1       2.222  14.411  19.621  0.00  0.00    +0.000 A 
ATOM     22  C   UNL     1       1.817  15.735  19.673  0.00  0.00    +0.000 A 
ATOM     23  F   UNL     1       0.819  16.155  18.877  0.00  0.00    +0.000 F 
ATOM     24  C   UNL     1       2.430  16.634  20.530  0.00  0.00    +0.000 A 
ATOM     25  C   UNL     1       3.480  16.190  21.342  0.00  0.00    +0.000 A 
ATOM     26  F   UNL     1       4.082  17.099  22.127  0.00  0.00    +0.000 F 
ENDBRANCH  15  19
BRANCH  13  28
ATOM     27  C   UNL     1       5.924  11.279  24.982  0.00  0.00    +0.000 C 
ATOM     28  C   UNL     1       6.300  12.767  25.126  0.00  0.00    +0.000 C 
ATOM     29  C   UNL     1       5.477  13.371  26.277  0.00  0.00    +0.000 C 
ATOM     30  C   UNL     1       7.795  12.878  25.462  0.00  0.00    +0.000 C 
ENDBRANCH  13  28
ENDBRANCH   1  16
BRANCH   8  31
ATOM     31  S   UNL     1      10.078  13.253  17.741  0.00  0.00    +0.000 S 
ATOM     32  O   UNL     1       8.830  12.515  17.558  0.00  0.00    +0.000 OA
ATOM     33  O   UNL     1      11.008  13.346  16.634  0.00  0.00    +0.000 OA
BRANCH  31  34
ATOM     34  C   UNL     1      10.956  12.555  19.172  0.00  0.00    +0.000 C 
ATOM     35  C   UNL     1      11.523  13.701  20.022  0.00  0.00    +0.000 C 
ATOM     36  C   UNL     1       9.953  11.693  19.973  0.00  0.00    +0.000 C 
ATOM     37  C   UNL     1      12.113  11.636  18.762  0.00  0.00    +0.000 C 
ENDBRANCH  31  34
ENDBRANCH   8  31
TORSDOF 5
ENDMDL
MODEL 9
REMARK VINA RESULT:      -7.0      1.764      2.268
REMARK  Name = 
REMARK  11 active torsions:
REMARK  status: ('A' for Active; 'I' for Inactive)
REMARK    1  A    between atoms: C_1  and  C_2
REMARK    2  A    between atoms: C_2  and  C_3
REMARK    3  A    between atoms: C_2  and  C_4
REMARK    4  A    between atoms: C_2  and  C_5
REMARK    5  A    between atoms: C_7  and  C_8
REMARK    6  A    between atoms: C_16  and  C_17
REMARK    7  A    between atoms: N_24  and  S_25
REMARK    8  A    between atoms: S_25  and  C_28
REMARK    9  A    between atoms: C_28  and  C_29
REMARK   10  A    between atoms: C_28  and  C_30
REMARK   11  A    between atoms: C_28  and  C_31
REMARK                            x       y       z     vdW  Elec       q    Type
REMARK                         _______ _______ _______ _____ _____    ______ ____
ROOT
ATOM      1  C   UNL     1      -1.367  12.630  18.954  0.00  0.00    +0.000 A 
ATOM      2  C   UNL     1      -1.923  11.696  18.072  0.00  0.00    +0.000 A 
ATOM      3  C   UNL     1      -3.271  11.333  18.159  0.00  0.00    +0.000 A 
ATOM      4  C   UNL     1      -4.063  11.901  19.162  0.00  0.00    +0.000 A 
ATOM      5  N   UNL     1      -5.391  11.709  19.414  0.00  0.00    +0.000 NA
ATOM      6  C   UNL     1      -5.677  12.462  20.450  0.00  0.00    +0.000 A 
ATOM      7  N   UNL     1      -6.930  12.577  20.924  0.00  0.00    +0.000 N 
ATOM      8  N   UNL     1      -4.538  13.087  20.918  0.00  0.00    +0.000 N 
ATOM      9  C   UNL     1      -3.503  12.806  20.055  0.00  0.00    +0.000 A 
ATOM     10  C   UNL     1      -2.166  13.209  19.956  0.00  0.00    +0.000 A 
ATOM     11  H   UNL     1      -7.577  11.874  20.567  0.00  0.00    +0.000 HD
ATOM     12  H   UNL     1      -7.126  12.847  21.888  0.00  0.00    +0.000 HD
ENDROOT
BRANCH   1  16
ATOM     13  C   UNL     1       1.806  14.378  18.730  0.00  0.00    +0.000 A 
ATOM     14  N   UNL     1       2.303  13.169  18.868  0.00  0.00    +0.000 NA
ATOM     15  C   UNL     1       1.237  12.305  18.936  0.00  0.00    +0.000 A 
ATOM     16  C   UNL     1       0.040  13.009  18.847  0.00  0.00    +0.000 A 
ATOM     17  N   UNL     1       0.438  14.316  18.666  0.00  0.00    +0.000 N 
ATOM     18  H   UNL     1      -0.179  15.108  18.553  0.00  0.00    +0.000 HD
BRANCH  15  19
ATOM     19  C   UNL     1       1.419  10.868  19.075  0.00  0.00    +0.000 A 
ATOM     20  C   UNL     1       1.950  10.101  18.026  0.00  0.00    +0.000 A 
ATOM     21  C   UNL     1       2.067   8.714  18.145  0.00  0.00    +0.000 A 
ATOM     22  C   UNL     1       1.704   8.091  19.329  0.00  0.00    +0.000 A 
ATOM     23  F   UNL     1       1.834   6.759  19.443  0.00  0.00    +0.000 F 
ATOM     24  C   UNL     1       1.205   8.822  20.394  0.00  0.00    +0.000 A 
ATOM     25  C   UNL     1       1.057  10.207  20.257  0.00  0.00    +0.000 A 
ATOM     26  F   UNL     1       0.527  10.878  21.294  0.00  0.00    +0.000 F 
ENDBRANCH  15  19
BRANCH  13  28
ATOM     27  C   UNL     1       1.607  16.850  18.618  0.00  0.00    +0.000 C 
ATOM     28  C   UNL     1       2.591  15.665  18.636  0.00  0.00    +0.000 C 
ATOM     29  C   UNL     1       3.432  15.706  17.348  0.00  0.00    +0.000 C 
ATOM     30  C   UNL     1       3.523  15.805  19.851  0.00  0.00    +0.000 C 
ENDBRANCH  13  28
ENDBRANCH   1  16
BRANCH   8  31
ATOM     31  S   UNL     1      -4.421  14.110  22.259  0.00  0.00    +0.000 S 
ATOM     32  O   UNL     1      -3.399  15.085  21.884  0.00  0.00    +0.000 OA
ATOM     33  O   UNL     1      -5.772  14.570  22.509  0.00  0.00    +0.000 OA
BRANCH  31  34
ATOM     34  C   UNL     1      -3.842  13.203  23.725  0.00  0.00    +0.000 C 
ATOM     35  C   UNL     1      -3.151  14.185  24.682  0.00  0.00    +0.000 C 
ATOM     36  C   UNL     1      -5.066  12.530  24.384  0.00  0.00    +0.000 C 
ATOM     37  C   UNL     1      -2.849  12.089  23.372  0.00  0.00    +0.000 C 
ENDBRANCH  31  34
ENDBRANCH   8  31
TORSDOF 5
ENDMDL
