MODEL 1
REMARK VINA RESULT:      -6.3      0.000      0.000
REMARK  Name = 
REMARK  14 active torsions:
REMARK  status: ('A' for Active; 'I' for Inactive)
REMARK    1  A    between atoms: C_1  and  C_2
REMARK    2  A    between atoms: C_2  and  O_3
REMARK    3  A    between atoms: O_3  and  P_4
REMARK    4  A    between atoms: P_4  and  O_6
REMARK    5  A    between atoms: P_4  and  C_9
REMARK    6  A    between atoms: O_6  and  C_7
REMARK    7  A    between atoms: C_7  and  C_8
REMARK    8  A    between atoms: C_9  and  N_10
REMARK    9  A    between atoms: C_9  and  C_20
REMARK   10  A    between atoms: N_10  and  C_11
REMARK   11  A    between atoms: C_11  and  S_12
REMARK   12  A    between atoms: S_12  and  C_13
REMARK   13  A    between atoms: C_14  and  C_15
REMARK   14  A    between atoms: C_14  and  C_17
REMARK                            x       y       z     vdW  Elec       q    Type
REMARK                         _______ _______ _______ _____ _____    ______ ____
ROOT
ATOM      1  C   UNL     1       4.312   5.427  17.931  0.00  0.00    +0.000 C 
ENDROOT
BRANCH   1   2
ATOM      2  C   UNL     1       3.925   3.989  18.320  0.00  0.00    +0.000 A 
ATOM      3  C   UNL     1       3.030   3.251  17.530  0.00  0.00    +0.000 A 
ATOM      4  C   UNL     1       2.848   1.880  17.744  0.00  0.00    +0.000 A 
ATOM      5  C   UNL     1       3.525   1.229  18.772  0.00  0.00    +0.000 A 
ATOM      6  C   UNL     1       4.387   1.947  19.589  0.00  0.00    +0.000 A 
ATOM      7  C   UNL     1       4.595   3.308  19.354  0.00  0.00    +0.000 A 
ENDBRANCH   1   2
BRANCH   1   8
ATOM      8  P   UNL     1       5.267   5.693  16.393  0.00  0.00    +0.000 P 
ATOM      9  O   UNL     1       6.182   4.515  16.780  0.00  0.00    +0.000 OA
BRANCH   8  10
ATOM     10  O   UNL     1       6.170   5.945  14.939  0.00  0.00    +0.000 OA
BRANCH  10  12
ATOM     11  C   UNL     1       5.924   3.989  13.573  0.00  0.00    +0.000 C 
ATOM     12  C   UNL     1       6.857   4.797  14.451  0.00  0.00    +0.000 C 
ENDBRANCH  10  12
ENDBRANCH   8  10
BRANCH   8  13
ATOM     13  O   UNL     1       5.962   7.082  17.000  0.00  0.00    +0.000 OA
BRANCH  13  14
ATOM     14  C   UNL     1       7.312   7.029  17.446  0.00  0.00    +0.000 C 
ATOM     15  C   UNL     1       7.809   8.445  17.671  0.00  0.00    +0.000 C 
ENDBRANCH  13  14
ENDBRANCH   8  13
ENDBRANCH   1   8
BRANCH   1  16
ATOM     16  N   UNL     1       3.031   6.164  17.941  0.00  0.00    +0.000 N 
ATOM     17  H   UNL     1       2.489   6.009  17.084  0.00  0.00    +0.000 HD
BRANCH  16  18
ATOM     18  C   UNL     1       2.550   7.189  18.747  0.00  0.00    +0.000 C 
ATOM     19  C   UNL     1       1.930   6.936  19.936  0.00  0.00    +0.000 C 
BRANCH  19  20
ATOM     20  C   UNL     1       1.780   5.520  20.429  0.00  0.00    +0.000 C 
ATOM     21  N   UNL     1       2.575   5.125  21.470  0.00  0.00    +0.000 N 
ATOM     22  O   UNL     1       0.989   4.708  19.950  0.00  0.00    +0.000 OA
ATOM     23  H   UNL     1       3.212   5.723  21.978  0.00  0.00    +0.000 HD
ATOM     24  H   UNL     1       2.444   4.181  21.816  0.00  0.00    +0.000 HD
ENDBRANCH  19  20
BRANCH  18  25
ATOM     25  S   UNL     1       2.671   8.890  18.230  0.00  0.00    +0.000 S 
ATOM     26  C   UNL     1       0.967   9.237  17.743  0.00  0.00    +0.000 C 
ENDBRANCH  18  25
BRANCH  19  27
ATOM     27  C   UNL     1       1.405   7.962  20.782  0.00  0.00    +0.000 C 
ATOM     28  N   UNL     1       1.044   8.779  21.523  0.00  0.00    +0.000 NA
ENDBRANCH  19  27
ENDBRANCH  16  18
ENDBRANCH   1  16
TORSDOF 11
ENDMDL
MODEL 2
REMARK VINA RESULT:      -6.2      1.617      2.312
REMARK  Name = 
REMARK  14 active torsions:
REMARK  status: ('A' for Active; 'I' for Inactive)
REMARK    1  A    between atoms: C_1  and  C_2
REMARK    2  A    between atoms: C_2  and  O_3
REMARK    3  A    between atoms: O_3  and  P_4
REMARK    4  A    between atoms: P_4  and  O_6
REMARK    5  A    between atoms: P_4  and  C_9
REMARK    6  A    between atoms: O_6  and  C_7
REMARK    7  A    between atoms: C_7  and  C_8
REMARK    8  A    between atoms: C_9  and  N_10
REMARK    9  A    between atoms: C_9  and  C_20
REMARK   10  A    between atoms: N_10  and  C_11
REMARK   11  A    between atoms: C_11  and  S_12
REMARK   12  A    between atoms: S_12  and  C_13
REMARK   13  A    between atoms: C_14  and  C_15
REMARK   14  A    between atoms: C_14  and  C_17
REMARK                            x       y       z     vdW  Elec       q    Type
REMARK                         _______ _______ _______ _____ _____    ______ ____
ROOT
ATOM      1  C   UNL     1       4.448   5.461  17.921  0.00  0.00    +0.000 C 
ENDROOT
BRANCH   1   2
ATOM      2  C   UNL     1       3.985   4.049  18.321  0.00  0.00    +0.000 A 
ATOM      3  C   UNL     1       3.053   3.352  17.535  0.00  0.00    +0.000 A 
ATOM      4  C   UNL     1       2.798   1.995  17.761  0.00  0.00    +0.000 A 
ATOM      5  C   UNL     1       3.438   1.317  18.795  0.00  0.00    +0.000 A 
ATOM      6  C   UNL     1       4.337   1.996  19.607  0.00  0.00    +0.000 A 
ATOM      7  C   UNL     1       4.616   3.341  19.362  0.00  0.00    +0.000 A 
ENDBRANCH   1   2
BRANCH   1   8
ATOM      8  P   UNL     1       5.284   5.686  16.309  0.00  0.00    +0.000 P 
ATOM      9  O   UNL     1       6.193   4.484  16.634  0.00  0.00    +0.000 OA
BRANCH   8  10
ATOM     10  O   UNL     1       6.075   5.900  14.785  0.00  0.00    +0.000 OA
BRANCH  10  12
ATOM     11  C   UNL     1       7.450   5.028  13.024  0.00  0.00    +0.000 C 
ATOM     12  C   UNL     1       7.084   4.939  14.491  0.00  0.00    +0.000 C 
ENDBRANCH  10  12
ENDBRANCH   8  10
BRANCH   8  13
ATOM     13  O   UNL     1       6.066   7.059  16.844  0.00  0.00    +0.000 OA
BRANCH  13  14
ATOM     14  C   UNL     1       7.233   6.910  17.644  0.00  0.00    +0.000 C 
ATOM     15  C   UNL     1       7.936   8.251  17.739  0.00  0.00    +0.000 C 
ENDBRANCH  13  14
ENDBRANCH   8  13
ENDBRANCH   1   8
BRANCH   1  16
ATOM     16  N   UNL     1       3.235   6.294  18.054  0.00  0.00    +0.000 N 
ATOM     17  H   UNL     1       2.968   6.735  17.166  0.00  0.00    +0.000 HD
BRANCH  16  18
ATOM     18  C   UNL     1       2.553   6.779  19.164  0.00  0.00    +0.000 C 
ATOM     19  C   UNL     1       1.972   8.014  19.166  0.00  0.00    +0.000 C 
BRANCH  19  20
ATOM     20  C   UNL     1       2.027   8.882  17.934  0.00  0.00    +0.000 C 
ATOM     21  N   UNL     1       1.097   9.879  17.821  0.00  0.00    +0.000 N 
ATOM     22  O   UNL     1       2.854   8.743  17.034  0.00  0.00    +0.000 OA
ATOM     23  H   UNL     1       0.413  10.123  18.525  0.00  0.00    +0.000 HD
ATOM     24  H   UNL     1       1.162  10.478  17.005  0.00  0.00    +0.000 HD
ENDBRANCH  19  20
BRANCH  18  25
ATOM     25  S   UNL     1       2.457   5.826  20.666  0.00  0.00    +0.000 S 
ATOM     26  C   UNL     1       1.098   4.699  20.287  0.00  0.00    +0.000 C 
ENDBRANCH  18  25
BRANCH  19  27
ATOM     27  C   UNL     1       1.280   8.555  20.293  0.00  0.00    +0.000 C 
ATOM     28  N   UNL     1       0.656   9.020  21.154  0.00  0.00    +0.000 NA
ENDBRANCH  19  27
ENDBRANCH  16  18
ENDBRANCH   1  16
TORSDOF 11
ENDMDL
MODEL 3
REMARK VINA RESULT:      -6.2      2.342      4.235
REMARK  Name = 
REMARK  14 active torsions:
REMARK  status: ('A' for Active; 'I' for Inactive)
REMARK    1  A    between atoms: C_1  and  C_2
REMARK    2  A    between atoms: C_2  and  O_3
REMARK    3  A    between atoms: O_3  and  P_4
REMARK    4  A    between atoms: P_4  and  O_6
REMARK    5  A    between atoms: P_4  and  C_9
REMARK    6  A    between atoms: O_6  and  C_7
REMARK    7  A    between atoms: C_7  and  C_8
REMARK    8  A    between atoms: C_9  and  N_10
REMARK    9  A    between atoms: C_9  and  C_20
REMARK   10  A    between atoms: N_10  and  C_11
REMARK   11  A    between atoms: C_11  and  S_12
REMARK   12  A    between atoms: S_12  and  C_13
REMARK   13  A    between atoms: C_14  and  C_15
REMARK   14  A    between atoms: C_14  and  C_17
REMARK                            x       y       z     vdW  Elec       q    Type
REMARK                         _______ _______ _______ _____ _____    ______ ____
ROOT
ATOM      1  C   UNL     1       4.954   5.088  16.275  0.00  0.00    +0.000 C 
ENDROOT
BRANCH   1   2
ATOM      2  C   UNL     1       5.984   5.766  17.195  0.00  0.00    +0.000 A 
ATOM      3  C   UNL     1       6.691   5.019  18.151  0.00  0.00    +0.000 A 
ATOM      4  C   UNL     1       7.781   5.572  18.831  0.00  0.00    +0.000 A 
ATOM      5  C   UNL     1       8.163   6.892  18.599  0.00  0.00    +0.000 A 
ATOM      6  C   UNL     1       7.455   7.660  17.685  0.00  0.00    +0.000 A 
ATOM      7  C   UNL     1       6.388   7.098  16.982  0.00  0.00    +0.000 A 
ENDBRANCH   1   2
BRANCH   1   8
ATOM      8  P   UNL     1       5.530   4.362  14.697  0.00  0.00    +0.000 P 
ATOM      9  O   UNL     1       6.030   3.127  15.470  0.00  0.00    +0.000 OA
BRANCH   8  10
ATOM     10  O   UNL     1       6.075   3.676  13.206  0.00  0.00    +0.000 OA
BRANCH  10  12
ATOM     11  C   UNL     1       5.441   2.143  11.474  0.00  0.00    +0.000 C 
ATOM     12  C   UNL     1       5.044   3.366  12.274  0.00  0.00    +0.000 C 
ENDBRANCH  10  12
ENDBRANCH   8  10
BRANCH   8  13
ATOM     13  O   UNL     1       6.801   5.438  14.603  0.00  0.00    +0.000 OA
BRANCH  13  14
ATOM     14  C   UNL     1       8.001   5.020  13.962  0.00  0.00    +0.000 C 
ATOM     15  C   UNL     1       8.253   5.915  12.764  0.00  0.00    +0.000 C 
ENDBRANCH  13  14
ENDBRANCH   8  13
ENDBRANCH   1   8
BRANCH   1  16
ATOM     16  N   UNL     1       4.283   4.100  17.145  0.00  0.00    +0.000 N 
ATOM     17  H   UNL     1       4.474   3.134  16.854  0.00  0.00    +0.000 HD
BRANCH  16  18
ATOM     18  C   UNL     1       3.275   4.223  18.095  0.00  0.00    +0.000 C 
ATOM     19  C   UNL     1       3.069   3.271  19.050  0.00  0.00    +0.000 C 
BRANCH  19  20
ATOM     20  C   UNL     1       3.963   2.060  19.122  0.00  0.00    +0.000 C 
ATOM     21  N   UNL     1       4.980   2.077  20.038  0.00  0.00    +0.000 N 
ATOM     22  O   UNL     1       3.830   1.066  18.408  0.00  0.00    +0.000 OA
ATOM     23  H   UNL     1       5.143   2.811  20.714  0.00  0.00    +0.000 HD
ATOM     24  H   UNL     1       5.555   1.245  20.102  0.00  0.00    +0.000 HD
ENDBRANCH  19  20
BRANCH  18  25
ATOM     25  S   UNL     1       2.162   5.615  18.069  0.00  0.00    +0.000 S 
ATOM     26  C   UNL     1       2.968   6.738  19.230  0.00  0.00    +0.000 C 
ENDBRANCH  18  25
BRANCH  19  27
ATOM     27  C   UNL     1       2.032   3.354  20.030  0.00  0.00    +0.000 C 
ATOM     28  N   UNL     1       1.155   3.352  20.791  0.00  0.00    +0.000 NA
ENDBRANCH  19  27
ENDBRANCH  16  18
ENDBRANCH   1  16
TORSDOF 11
ENDMDL
MODEL 4
REMARK VINA RESULT:      -6.1      2.371      4.422
REMARK  Name = 
REMARK  14 active torsions:
REMARK  status: ('A' for Active; 'I' for Inactive)
REMARK    1  A    between atoms: C_1  and  C_2
REMARK    2  A    between atoms: C_2  and  O_3
REMARK    3  A    between atoms: O_3  and  P_4
REMARK    4  A    between atoms: P_4  and  O_6
REMARK    5  A    between atoms: P_4  and  C_9
REMARK    6  A    between atoms: O_6  and  C_7
REMARK    7  A    between atoms: C_7  and  C_8
REMARK    8  A    between atoms: C_9  and  N_10
REMARK    9  A    between atoms: C_9  and  C_20
REMARK   10  A    between atoms: N_10  and  C_11
REMARK   11  A    between atoms: C_11  and  S_12
REMARK   12  A    between atoms: S_12  and  C_13
REMARK   13  A    between atoms: C_14  and  C_15
REMARK   14  A    between atoms: C_14  and  C_17
REMARK                            x       y       z     vdW  Elec       q    Type
REMARK                         _______ _______ _______ _____ _____    ______ ____
ROOT
ATOM      1  C   UNL     1       5.250   5.256  16.565  0.00  0.00    +0.000 C 
ENDROOT
BRANCH   1   2
ATOM      2  C   UNL     1       6.431   5.990  17.223  0.00  0.00    +0.000 A 
ATOM      3  C   UNL     1       6.720   7.323  16.889  0.00  0.00    +0.000 A 
ATOM      4  C   UNL     1       7.640   8.065  17.638  0.00  0.00    +0.000 A 
ATOM      5  C   UNL     1       8.316   7.483  18.707  0.00  0.00    +0.000 A 
ATOM      6  C   UNL     1       8.072   6.155  19.032  0.00  0.00    +0.000 A 
ATOM      7  C   UNL     1       7.129   5.425  18.306  0.00  0.00    +0.000 A 
ENDBRANCH   1   2
BRANCH   1   8
ATOM      8  P   UNL     1       5.541   4.347  15.003  0.00  0.00    +0.000 P 
ATOM      9  O   UNL     1       6.326   3.281  15.792  0.00  0.00    +0.000 OA
BRANCH   8  10
ATOM     10  O   UNL     1       5.816   3.488  13.527  0.00  0.00    +0.000 OA
BRANCH  10  12
ATOM     11  C   UNL     1       5.013   2.670  11.420  0.00  0.00    +0.000 C 
ATOM     12  C   UNL     1       4.838   3.702  12.514  0.00  0.00    +0.000 C 
ENDBRANCH  10  12
ENDBRANCH   8  10
BRANCH   8  13
ATOM     13  O   UNL     1       6.639   5.488  14.480  0.00  0.00    +0.000 OA
BRANCH  13  14
ATOM     14  C   UNL     1       7.885   5.043  13.955  0.00  0.00    +0.000 C 
ATOM     15  C   UNL     1       8.127   5.728  12.623  0.00  0.00    +0.000 C 
ENDBRANCH  13  14
ENDBRANCH   8  13
ENDBRANCH   1   8
BRANCH   1  16
ATOM     16  N   UNL     1       4.716   4.389  17.636  0.00  0.00    +0.000 N 
ATOM     17  H   UNL     1       5.342   3.604  17.848  0.00  0.00    +0.000 HD
BRANCH  16  18
ATOM     18  C   UNL     1       3.458   4.293  18.219  0.00  0.00    +0.000 C 
ATOM     19  C   UNL     1       3.080   3.193  18.932  0.00  0.00    +0.000 C 
BRANCH  19  20
ATOM     20  C   UNL     1       4.044   2.052  19.139  0.00  0.00    +0.000 C 
ATOM     21  N   UNL     1       3.839   0.911  18.412  0.00  0.00    +0.000 N 
ATOM     22  O   UNL     1       4.995   2.092  19.917  0.00  0.00    +0.000 OA
ATOM     23  H   UNL     1       3.130   0.791  17.701  0.00  0.00    +0.000 HD
ATOM     24  H   UNL     1       4.511   0.162  18.532  0.00  0.00    +0.000 HD
ENDBRANCH  19  20
BRANCH  18  25
ATOM     25  S   UNL     1       2.252   5.588  18.008  0.00  0.00    +0.000 S 
ATOM     26  C   UNL     1       2.719   6.728  19.328  0.00  0.00    +0.000 C 
ENDBRANCH  18  25
BRANCH  19  27
ATOM     27  C   UNL     1       1.789   3.049  19.529  0.00  0.00    +0.000 C 
ATOM     28  N   UNL     1       0.780   2.926  20.090  0.00  0.00    +0.000 NA
ENDBRANCH  19  27
ENDBRANCH  16  18
ENDBRANCH   1  16
TORSDOF 11
ENDMDL
MODEL 5
REMARK VINA RESULT:      -6.1      2.715      6.427
REMARK  Name = 
REMARK  14 active torsions:
REMARK  status: ('A' for Active; 'I' for Inactive)
REMARK    1  A    between atoms: C_1  and  C_2
REMARK    2  A    between atoms: C_2  and  O_3
REMARK    3  A    between atoms: O_3  and  P_4
REMARK    4  A    between atoms: P_4  and  O_6
REMARK    5  A    between atoms: P_4  and  C_9
REMARK    6  A    between atoms: O_6  and  C_7
REMARK    7  A    between atoms: C_7  and  C_8
REMARK    8  A    between atoms: C_9  and  N_10
REMARK    9  A    between atoms: C_9  and  C_20
REMARK   10  A    between atoms: N_10  and  C_11
REMARK   11  A    between atoms: C_11  and  S_12
REMARK   12  A    between atoms: S_12  and  C_13
REMARK   13  A    between atoms: C_14  and  C_15
REMARK   14  A    between atoms: C_14  and  C_17
REMARK                            x       y       z     vdW  Elec       q    Type
REMARK                         _______ _______ _______ _____ _____    ______ ____
ROOT
ATOM      1  C   UNL     1       4.321   5.684  18.600  0.00  0.00    +0.000 C 
ENDROOT
BRANCH   1   2
ATOM      2  C   UNL     1       3.216   6.753  18.657  0.00  0.00    +0.000 A 
ATOM      3  C   UNL     1       2.450   6.928  19.821  0.00  0.00    +0.000 A 
ATOM      4  C   UNL     1       1.606   8.035  19.963  0.00  0.00    +0.000 A 
ATOM      5  C   UNL     1       1.482   8.967  18.935  0.00  0.00    +0.000 A 
ATOM      6  C   UNL     1       2.203   8.793  17.761  0.00  0.00    +0.000 A 
ATOM      7  C   UNL     1       3.070   7.707  17.633  0.00  0.00    +0.000 A 
ENDBRANCH   1   2
BRANCH   1   8
ATOM      8  P   UNL     1       3.988   4.038  19.327  0.00  0.00    +0.000 P 
ATOM      9  O   UNL     1       5.503   3.845  19.536  0.00  0.00    +0.000 OA
BRANCH   8  10
ATOM     10  O   UNL     1       3.674   2.482  20.015  0.00  0.00    +0.000 OA
BRANCH  10  12
ATOM     11  C   UNL     1       2.003   3.591  21.331  0.00  0.00    +0.000 C 
ATOM     12  C   UNL     1       3.058   2.505  21.299  0.00  0.00    +0.000 C 
ENDBRANCH  10  12
ENDBRANCH   8  10
BRANCH   8  13
ATOM     13  O   UNL     1       3.606   3.395  17.837  0.00  0.00    +0.000 OA
BRANCH  13  14
ATOM     14  C   UNL     1       2.318   2.818  17.654  0.00  0.00    +0.000 C 
ATOM     15  C   UNL     1       1.278   3.921  17.684  0.00  0.00    +0.000 C 
ENDBRANCH  13  14
ENDBRANCH   8  13
ENDBRANCH   1   8
BRANCH   1  16
ATOM     16  N   UNL     1       4.684   5.611  17.169  0.00  0.00    +0.000 N 
ATOM     17  H   UNL     1       4.022   5.041  16.630  0.00  0.00    +0.000 HD
BRANCH  16  18
ATOM     18  C   UNL     1       5.846   5.944  16.482  0.00  0.00    +0.000 C 
ATOM     19  C   UNL     1       6.286   5.212  15.418  0.00  0.00    +0.000 C 
BRANCH  19  20
ATOM     20  C   UNL     1       5.493   4.026  14.931  0.00  0.00    +0.000 C 
ATOM     21  N   UNL     1       5.582   2.867  15.652  0.00  0.00    +0.000 N 
ATOM     22  O   UNL     1       4.777   4.045  13.931  0.00  0.00    +0.000 OA
ATOM     23  H   UNL     1       6.088   2.757  16.521  0.00  0.00    +0.000 HD
ATOM     24  H   UNL     1       5.020   2.084  15.337  0.00  0.00    +0.000 HD
ENDBRANCH  19  20
BRANCH  18  25
ATOM     25  S   UNL     1       6.851   7.320  17.004  0.00  0.00    +0.000 S 
ATOM     26  C   UNL     1       7.782   6.586  18.365  0.00  0.00    +0.000 C 
ENDBRANCH  18  25
BRANCH  19  27
ATOM     27  C   UNL     1       7.484   5.513  14.700  0.00  0.00    +0.000 C 
ATOM     28  N   UNL     1       8.492   5.686  14.150  0.00  0.00    +0.000 NA
ENDBRANCH  19  27
ENDBRANCH  16  18
ENDBRANCH   1  16
TORSDOF 11
ENDMDL
MODEL 6
REMARK VINA RESULT:      -6.1      0.443      1.053
REMARK  Name = 
REMARK  14 active torsions:
REMARK  status: ('A' for Active; 'I' for Inactive)
REMARK    1  A    between atoms: C_1  and  C_2
REMARK    2  A    between atoms: C_2  and  O_3
REMARK    3  A    between atoms: O_3  and  P_4
REMARK    4  A    between atoms: P_4  and  O_6
REMARK    5  A    between atoms: P_4  and  C_9
REMARK    6  A    between atoms: O_6  and  C_7
REMARK    7  A    between atoms: C_7  and  C_8
REMARK    8  A    between atoms: C_9  and  N_10
REMARK    9  A    between atoms: C_9  and  C_20
REMARK   10  A    between atoms: N_10  and  C_11
REMARK   11  A    between atoms: C_11  and  S_12
REMARK   12  A    between atoms: S_12  and  C_13
REMARK   13  A    between atoms: C_14  and  C_15
REMARK   14  A    between atoms: C_14  and  C_17
REMARK                            x       y       z     vdW  Elec       q    Type
REMARK                         _______ _______ _______ _____ _____    ______ ____
ROOT
ATOM      1  C   UNL     1       4.736   5.266  17.857  0.00  0.00    +0.000 C 
ENDROOT
BRANCH   1   2
ATOM      2  C   UNL     1       4.353   3.818  18.210  0.00  0.00    +0.000 A 
ATOM      3  C   UNL     1       4.733   3.258  19.441  0.00  0.00    +0.000 A 
ATOM      4  C   UNL     1       4.204   2.034  19.865  0.00  0.00    +0.000 A 
ATOM      5  C   UNL     1       3.317   1.329  19.055  0.00  0.00    +0.000 A 
ATOM      6  C   UNL     1       2.956   1.847  17.818  0.00  0.00    +0.000 A 
ATOM      7  C   UNL     1       3.458   3.084  17.410  0.00  0.00    +0.000 A 
ENDBRANCH   1   2
BRANCH   1   8
ATOM      8  P   UNL     1       5.803   5.562  16.401  0.00  0.00    +0.000 P 
ATOM      9  O   UNL     1       6.818   4.547  16.963  0.00  0.00    +0.000 OA
BRANCH   8  10
ATOM     10  O   UNL     1       6.812   5.841  15.024  0.00  0.00    +0.000 OA
BRANCH  10  12
ATOM     11  C   UNL     1       5.484   4.109  14.030  0.00  0.00    +0.000 C 
ATOM     12  C   UNL     1       6.840   4.781  14.073  0.00  0.00    +0.000 C 
ENDBRANCH  10  12
ENDBRANCH   8  10
BRANCH   8  13
ATOM     13  O   UNL     1       6.245   7.069  16.961  0.00  0.00    +0.000 OA
BRANCH  13  14
ATOM     14  C   UNL     1       7.459   7.195  17.691  0.00  0.00    +0.000 C 
ATOM     15  C   UNL     1       7.892   8.649  17.673  0.00  0.00    +0.000 C 
ENDBRANCH  13  14
ENDBRANCH   8  13
ENDBRANCH   1   8
BRANCH   1  16
ATOM     16  N   UNL     1       3.441   5.974  17.767  0.00  0.00    +0.000 N 
ATOM     17  H   UNL     1       2.948   5.768  16.891  0.00  0.00    +0.000 HD
BRANCH  16  18
ATOM     18  C   UNL     1       2.897   7.022  18.500  0.00  0.00    +0.000 C 
ATOM     19  C   UNL     1       2.193   6.806  19.648  0.00  0.00    +0.000 C 
BRANCH  19  20
ATOM     20  C   UNL     1       2.014   5.406  20.178  0.00  0.00    +0.000 C 
ATOM     21  N   UNL     1       2.608   5.102  21.373  0.00  0.00    +0.000 N 
ATOM     22  O   UNL     1       1.369   4.532  19.600  0.00  0.00    +0.000 OA
ATOM     23  H   UNL     1       3.106   5.756  21.961  0.00  0.00    +0.000 HD
ATOM     24  H   UNL     1       2.454   4.168  21.737  0.00  0.00    +0.000 HD
ENDBRANCH  19  20
BRANCH  18  25
ATOM     25  S   UNL     1       3.047   8.705  17.933  0.00  0.00    +0.000 S 
ATOM     26  C   UNL     1       1.332   9.100  17.530  0.00  0.00    +0.000 C 
ENDBRANCH  18  25
BRANCH  19  27
ATOM     27  C   UNL     1       1.603   7.857  20.417  0.00  0.00    +0.000 C 
ATOM     28  N   UNL     1       1.194   8.756  21.026  0.00  0.00    +0.000 NA
ENDBRANCH  19  27
ENDBRANCH  16  18
ENDBRANCH   1  16
TORSDOF 11
ENDMDL
MODEL 7
REMARK VINA RESULT:      -6.0      2.803      5.952
REMARK  Name = 
REMARK  14 active torsions:
REMARK  status: ('A' for Active; 'I' for Inactive)
REMARK    1  A    between atoms: C_1  and  C_2
REMARK    2  A    between atoms: C_2  and  O_3
REMARK    3  A    between atoms: O_3  and  P_4
REMARK    4  A    between atoms: P_4  and  O_6
REMARK    5  A    between atoms: P_4  and  C_9
REMARK    6  A    between atoms: O_6  and  C_7
REMARK    7  A    between atoms: C_7  and  C_8
REMARK    8  A    between atoms: C_9  and  N_10
REMARK    9  A    between atoms: C_9  and  C_20
REMARK   10  A    between atoms: N_10  and  C_11
REMARK   11  A    between atoms: C_11  and  S_12
REMARK   12  A    between atoms: S_12  and  C_13
REMARK   13  A    between atoms: C_14  and  C_15
REMARK   14  A    between atoms: C_14  and  C_17
REMARK                            x       y       z     vdW  Elec       q    Type
REMARK                         _______ _______ _______ _____ _____    ______ ____
ROOT
ATOM      1  C   UNL     1       2.347   6.139  19.334  0.00  0.00    +0.000 C 
ENDROOT
BRANCH   1   2
ATOM      2  C   UNL     1       1.885   4.835  20.009  0.00  0.00    +0.000 A 
ATOM      3  C   UNL     1       1.117   3.896  19.301  0.00  0.00    +0.000 A 
ATOM      4  C   UNL     1       0.886   2.620  19.824  0.00  0.00    +0.000 A 
ATOM      5  C   UNL     1       1.384   2.268  21.077  0.00  0.00    +0.000 A 
ATOM      6  C   UNL     1       2.115   3.193  21.809  0.00  0.00    +0.000 A 
ATOM      7  C   UNL     1       2.374   4.455  21.273  0.00  0.00    +0.000 A 
ENDBRANCH   1   2
BRANCH   1   8
ATOM      8  P   UNL     1       2.002   7.730  20.170  0.00  0.00    +0.000 P 
ATOM      9  O   UNL     1       0.724   7.114  20.773  0.00  0.00    +0.000 OA
BRANCH   8  10
ATOM     10  O   UNL     1       1.675   9.234  20.960  0.00  0.00    +0.000 OA
BRANCH  10  12
ATOM     11  C   UNL     1      -0.025  10.040  22.447  0.00  0.00    +0.000 C 
ATOM     12  C   UNL     1       1.166   9.120  22.285  0.00  0.00    +0.000 C 
ENDBRANCH  10  12
ENDBRANCH   8  10
BRANCH   8  13
ATOM     13  O   UNL     1       1.572   8.456  18.731  0.00  0.00    +0.000 OA
BRANCH  13  14
ATOM     14  C   UNL     1       1.242   9.840  18.739  0.00  0.00    +0.000 C 
ATOM     15  C   UNL     1      -0.148  10.016  18.158  0.00  0.00    +0.000 C 
ENDBRANCH  13  14
ENDBRANCH   8  13
ENDBRANCH   1   8
BRANCH   1  16
ATOM     16  N   UNL     1       3.788   5.929  19.082  0.00  0.00    +0.000 N 
ATOM     17  H   UNL     1       4.365   6.199  19.887  0.00  0.00    +0.000 HD
BRANCH  16  18
ATOM     18  C   UNL     1       4.506   5.682  17.918  0.00  0.00    +0.000 C 
ATOM     19  C   UNL     1       4.965   4.435  17.608  0.00  0.00    +0.000 C 
BRANCH  19  20
ATOM     20  C   UNL     1       4.671   3.269  18.518  0.00  0.00    +0.000 C 
ATOM     21  N   UNL     1       3.967   2.220  17.992  0.00  0.00    +0.000 N 
ATOM     22  O   UNL     1       5.025   3.212  19.694  0.00  0.00    +0.000 OA
ATOM     23  H   UNL     1       3.681   2.133  17.026  0.00  0.00    +0.000 HD
ATOM     24  H   UNL     1       3.803   1.426  18.601  0.00  0.00    +0.000 HD
ENDBRANCH  19  20
BRANCH  18  25
ATOM     25  S   UNL     1       4.913   7.008  16.798  0.00  0.00    +0.000 S 
ATOM     26  C   UNL     1       6.612   7.378  17.285  0.00  0.00    +0.000 C 
ENDBRANCH  18  25
BRANCH  19  27
ATOM     27  C   UNL     1       5.723   4.147  16.431  0.00  0.00    +0.000 C 
ATOM     28  N   UNL     1       6.283   3.850  15.459  0.00  0.00    +0.000 NA
ENDBRANCH  19  27
ENDBRANCH  16  18
ENDBRANCH   1  16
TORSDOF 11
ENDMDL
MODEL 8
REMARK VINA RESULT:      -6.0      2.759      5.592
REMARK  Name = 
REMARK  14 active torsions:
REMARK  status: ('A' for Active; 'I' for Inactive)
REMARK    1  A    between atoms: C_1  and  C_2
REMARK    2  A    between atoms: C_2  and  O_3
REMARK    3  A    between atoms: O_3  and  P_4
REMARK    4  A    between atoms: P_4  and  O_6
REMARK    5  A    between atoms: P_4  and  C_9
REMARK    6  A    between atoms: O_6  and  C_7
REMARK    7  A    between atoms: C_7  and  C_8
REMARK    8  A    between atoms: C_9  and  N_10
REMARK    9  A    between atoms: C_9  and  C_20
REMARK   10  A    between atoms: N_10  and  C_11
REMARK   11  A    between atoms: C_11  and  S_12
REMARK   12  A    between atoms: S_12  and  C_13
REMARK   13  A    between atoms: C_14  and  C_15
REMARK   14  A    between atoms: C_14  and  C_17
REMARK                            x       y       z     vdW  Elec       q    Type
REMARK                         _______ _______ _______ _____ _____    ______ ____
ROOT
ATOM      1  C   UNL     1       2.593   6.245  18.236  0.00  0.00    +0.000 C 
ENDROOT
BRANCH   1   2
ATOM      2  C   UNL     1       1.961   5.080  19.018  0.00  0.00    +0.000 A 
ATOM      3  C   UNL     1       1.354   4.011  18.340  0.00  0.00    +0.000 A 
ATOM      4  C   UNL     1       0.981   2.848  19.024  0.00  0.00    +0.000 A 
ATOM      5  C   UNL     1       1.172   2.745  20.400  0.00  0.00    +0.000 A 
ATOM      6  C   UNL     1       1.737   3.806  21.096  0.00  0.00    +0.000 A 
ATOM      7  C   UNL     1       2.140   4.952  20.408  0.00  0.00    +0.000 A 
ENDBRANCH   1   2
BRANCH   1   8
ATOM      8  P   UNL     1       1.887   7.922  18.437  0.00  0.00    +0.000 P 
ATOM      9  O   UNL     1       3.175   8.515  17.834  0.00  0.00    +0.000 OA
BRANCH   8  10
ATOM     10  O   UNL     1       1.221   9.507  18.628  0.00  0.00    +0.000 OA
BRANCH  10  12
ATOM     11  C   UNL     1       1.720  11.853  18.669  0.00  0.00    +0.000 C 
ATOM     12  C   UNL     1       1.918  10.540  17.939  0.00  0.00    +0.000 C 
ENDBRANCH  10  12
ENDBRANCH   8  10
BRANCH   8  13
ATOM     13  O   UNL     1       2.091   7.869  20.092  0.00  0.00    +0.000 OA
BRANCH  13  14
ATOM     14  C   UNL     1       1.335   8.763  20.900  0.00  0.00    +0.000 C 
ATOM     15  C   UNL     1       0.154   8.014  21.486  0.00  0.00    +0.000 C 
ENDBRANCH  13  14
ENDBRANCH   8  13
ENDBRANCH   1   8
BRANCH   1  16
ATOM     16  N   UNL     1       4.027   6.185  18.588  0.00  0.00    +0.000 N 
ATOM     17  H   UNL     1       4.217   6.594  19.510  0.00  0.00    +0.000 HD
BRANCH  16  18
ATOM     18  C   UNL     1       5.163   5.919  17.832  0.00  0.00    +0.000 C 
ATOM     19  C   UNL     1       5.709   4.670  17.773  0.00  0.00    +0.000 C 
BRANCH  19  20
ATOM     20  C   UNL     1       5.064   3.523  18.507  0.00  0.00    +0.000 C 
ATOM     21  N   UNL     1       4.419   2.575  17.759  0.00  0.00    +0.000 N 
ATOM     22  O   UNL     1       5.086   3.393  19.731  0.00  0.00    +0.000 OA
ATOM     23  H   UNL     1       4.393   2.548  16.749  0.00  0.00    +0.000 HD
ATOM     24  H   UNL     1       4.017   1.790  18.259  0.00  0.00    +0.000 HD
ENDBRANCH  19  20
BRANCH  18  25
ATOM     25  S   UNL     1       5.997   7.223  16.949  0.00  0.00    +0.000 S 
ATOM     26  C   UNL     1       7.497   7.419  17.936  0.00  0.00    +0.000 C 
ENDBRANCH  18  25
BRANCH  19  27
ATOM     27  C   UNL     1       6.886   4.363  17.023  0.00  0.00    +0.000 C 
ATOM     28  N   UNL     1       7.847   4.196  16.394  0.00  0.00    +0.000 NA
ENDBRANCH  19  27
ENDBRANCH  16  18
ENDBRANCH   1  16
TORSDOF 11
ENDMDL
MODEL 9
REMARK VINA RESULT:      -5.8      2.784      6.439
REMARK  Name = 
REMARK  14 active torsions:
REMARK  status: ('A' for Active; 'I' for Inactive)
REMARK    1  A    between atoms: C_1  and  C_2
REMARK    2  A    between atoms: C_2  and  O_3
REMARK    3  A    between atoms: O_3  and  P_4
REMARK    4  A    between atoms: P_4  and  O_6
REMARK    5  A    between atoms: P_4  and  C_9
REMARK    6  A    between atoms: O_6  and  C_7
REMARK    7  A    between atoms: C_7  and  C_8
REMARK    8  A    between atoms: C_9  and  N_10
REMARK    9  A    between atoms: C_9  and  C_20
REMARK   10  A    between atoms: N_10  and  C_11
REMARK   11  A    between atoms: C_11  and  S_12
REMARK   12  A    between atoms: S_12  and  C_13
REMARK   13  A    between atoms: C_14  and  C_15
REMARK   14  A    between atoms: C_14  and  C_17
REMARK                            x       y       z     vdW  Elec       q    Type
REMARK                         _______ _______ _______ _____ _____    ______ ____
ROOT
ATOM      1  C   UNL     1       4.514   5.488  18.665  0.00  0.00    +0.000 C 
ENDROOT
BRANCH   1   2
ATOM      2  C   UNL     1       3.569   6.699  18.755  0.00  0.00    +0.000 A 
ATOM      3  C   UNL     1       3.388   7.548  17.652  0.00  0.00    +0.000 A 
ATOM      4  C   UNL     1       2.372   8.510  17.646  0.00  0.00    +0.000 A 
ATOM      5  C   UNL     1       1.541   8.667  18.753  0.00  0.00    +0.000 A 
ATOM      6  C   UNL     1       1.726   7.862  19.869  0.00  0.00    +0.000 A 
ATOM      7  C   UNL     1       2.718   6.880  19.861  0.00  0.00    +0.000 A 
ENDBRANCH   1   2
BRANCH   1   8
ATOM      8  P   UNL     1       3.964   3.891  19.371  0.00  0.00    +0.000 P 
ATOM      9  O   UNL     1       5.438   3.515  19.618  0.00  0.00    +0.000 OA
BRANCH   8  10
ATOM     10  O   UNL     1       3.445   2.382  20.039  0.00  0.00    +0.000 OA
BRANCH  10  12
ATOM     11  C   UNL     1       1.724   3.444  21.329  0.00  0.00    +0.000 C 
ATOM     12  C   UNL     1       2.879   2.464  21.343  0.00  0.00    +0.000 C 
ENDBRANCH  10  12
ENDBRANCH   8  10
BRANCH   8  13
ATOM     13  O   UNL     1       3.548   3.306  17.866  0.00  0.00    +0.000 OA
BRANCH  13  14
ATOM     14  C   UNL     1       2.203   2.899  17.642  0.00  0.00    +0.000 C 
ATOM     15  C   UNL     1       1.305   4.119  17.704  0.00  0.00    +0.000 C 
ENDBRANCH  13  14
ENDBRANCH   8  13
ENDBRANCH   1   8
BRANCH   1  16
ATOM     16  N   UNL     1       4.846   5.390  17.228  0.00  0.00    +0.000 N 
ATOM     17  H   UNL     1       4.204   4.768  16.723  0.00  0.00    +0.000 HD
BRANCH  16  18
ATOM     18  C   UNL     1       5.970   5.766  16.502  0.00  0.00    +0.000 C 
ATOM     19  C   UNL     1       6.373   5.076  15.395  0.00  0.00    +0.000 C 
BRANCH  19  20
ATOM     20  C   UNL     1       5.578   3.893  14.905  0.00  0.00    +0.000 C 
ATOM     21  N   UNL     1       5.186   3.894  13.594  0.00  0.00    +0.000 N 
ATOM     22  O   UNL     1       5.266   2.937  15.613  0.00  0.00    +0.000 OA
ATOM     23  H   UNL     1       5.438   4.594  12.909  0.00  0.00    +0.000 HD
ATOM     24  H   UNL     1       4.680   3.079  13.265  0.00  0.00    +0.000 HD
ENDBRANCH  19  20
BRANCH  18  25
ATOM     25  S   UNL     1       6.976   7.141  17.024  0.00  0.00    +0.000 S 
ATOM     26  C   UNL     1       7.803   6.449  18.471  0.00  0.00    +0.000 C 
ENDBRANCH  18  25
BRANCH  19  27
ATOM     27  C   UNL     1       7.533   5.421  14.635  0.00  0.00    +0.000 C 
ATOM     28  N   UNL     1       8.423   5.733  13.958  0.00  0.00    +0.000 NA
ENDBRANCH  19  27
ENDBRANCH  16  18
ENDBRANCH   1  16
TORSDOF 11
ENDMDL
