MODEL 1
REMARK VINA RESULT:      -8.1      0.000      0.000
REMARK  Name = 
REMARK  2 active torsions:
REMARK  status: ('A' for Active; 'I' for Inactive)
REMARK    1  A    between atoms: C_2  and  C_9
REMARK    2  A    between atoms: C_13  and  C_14
REMARK                            x       y       z     vdW  Elec       q    Type
REMARK                         _______ _______ _______ _____ _____    ______ ____
ROOT
ATOM      1  C   UNL     1       3.296   6.266  19.178  0.00  0.00    +0.000 A 
ATOM      2  C   UNL     1       3.319   6.438  17.807  0.00  0.00    +0.000 A 
ATOM      3  N   UNL     1       4.445   5.808  17.363  0.00  0.00    +0.000 N 
ATOM      4  C   UNL     1       4.898   5.638  16.058  0.00  0.00    +0.000 A 
ATOM      5  C   UNL     1       6.015   4.911  15.819  0.00  0.00    +0.000 A 
ATOM      6  C   UNL     1       6.711   4.365  16.998  0.00  0.00    +0.000 A 
ATOM      7  C   UNL     1       6.273   4.555  18.258  0.00  0.00    +0.000 A 
ATOM      8  C   UNL     1       5.085   5.300  18.489  0.00  0.00    +0.000 A 
ATOM      9  N   UNL     1       4.435   5.596  19.600  0.00  0.00    +0.000 NA
ENDROOT
BRANCH   1  11
ATOM     10  O   UNL     1       1.596   5.863  20.726  0.00  0.00    +0.000 OA
ATOM     11  C   UNL     1       2.197   6.691  20.052  0.00  0.00    +0.000 C 
ATOM     12  N   UNL     1       1.933   8.040  19.983  0.00  0.00    +0.000 N 
ATOM     13  C   UNL     1       1.000   8.660  20.796  0.00  0.00    +0.000 A 
ATOM     14  C   UNL     1       0.495   9.969  20.603  0.00  0.00    +0.000 A 
ATOM     15  C   UNL     1      -0.401  10.150  21.625  0.00  0.00    +0.000 A 
ATOM     16  O   UNL     1      -0.414   9.047  22.407  0.00  0.00    +0.000 OA
ATOM     17  N   UNL     1       0.457   8.115  21.890  0.00  0.00    +0.000 NA
ATOM     18  H   UNL     1       2.413   8.576  19.272  0.00  0.00    +0.000 HD
ENDBRANCH   1  11
BRANCH   5  19
ATOM     19  C   UNL     1       6.493   4.729  14.424  0.00  0.00    +0.000 A 
ATOM     20  C   UNL     1       5.887   3.802  13.574  0.00  0.00    +0.000 A 
ATOM     21  C   UNL     1       6.409   3.609  12.298  0.00  0.00    +0.000 A 
ATOM     22  C   UNL     1       7.509   4.351  11.894  0.00  0.00    +0.000 A 
ATOM     23  C   UNL     1       8.034   5.274  12.783  0.00  0.00    +0.000 A 
ATOM     24  N   UNL     1       7.550   5.480  14.031  0.00  0.00    +0.000 NA
ENDBRANCH   5  19
TORSDOF 2
ENDMDL
MODEL 2
REMARK VINA RESULT:      -7.7      1.249      1.299
REMARK  Name = 
REMARK  2 active torsions:
REMARK  status: ('A' for Active; 'I' for Inactive)
REMARK    1  A    between atoms: C_2  and  C_9
REMARK    2  A    between atoms: C_13  and  C_14
REMARK                            x       y       z     vdW  Elec       q    Type
REMARK                         _______ _______ _______ _____ _____    ______ ____
ROOT
ATOM      1  C   UNL     1       2.847   6.979  19.004  0.00  0.00    +0.000 A 
ATOM      2  C   UNL     1       3.404   7.357  17.797  0.00  0.00    +0.000 A 
ATOM      3  N   UNL     1       4.093   6.272  17.339  0.00  0.00    +0.000 N 
ATOM      4  C   UNL     1       4.782   6.111  16.141  0.00  0.00    +0.000 A 
ATOM      5  C   UNL     1       5.345   4.918  15.838  0.00  0.00    +0.000 A 
ATOM      6  C   UNL     1       5.212   3.852  16.847  0.00  0.00    +0.000 A 
ATOM      7  C   UNL     1       4.560   4.026  18.013  0.00  0.00    +0.000 A 
ATOM      8  C   UNL     1       3.954   5.279  18.304  0.00  0.00    +0.000 A 
ATOM      9  N   UNL     1       3.241   5.692  19.336  0.00  0.00    +0.000 NA
ENDROOT
BRANCH   1  11
ATOM     10  O   UNL     1       1.604   7.459  20.921  0.00  0.00    +0.000 OA
ATOM     11  C   UNL     1       1.930   7.809  19.793  0.00  0.00    +0.000 C 
ATOM     12  N   UNL     1       1.491   8.929  19.124  0.00  0.00    +0.000 N 
ATOM     13  C   UNL     1       0.697   9.893  19.721  0.00  0.00    +0.000 A 
ATOM     14  C   UNL     1       0.003  10.917  19.032  0.00  0.00    +0.000 A 
ATOM     15  C   UNL     1      -0.654  11.612  20.015  0.00  0.00    +0.000 A 
ATOM     16  O   UNL     1      -0.353  11.076  21.219  0.00  0.00    +0.000 OA
ATOM     17  N   UNL     1       0.488  10.001  21.038  0.00  0.00    +0.000 NA
ATOM     18  H   UNL     1       1.728   9.013  18.144  0.00  0.00    +0.000 HD
ENDBRANCH   1  11
BRANCH   5  19
ATOM     19  C   UNL     1       6.076   4.751  14.556  0.00  0.00    +0.000 A 
ATOM     20  C   UNL     1       5.628   3.852  13.587  0.00  0.00    +0.000 A 
ATOM     21  C   UNL     1       6.380   3.670  12.429  0.00  0.00    +0.000 A 
ATOM     22  C   UNL     1       7.549   4.396  12.257  0.00  0.00    +0.000 A 
ATOM     23  C   UNL     1       7.911   5.292  13.249  0.00  0.00    +0.000 A 
ATOM     24  N   UNL     1       7.202   5.486  14.386  0.00  0.00    +0.000 NA
ENDBRANCH   5  19
TORSDOF 2
ENDMDL
MODEL 3
REMARK VINA RESULT:      -7.5      4.029      6.020
REMARK  Name = 
REMARK  2 active torsions:
REMARK  status: ('A' for Active; 'I' for Inactive)
REMARK    1  A    between atoms: C_2  and  C_9
REMARK    2  A    between atoms: C_13  and  C_14
REMARK                            x       y       z     vdW  Elec       q    Type
REMARK                         _______ _______ _______ _____ _____    ______ ____
ROOT
ATOM      1  C   UNL     1       0.431  10.861  20.730  0.00  0.00    +0.000 A 
ATOM      2  C   UNL     1       0.707   9.563  21.116  0.00  0.00    +0.000 A 
ATOM      3  N   UNL     1       1.286   8.960  20.038  0.00  0.00    +0.000 N 
ATOM      4  C   UNL     1       1.803   7.673  19.923  0.00  0.00    +0.000 A 
ATOM      5  C   UNL     1       2.409   7.286  18.777  0.00  0.00    +0.000 A 
ATOM      6  C   UNL     1       2.448   8.276  17.685  0.00  0.00    +0.000 A 
ATOM      7  C   UNL     1       1.924   9.512  17.800  0.00  0.00    +0.000 A 
ATOM      8  C   UNL     1       1.313   9.910  19.020  0.00  0.00    +0.000 A 
ATOM      9  N   UNL     1       0.768  11.052  19.399  0.00  0.00    +0.000 NA
ENDROOT
BRANCH   1  11
ATOM     10  O   UNL     1       0.583  12.880  21.892  0.00  0.00    +0.000 OA
ATOM     11  C   UNL     1      -0.099  11.898  21.623  0.00  0.00    +0.000 C 
ATOM     12  N   UNL     1      -1.356  11.615  22.107  0.00  0.00    +0.000 N 
ATOM     13  C   UNL     1      -2.074  12.506  22.886  0.00  0.00    +0.000 A 
ATOM     14  C   UNL     1      -3.238  12.185  23.625  0.00  0.00    +0.000 A 
ATOM     15  C   UNL     1      -3.588  13.357  24.246  0.00  0.00    +0.000 A 
ATOM     16  O   UNL     1      -2.723  14.331  23.884  0.00  0.00    +0.000 OA
ATOM     17  N   UNL     1      -1.775  13.801  23.038  0.00  0.00    +0.000 NA
ATOM     18  H   UNL     1      -1.737  10.698  21.915  0.00  0.00    +0.000 HD
ENDBRANCH   1  11
BRANCH   5  19
ATOM     19  C   UNL     1       2.963   5.913  18.661  0.00  0.00    +0.000 A 
ATOM     20  C   UNL     1       2.273   4.918  17.966  0.00  0.00    +0.000 A 
ATOM     21  C   UNL     1       2.789   3.624  17.940  0.00  0.00    +0.000 A 
ATOM     22  C   UNL     1       3.984   3.356  18.593  0.00  0.00    +0.000 A 
ATOM     23  C   UNL     1       4.624   4.404  19.234  0.00  0.00    +0.000 A 
ATOM     24  N   UNL     1       4.144   5.669  19.279  0.00  0.00    +0.000 NA
ENDBRANCH   5  19
TORSDOF 2
ENDMDL
MODEL 4
REMARK VINA RESULT:      -7.5      3.090     10.498
REMARK  Name = 
REMARK  2 active torsions:
REMARK  status: ('A' for Active; 'I' for Inactive)
REMARK    1  A    between atoms: C_2  and  C_9
REMARK    2  A    between atoms: C_13  and  C_14
REMARK                            x       y       z     vdW  Elec       q    Type
REMARK                         _______ _______ _______ _____ _____    ______ ____
ROOT
ATOM      1  C   UNL     1       1.469   8.719  19.467  0.00  0.00    +0.000 A 
ATOM      2  C   UNL     1       0.710   9.873  19.431  0.00  0.00    +0.000 A 
ATOM      3  N   UNL     1       0.196  10.030  20.686  0.00  0.00    +0.000 N 
ATOM      4  C   UNL     1      -0.586  11.064  21.191  0.00  0.00    +0.000 A 
ATOM      5  C   UNL     1      -0.937  11.072  22.498  0.00  0.00    +0.000 A 
ATOM      6  C   UNL     1      -0.481   9.929  23.310  0.00  0.00    +0.000 A 
ATOM      7  C   UNL     1       0.258   8.922  22.803  0.00  0.00    +0.000 A 
ATOM      8  C   UNL     1       0.638   8.943  21.434  0.00  0.00    +0.000 A 
ATOM      9  N   UNL     1       1.375   8.117  20.713  0.00  0.00    +0.000 NA
ENDROOT
BRANCH   1  11
ATOM     10  O   UNL     1       2.424   8.911  17.346  0.00  0.00    +0.000 OA
ATOM     11  C   UNL     1       2.294   8.231  18.356  0.00  0.00    +0.000 C 
ATOM     12  N   UNL     1       2.827   6.981  18.578  0.00  0.00    +0.000 N 
ATOM     13  C   UNL     1       3.710   6.380  17.698  0.00  0.00    +0.000 A 
ATOM     14  C   UNL     1       4.085   5.014  17.728  0.00  0.00    +0.000 A 
ATOM     15  C   UNL     1       4.953   4.870  16.675  0.00  0.00    +0.000 A 
ATOM     16  O   UNL     1       5.124   6.067  16.070  0.00  0.00    +0.000 OA
ATOM     17  N   UNL     1       4.347   7.010  16.705  0.00  0.00    +0.000 NA
ATOM     18  H   UNL     1       2.514   6.476  19.397  0.00  0.00    +0.000 HD
ENDBRANCH   1  11
BRANCH   5  19
ATOM     19  C   UNL     1      -1.768  12.180  23.033  0.00  0.00    +0.000 A 
ATOM     20  C   UNL     1      -1.257  13.475  23.135  0.00  0.00    +0.000 A 
ATOM     21  C   UNL     1      -2.042  14.472  23.709  0.00  0.00    +0.000 A 
ATOM     22  C   UNL     1      -3.319  14.161  24.152  0.00  0.00    +0.000 A 
ATOM     23  C   UNL     1      -3.766  12.861  23.987  0.00  0.00    +0.000 A 
ATOM     24  N   UNL     1      -3.025  11.871  23.438  0.00  0.00    +0.000 NA
ENDBRANCH   5  19
TORSDOF 2
ENDMDL
MODEL 5
REMARK VINA RESULT:      -7.4      3.562      5.782
REMARK  Name = 
REMARK  2 active torsions:
REMARK  status: ('A' for Active; 'I' for Inactive)
REMARK    1  A    between atoms: C_2  and  C_9
REMARK    2  A    between atoms: C_13  and  C_14
REMARK                            x       y       z     vdW  Elec       q    Type
REMARK                         _______ _______ _______ _____ _____    ______ ____
ROOT
ATOM      1  C   UNL     1       0.146  10.198  21.106  0.00  0.00    +0.000 A 
ATOM      2  C   UNL     1       0.594   8.919  21.373  0.00  0.00    +0.000 A 
ATOM      3  N   UNL     1       1.234   8.496  20.245  0.00  0.00    +0.000 N 
ATOM      4  C   UNL     1       1.914   7.304  20.015  0.00  0.00    +0.000 A 
ATOM      5  C   UNL     1       2.551   7.103  18.838  0.00  0.00    +0.000 A 
ATOM      6  C   UNL     1       2.446   8.181  17.839  0.00  0.00    +0.000 A 
ATOM      7  C   UNL     1       1.766   9.323  18.065  0.00  0.00    +0.000 A 
ATOM      8  C   UNL     1       1.124   9.527  19.316  0.00  0.00    +0.000 A 
ATOM      9  N   UNL     1       0.438  10.549  19.796  0.00  0.00    +0.000 NA
ENDROOT
BRANCH   1  11
ATOM     10  O   UNL     1      -0.319  10.894  23.285  0.00  0.00    +0.000 OA
ATOM     11  C   UNL     1      -0.504  11.074  22.087  0.00  0.00    +0.000 C 
ATOM     12  N   UNL     1      -1.318  12.027  21.517  0.00  0.00    +0.000 N 
ATOM     13  C   UNL     1      -1.947  13.012  22.259  0.00  0.00    +0.000 A 
ATOM     14  C   UNL     1      -2.988  13.847  21.786  0.00  0.00    +0.000 A 
ATOM     15  C   UNL     1      -3.307  14.644  22.856  0.00  0.00    +0.000 A 
ATOM     16  O   UNL     1      -2.495  14.344  23.894  0.00  0.00    +0.000 OA
ATOM     17  N   UNL     1      -1.648  13.323  23.525  0.00  0.00    +0.000 NA
ATOM     18  H   UNL     1      -1.489  11.963  20.523  0.00  0.00    +0.000 HD
ENDBRANCH   1  11
BRANCH   5  19
ATOM     19  C   UNL     1       3.278   5.830  18.600  0.00  0.00    +0.000 A 
ATOM     20  C   UNL     1       2.751   4.850  17.756  0.00  0.00    +0.000 A 
ATOM     21  C   UNL     1       3.427   3.640  17.614  0.00  0.00    +0.000 A 
ATOM     22  C   UNL     1       4.615   3.442  18.301  0.00  0.00    +0.000 A 
ATOM     23  C   UNL     1       5.089   4.473  19.094  0.00  0.00    +0.000 A 
ATOM     24  N   UNL     1       4.452   5.657  19.254  0.00  0.00    +0.000 NA
ENDBRANCH   5  19
TORSDOF 2
ENDMDL
MODEL 6
REMARK VINA RESULT:      -7.4      3.117     10.434
REMARK  Name = 
REMARK  2 active torsions:
REMARK  status: ('A' for Active; 'I' for Inactive)
REMARK    1  A    between atoms: C_2  and  C_9
REMARK    2  A    between atoms: C_13  and  C_14
REMARK                            x       y       z     vdW  Elec       q    Type
REMARK                         _______ _______ _______ _____ _____    ______ ____
ROOT
ATOM      1  C   UNL     1       1.491   8.743  19.496  0.00  0.00    +0.000 A 
ATOM      2  C   UNL     1       0.793   9.935  19.468  0.00  0.00    +0.000 A 
ATOM      3  N   UNL     1       0.273  10.102  20.719  0.00  0.00    +0.000 N 
ATOM      4  C   UNL     1      -0.461  11.168  21.230  0.00  0.00    +0.000 A 
ATOM      5  C   UNL     1      -0.826  11.176  22.533  0.00  0.00    +0.000 A 
ATOM      6  C   UNL     1      -0.439  10.000  23.334  0.00  0.00    +0.000 A 
ATOM      7  C   UNL     1       0.253   8.964  22.822  0.00  0.00    +0.000 A 
ATOM      8  C   UNL     1       0.650   8.984  21.457  0.00  0.00    +0.000 A 
ATOM      9  N   UNL     1       1.352   8.130  20.733  0.00  0.00    +0.000 NA
ENDROOT
BRANCH   1  11
ATOM     10  O   UNL     1       2.422   8.885  17.360  0.00  0.00    +0.000 OA
ATOM     11  C   UNL     1       2.302   8.228  18.388  0.00  0.00    +0.000 C 
ATOM     12  N   UNL     1       2.836   6.983  18.632  0.00  0.00    +0.000 N 
ATOM     13  C   UNL     1       3.709   6.360  17.757  0.00  0.00    +0.000 A 
ATOM     14  C   UNL     1       4.082   4.995  17.813  0.00  0.00    +0.000 A 
ATOM     15  C   UNL     1       4.938   4.825  16.754  0.00  0.00    +0.000 A 
ATOM     16  O   UNL     1       5.104   6.008  16.120  0.00  0.00    +0.000 OA
ATOM     17  N   UNL     1       4.335   6.966  16.742  0.00  0.00    +0.000 NA
ATOM     18  H   UNL     1       2.532   6.497  19.466  0.00  0.00    +0.000 HD
ENDBRANCH   1  11
BRANCH   5  19
ATOM     19  C   UNL     1      -1.606  12.318  23.075  0.00  0.00    +0.000 A 
ATOM     20  C   UNL     1      -2.998  12.257  23.167  0.00  0.00    +0.000 A 
ATOM     21  C   UNL     1      -3.699  13.375  23.612  0.00  0.00    +0.000 A 
ATOM     22  C   UNL     1      -2.999  14.518  23.969  0.00  0.00    +0.000 A 
ATOM     23  C   UNL     1      -1.618  14.490  23.880  0.00  0.00    +0.000 A 
ATOM     24  N   UNL     1      -0.910  13.420  23.446  0.00  0.00    +0.000 NA
ENDBRANCH   5  19
TORSDOF 2
ENDMDL
MODEL 7
REMARK VINA RESULT:      -7.4      2.761      9.067
REMARK  Name = 
REMARK  2 active torsions:
REMARK  status: ('A' for Active; 'I' for Inactive)
REMARK    1  A    between atoms: C_2  and  C_9
REMARK    2  A    between atoms: C_13  and  C_14
REMARK                            x       y       z     vdW  Elec       q    Type
REMARK                         _______ _______ _______ _____ _____    ______ ____
ROOT
ATOM      1  C   UNL     1       4.144   6.562  17.329  0.00  0.00    +0.000 A 
ATOM      2  C   UNL     1       3.553   7.787  17.573  0.00  0.00    +0.000 A 
ATOM      3  N   UNL     1       2.777   7.622  18.683  0.00  0.00    +0.000 N 
ATOM      4  C   UNL     1       2.021   8.563  19.375  0.00  0.00    +0.000 A 
ATOM      5  C   UNL     1       1.372   8.211  20.508  0.00  0.00    +0.000 A 
ATOM      6  C   UNL     1       1.487   6.801  20.923  0.00  0.00    +0.000 A 
ATOM      7  C   UNL     1       2.204   5.893  20.232  0.00  0.00    +0.000 A 
ATOM      8  C   UNL     1       2.900   6.287  19.057  0.00  0.00    +0.000 A 
ATOM      9  N   UNL     1       3.687   5.616  18.235  0.00  0.00    +0.000 NA
ENDROOT
BRANCH   1  11
ATOM     10  O   UNL     1       6.110   7.066  16.176  0.00  0.00    +0.000 OA
ATOM     11  C   UNL     1       5.148   6.316  16.289  0.00  0.00    +0.000 C 
ATOM     12  N   UNL     1       4.858   5.229  15.494  0.00  0.00    +0.000 N 
ATOM     13  C   UNL     1       5.723   4.768  14.517  0.00  0.00    +0.000 A 
ATOM     14  C   UNL     1       5.383   3.838  13.503  0.00  0.00    +0.000 A 
ATOM     15  C   UNL     1       6.531   3.694  12.766  0.00  0.00    +0.000 A 
ATOM     16  O   UNL     1       7.510   4.451  13.312  0.00  0.00    +0.000 OA
ATOM     17  N   UNL     1       7.007   5.124  14.402  0.00  0.00    +0.000 NA
ATOM     18  H   UNL     1       3.954   4.791  15.611  0.00  0.00    +0.000 HD
ENDBRANCH   1  11
BRANCH   5  19
ATOM     19  C   UNL     1       0.570   9.221  21.245  0.00  0.00    +0.000 A 
ATOM     20  C   UNL     1       0.132   8.977  22.548  0.00  0.00    +0.000 A 
ATOM     21  C   UNL     1      -0.678   9.918  23.180  0.00  0.00    +0.000 A 
ATOM     22  C   UNL     1      -1.020  11.081  22.507  0.00  0.00    +0.000 A 
ATOM     23  C   UNL     1      -0.521  11.264  21.228  0.00  0.00    +0.000 A 
ATOM     24  N   UNL     1       0.264  10.366  20.588  0.00  0.00    +0.000 NA
ENDBRANCH   5  19
TORSDOF 2
ENDMDL
MODEL 8
REMARK VINA RESULT:      -7.4      0.609      1.010
REMARK  Name = 
REMARK  2 active torsions:
REMARK  status: ('A' for Active; 'I' for Inactive)
REMARK    1  A    between atoms: C_2  and  C_9
REMARK    2  A    between atoms: C_13  and  C_14
REMARK                            x       y       z     vdW  Elec       q    Type
REMARK                         _______ _______ _______ _____ _____    ______ ____
ROOT
ATOM      1  C   UNL     1       3.308   6.326  19.120  0.00  0.00    +0.000 A 
ATOM      2  C   UNL     1       3.347   6.472  17.746  0.00  0.00    +0.000 A 
ATOM      3  N   UNL     1       4.460   5.804  17.324  0.00  0.00    +0.000 N 
ATOM      4  C   UNL     1       4.921   5.598  16.028  0.00  0.00    +0.000 A 
ATOM      5  C   UNL     1       6.020   4.837  15.813  0.00  0.00    +0.000 A 
ATOM      6  C   UNL     1       6.690   4.295  17.008  0.00  0.00    +0.000 A 
ATOM      7  C   UNL     1       6.247   4.520  18.260  0.00  0.00    +0.000 A 
ATOM      8  C   UNL     1       5.077   5.301  18.466  0.00  0.00    +0.000 A 
ATOM      9  N   UNL     1       4.424   5.635  19.565  0.00  0.00    +0.000 NA
ENDROOT
BRANCH   1  11
ATOM     10  O   UNL     1       1.622   6.008  20.704  0.00  0.00    +0.000 OA
ATOM     11  C   UNL     1       2.212   6.797  19.975  0.00  0.00    +0.000 C 
ATOM     12  N   UNL     1       1.938   8.138  19.825  0.00  0.00    +0.000 N 
ATOM     13  C   UNL     1       1.007   8.800  20.607  0.00  0.00    +0.000 A 
ATOM     14  C   UNL     1       0.491  10.092  20.337  0.00  0.00    +0.000 A 
ATOM     15  C   UNL     1      -0.398  10.328  21.354  0.00  0.00    +0.000 A 
ATOM     16  O   UNL     1      -0.397   9.275  22.203  0.00  0.00    +0.000 OA
ATOM     17  N   UNL     1       0.476   8.320  21.736  0.00  0.00    +0.000 NA
ATOM     18  H   UNL     1       2.409   8.632  19.079  0.00  0.00    +0.000 HD
ENDBRANCH   1  11
BRANCH   5  19
ATOM     19  C   UNL     1       6.505   4.616  14.426  0.00  0.00    +0.000 A 
ATOM     20  C   UNL     1       7.531   5.398  13.893  0.00  0.00    +0.000 A 
ATOM     21  C   UNL     1       7.910   5.209  12.566  0.00  0.00    +0.000 A 
ATOM     22  C   UNL     1       7.270   4.238  11.809  0.00  0.00    +0.000 A 
ATOM     23  C   UNL     1       6.284   3.481  12.419  0.00  0.00    +0.000 A 
ATOM     24  N   UNL     1       5.893   3.646  13.705  0.00  0.00    +0.000 NA
ENDBRANCH   5  19
TORSDOF 2
ENDMDL
MODEL 9
REMARK VINA RESULT:      -7.4      4.049      6.122
REMARK  Name = 
REMARK  2 active torsions:
REMARK  status: ('A' for Active; 'I' for Inactive)
REMARK    1  A    between atoms: C_2  and  C_9
REMARK    2  A    between atoms: C_13  and  C_14
REMARK                            x       y       z     vdW  Elec       q    Type
REMARK                         _______ _______ _______ _____ _____    ______ ____
ROOT
ATOM      1  C   UNL     1       0.538  10.409  20.797  0.00  0.00    +0.000 A 
ATOM      2  C   UNL     1       0.807   9.195  21.398  0.00  0.00    +0.000 A 
ATOM      3  N   UNL     1       1.378   8.412  20.436  0.00  0.00    +0.000 N 
ATOM      4  C   UNL     1       1.885   7.121  20.542  0.00  0.00    +0.000 A 
ATOM      5  C   UNL     1       2.483   6.539  19.476  0.00  0.00    +0.000 A 
ATOM      6  C   UNL     1       2.522   7.327  18.231  0.00  0.00    +0.000 A 
ATOM      7  C   UNL     1       2.007   8.568  18.135  0.00  0.00    +0.000 A 
ATOM      8  C   UNL     1       1.405   9.174  19.271  0.00  0.00    +0.000 A 
ATOM      9  N   UNL     1       0.869  10.367  19.451  0.00  0.00    +0.000 NA
ENDROOT
BRANCH   1  11
ATOM     10  O   UNL     1       0.698  12.607  21.570  0.00  0.00    +0.000 OA
ATOM     11  C   UNL     1       0.020  11.588  21.501  0.00  0.00    +0.000 C 
ATOM     12  N   UNL     1      -1.222  11.390  22.061  0.00  0.00    +0.000 N 
ATOM     13  C   UNL     1      -1.929  12.403  22.685  0.00  0.00    +0.000 A 
ATOM     14  C   UNL     1      -3.072  12.214  23.501  0.00  0.00    +0.000 A 
ATOM     15  C   UNL     1      -3.419  13.477  23.909  0.00  0.00    +0.000 A 
ATOM     16  O   UNL     1      -2.573  14.374  23.353  0.00  0.00    +0.000 OA
ATOM     17  N   UNL     1      -1.641  13.706  22.592  0.00  0.00    +0.000 NA
ATOM     18  H   UNL     1      -1.597  10.451  22.049  0.00  0.00    +0.000 HD
ENDBRANCH   1  11
BRANCH   5  19
ATOM     19  C   UNL     1       3.027   5.162  19.595  0.00  0.00    +0.000 A 
ATOM     20  C   UNL     1       2.355   4.187  20.334  0.00  0.00    +0.000 A 
ATOM     21  C   UNL     1       2.933   2.928  20.482  0.00  0.00    +0.000 A 
ATOM     22  C   UNL     1       4.155   2.667  19.880  0.00  0.00    +0.000 A 
ATOM     23  C   UNL     1       4.744   3.676  19.138  0.00  0.00    +0.000 A 
ATOM     24  N   UNL     1       4.208   4.909  18.980  0.00  0.00    +0.000 NA
ENDBRANCH   5  19
TORSDOF 2
ENDMDL
