MODEL 1
REMARK VINA RESULT:      -8.3      0.000      0.000
REMARK  Name = 
REMARK  9 active torsions:
REMARK  status: ('A' for Active; 'I' for Inactive)
REMARK    1  A    between atoms: C_2  and  C_3
REMARK    2  A    between atoms: C_3  and  C_4
REMARK    3  A    between atoms: C_4  and  N_5
REMARK    4  A    between atoms: N_5  and  C_6
REMARK    5  A    between atoms: C_6  and  C_7
REMARK    6  A    between atoms: C_7  and  N_8
REMARK    7  A    between atoms: N_8  and  C_18
REMARK    8  A    between atoms: N_11  and  C_12
REMARK    9  A    between atoms: N_26  and  C_27
REMARK                            x       y       z     vdW  Elec       q    Type
REMARK                         _______ _______ _______ _____ _____    ______ ____
ROOT
ATOM      1  C   UNL     1       4.171   6.781  18.578  0.00  0.00    +0.000 C 
ENDROOT
BRANCH   1   2
ATOM      2  N   UNL     1       2.975   6.082  19.150  0.00  0.00    +0.000 N 
ATOM      3  C   UNL     1       1.992   6.636  20.002  0.00  0.00    +0.000 C 
ATOM      4  O   UNL     1       1.272   5.949  20.724  0.00  0.00    +0.000 OA
ATOM      5  N   UNL     1       1.885   8.007  19.990  0.00  0.00    +0.000 N 
ATOM      6  H   UNL     1       2.104   8.458  19.124  0.00  0.00    +0.000 HD
BRANCH   5   7
ATOM      7  C   UNL     1       1.098   8.815  20.845  0.00  0.00    +0.000 A 
ATOM      8  C   UNL     1       1.143   8.757  22.239  0.00  0.00    +0.000 A 
ATOM      9  C   UNL     1       0.282   9.540  23.010  0.00  0.00    +0.000 A 
ATOM     10  C   UNL     1      -0.602  10.420  22.397  0.00  0.00    +0.000 A 
ATOM     11  C   UNL     1      -0.624  10.522  21.009  0.00  0.00    +0.000 A 
ATOM     12  C   UNL     1       0.218   9.720  20.235  0.00  0.00    +0.000 A 
ENDBRANCH   5   7
BRANCH   2  13
ATOM     13  C   UNL     1       2.983   4.616  18.959  0.00  0.00    +0.000 A 
ATOM     14  C   UNL     1       3.785   3.764  19.741  0.00  0.00    +0.000 A 
ATOM     15  C   UNL     1       3.827   2.377  19.533  0.00  0.00    +0.000 A 
ATOM     16  C   UNL     1       3.039   1.793  18.554  0.00  0.00    +0.000 A 
ATOM     17  C   UNL     1       2.199   2.596  17.794  0.00  0.00    +0.000 A 
ATOM     18  C   UNL     1       2.168   3.985  17.998  0.00  0.00    +0.000 A 
ENDBRANCH   2  13
ENDBRANCH   1   2
BRANCH   1  19
ATOM     19  C   UNL     1       4.796   6.431  17.202  0.00  0.00    +0.000 C 
BRANCH  19  20
ATOM     20  N   UNL     1       6.091   5.715  17.273  0.00  0.00    +0.000 N 
ATOM     21  C   UNL     1       6.713   5.096  16.186  0.00  0.00    +0.000 C 
ATOM     22  O   UNL     1       7.674   4.350  16.360  0.00  0.00    +0.000 OA
ATOM     23  N   UNL     1       6.162   5.380  14.960  0.00  0.00    +0.000 N 
ATOM     24  H   UNL     1       5.725   6.282  14.856  0.00  0.00    +0.000 HD
BRANCH  23  25
ATOM     25  C   UNL     1       6.366   4.659  13.766  0.00  0.00    +0.000 A 
ATOM     26  C   UNL     1       5.536   3.618  13.350  0.00  0.00    +0.000 A 
ATOM     27  C   UNL     1       5.802   2.924  12.167  0.00  0.00    +0.000 A 
ATOM     28  C   UNL     1       6.892   3.287  11.376  0.00  0.00    +0.000 A 
ATOM     29  C   UNL     1       7.692   4.356  11.753  0.00  0.00    +0.000 A 
ATOM     30  C   UNL     1       7.431   5.041  12.934  0.00  0.00    +0.000 A 
ENDBRANCH  23  25
BRANCH  20  31
ATOM     31  C   UNL     1       6.739   5.553  18.590  0.00  0.00    +0.000 C 
BRANCH  31  32
ATOM     32  C   UNL     1       8.008   6.402  18.801  0.00  0.00    +0.000 C 
BRANCH  32  34
ATOM     33  N   UNL     1       7.855   8.830  17.453  0.00  0.00    +0.000 NA
ATOM     34  C   UNL     1       7.925   7.729  18.064  0.00  0.00    +0.000 C 
ENDBRANCH  32  34
ENDBRANCH  31  32
ENDBRANCH  20  31
ENDBRANCH  19  20
ENDBRANCH   1  19
TORSDOF 9
ENDMDL
MODEL 2
REMARK VINA RESULT:      -8.0      0.352      1.238
REMARK  Name = 
REMARK  9 active torsions:
REMARK  status: ('A' for Active; 'I' for Inactive)
REMARK    1  A    between atoms: C_2  and  C_3
REMARK    2  A    between atoms: C_3  and  C_4
REMARK    3  A    between atoms: C_4  and  N_5
REMARK    4  A    between atoms: N_5  and  C_6
REMARK    5  A    between atoms: C_6  and  C_7
REMARK    6  A    between atoms: C_7  and  N_8
REMARK    7  A    between atoms: N_8  and  C_18
REMARK    8  A    between atoms: N_11  and  C_12
REMARK    9  A    between atoms: N_26  and  C_27
REMARK                            x       y       z     vdW  Elec       q    Type
REMARK                         _______ _______ _______ _____ _____    ______ ____
ROOT
ATOM      1  C   UNL     1       4.381   6.388  19.057  0.00  0.00    +0.000 C 
ENDROOT
BRANCH   1   2
ATOM      2  N   UNL     1       3.048   5.797  19.401  0.00  0.00    +0.000 N 
ATOM      3  C   UNL     1       1.988   6.428  20.091  0.00  0.00    +0.000 C 
ATOM      4  O   UNL     1       1.098   5.802  20.662  0.00  0.00    +0.000 OA
ATOM      5  N   UNL     1       2.008   7.803  20.100  0.00  0.00    +0.000 N 
ATOM      6  H   UNL     1       2.409   8.243  19.296  0.00  0.00    +0.000 HD
BRANCH   5   7
ATOM      7  C   UNL     1       1.162   8.670  20.834  0.00  0.00    +0.000 A 
ATOM      8  C   UNL     1       0.231   9.533  20.254  0.00  0.00    +0.000 A 
ATOM      9  C   UNL     1      -0.516  10.407  21.046  0.00  0.00    +0.000 A 
ATOM     10  C   UNL     1      -0.372  10.396  22.429  0.00  0.00    +0.000 A 
ATOM     11  C   UNL     1       0.520   9.507  23.023  0.00  0.00    +0.000 A 
ATOM     12  C   UNL     1       1.288   8.651  22.230  0.00  0.00    +0.000 A 
ENDBRANCH   5   7
BRANCH   2  13
ATOM     13  C   UNL     1       2.957   4.339  19.172  0.00  0.00    +0.000 A 
ATOM     14  C   UNL     1       1.910   3.762  18.429  0.00  0.00    +0.000 A 
ATOM     15  C   UNL     1       1.798   2.375  18.246  0.00  0.00    +0.000 A 
ATOM     16  C   UNL     1       2.752   1.520  18.777  0.00  0.00    +0.000 A 
ATOM     17  C   UNL     1       3.824   2.057  19.477  0.00  0.00    +0.000 A 
ATOM     18  C   UNL     1       3.927   3.444  19.666  0.00  0.00    +0.000 A 
ENDBRANCH   2  13
ENDBRANCH   1   2
BRANCH   1  19
ATOM     19  C   UNL     1       5.022   6.307  17.647  0.00  0.00    +0.000 C 
BRANCH  19  20
ATOM     20  N   UNL     1       6.328   5.610  17.599  0.00  0.00    +0.000 N 
ATOM     21  C   UNL     1       6.891   5.064  16.442  0.00  0.00    +0.000 C 
ATOM     22  O   UNL     1       7.871   4.326  16.515  0.00  0.00    +0.000 OA
ATOM     23  N   UNL     1       6.263   5.408  15.270  0.00  0.00    +0.000 N 
ATOM     24  H   UNL     1       5.809   6.307  15.245  0.00  0.00    +0.000 HD
BRANCH  23  25
ATOM     25  C   UNL     1       6.404   4.760  14.026  0.00  0.00    +0.000 A 
ATOM     26  C   UNL     1       5.523   3.778  13.572  0.00  0.00    +0.000 A 
ATOM     27  C   UNL     1       5.728   3.154  12.339  0.00  0.00    +0.000 A 
ATOM     28  C   UNL     1       6.806   3.529  11.538  0.00  0.00    +0.000 A 
ATOM     29  C   UNL     1       7.656   4.542  11.956  0.00  0.00    +0.000 A 
ATOM     30  C   UNL     1       7.457   5.158  13.186  0.00  0.00    +0.000 A 
ENDBRANCH  23  25
BRANCH  20  31
ATOM     31  C   UNL     1       7.058   5.384  18.863  0.00  0.00    +0.000 C 
BRANCH  31  32
ATOM     32  C   UNL     1       8.174   6.403  19.163  0.00  0.00    +0.000 C 
BRANCH  32  34
ATOM     33  N   UNL     1       7.992   8.639  17.519  0.00  0.00    +0.000 NA
ATOM     34  C   UNL     1       8.074   7.626  18.265  0.00  0.00    +0.000 C 
ENDBRANCH  32  34
ENDBRANCH  31  32
ENDBRANCH  20  31
ENDBRANCH  19  20
ENDBRANCH   1  19
TORSDOF 9
ENDMDL
MODEL 3
REMARK VINA RESULT:      -7.7      1.443      1.852
REMARK  Name = 
REMARK  9 active torsions:
REMARK  status: ('A' for Active; 'I' for Inactive)
REMARK    1  A    between atoms: C_2  and  C_3
REMARK    2  A    between atoms: C_3  and  C_4
REMARK    3  A    between atoms: C_4  and  N_5
REMARK    4  A    between atoms: N_5  and  C_6
REMARK    5  A    between atoms: C_6  and  C_7
REMARK    6  A    between atoms: C_7  and  N_8
REMARK    7  A    between atoms: N_8  and  C_18
REMARK    8  A    between atoms: N_11  and  C_12
REMARK    9  A    between atoms: N_26  and  C_27
REMARK                            x       y       z     vdW  Elec       q    Type
REMARK                         _______ _______ _______ _____ _____    ______ ____
ROOT
ATOM      1  C   UNL     1       3.485   5.699  17.637  0.00  0.00    +0.000 C 
ENDROOT
BRANCH   1   2
ATOM      2  N   UNL     1       2.617   5.875  18.847  0.00  0.00    +0.000 N 
ATOM      3  C   UNL     1       2.068   7.083  19.333  0.00  0.00    +0.000 C 
ATOM      4  O   UNL     1       1.697   7.226  20.496  0.00  0.00    +0.000 OA
ATOM      5  N   UNL     1       1.977   8.113  18.426  0.00  0.00    +0.000 N 
ATOM      6  H   UNL     1       1.829   7.848  17.472  0.00  0.00    +0.000 HD
BRANCH   5   7
ATOM      7  C   UNL     1       1.610   9.455  18.684  0.00  0.00    +0.000 A 
ATOM      8  C   UNL     1       0.562   9.833  19.526  0.00  0.00    +0.000 A 
ATOM      9  C   UNL     1       0.220  11.179  19.673  0.00  0.00    +0.000 A 
ATOM     10  C   UNL     1       0.950  12.163  19.015  0.00  0.00    +0.000 A 
ATOM     11  C   UNL     1       2.027  11.802  18.210  0.00  0.00    +0.000 A 
ATOM     12  C   UNL     1       2.353  10.454  18.041  0.00  0.00    +0.000 A 
ENDBRANCH   5   7
BRANCH   2  13
ATOM     13  C   UNL     1       2.535   4.677  19.710  0.00  0.00    +0.000 A 
ATOM     14  C   UNL     1       3.633   3.819  19.905  0.00  0.00    +0.000 A 
ATOM     15  C   UNL     1       3.546   2.658  20.689  0.00  0.00    +0.000 A 
ATOM     16  C   UNL     1       2.360   2.336  21.332  0.00  0.00    +0.000 A 
ATOM     17  C   UNL     1       1.269   3.185  21.201  0.00  0.00    +0.000 A 
ATOM     18  C   UNL     1       1.357   4.339  20.407  0.00  0.00    +0.000 A 
ENDBRANCH   2  13
ENDBRANCH   1   2
BRANCH   1  19
ATOM     19  C   UNL     1       4.752   6.546  17.355  0.00  0.00    +0.000 C 
BRANCH  19  20
ATOM     20  N   UNL     1       6.028   5.798  17.427  0.00  0.00    +0.000 N 
ATOM     21  C   UNL     1       6.638   5.167  16.340  0.00  0.00    +0.000 C 
ATOM     22  O   UNL     1       7.579   4.397  16.514  0.00  0.00    +0.000 OA
ATOM     23  N   UNL     1       6.099   5.469  15.113  0.00  0.00    +0.000 N 
ATOM     24  H   UNL     1       5.685   6.383  15.011  0.00  0.00    +0.000 HD
BRANCH  23  25
ATOM     25  C   UNL     1       6.289   4.749  13.917  0.00  0.00    +0.000 A 
ATOM     26  C   UNL     1       5.424   3.742  13.485  0.00  0.00    +0.000 A 
ATOM     27  C   UNL     1       5.678   3.046  12.301  0.00  0.00    +0.000 A 
ATOM     28  C   UNL     1       6.790   3.371  11.525  0.00  0.00    +0.000 A 
ATOM     29  C   UNL     1       7.626   4.406  11.918  0.00  0.00    +0.000 A 
ATOM     30  C   UNL     1       7.378   5.094  13.100  0.00  0.00    +0.000 A 
ENDBRANCH  23  25
BRANCH  20  31
ATOM     31  C   UNL     1       6.668   5.614  18.746  0.00  0.00    +0.000 C 
BRANCH  31  32
ATOM     32  C   UNL     1       7.976   6.402  18.951  0.00  0.00    +0.000 C 
BRANCH  32  34
ATOM     33  N   UNL     1       7.999   8.758  17.474  0.00  0.00    +0.000 NA
ATOM     34  C   UNL     1       7.989   7.690  18.144  0.00  0.00    +0.000 C 
ENDBRANCH  32  34
ENDBRANCH  31  32
ENDBRANCH  20  31
ENDBRANCH  19  20
ENDBRANCH   1  19
TORSDOF 9
ENDMDL
MODEL 4
REMARK VINA RESULT:      -7.7      1.774      2.343
REMARK  Name = 
REMARK  9 active torsions:
REMARK  status: ('A' for Active; 'I' for Inactive)
REMARK    1  A    between atoms: C_2  and  C_3
REMARK    2  A    between atoms: C_3  and  C_4
REMARK    3  A    between atoms: C_4  and  N_5
REMARK    4  A    between atoms: N_5  and  C_6
REMARK    5  A    between atoms: C_6  and  C_7
REMARK    6  A    between atoms: C_7  and  N_8
REMARK    7  A    between atoms: N_8  and  C_18
REMARK    8  A    between atoms: N_11  and  C_12
REMARK    9  A    between atoms: N_26  and  C_27
REMARK                            x       y       z     vdW  Elec       q    Type
REMARK                         _______ _______ _______ _____ _____    ______ ____
ROOT
ATOM      1  C   UNL     1       3.740   5.985  17.445  0.00  0.00    +0.000 C 
ENDROOT
BRANCH   1   2
ATOM      2  N   UNL     1       2.624   6.155  18.431  0.00  0.00    +0.000 N 
ATOM      3  C   UNL     1       1.996   7.364  18.806  0.00  0.00    +0.000 C 
ATOM      4  O   UNL     1       1.373   7.493  19.858  0.00  0.00    +0.000 OA
ATOM      5  N   UNL     1       2.126   8.411  17.924  0.00  0.00    +0.000 N 
ATOM      6  H   UNL     1       2.194   8.165  16.957  0.00  0.00    +0.000 HD
BRANCH   5   7
ATOM      7  C   UNL     1       1.728   9.755  18.122  0.00  0.00    +0.000 A 
ATOM      8  C   UNL     1       2.584  10.851  18.005  0.00  0.00    +0.000 A 
ATOM      9  C   UNL     1       2.129  12.141  18.285  0.00  0.00    +0.000 A 
ATOM     10  C   UNL     1       0.802  12.353  18.643  0.00  0.00    +0.000 A 
ATOM     11  C   UNL     1      -0.074  11.274  18.718  0.00  0.00    +0.000 A 
ATOM     12  C   UNL     1       0.387   9.979  18.464  0.00  0.00    +0.000 A 
ENDBRANCH   5   7
BRANCH   2  13
ATOM     13  C   UNL     1       2.333   4.944  19.228  0.00  0.00    +0.000 A 
ATOM     14  C   UNL     1       1.326   4.031  18.861  0.00  0.00    +0.000 A 
ATOM     15  C   UNL     1       1.018   2.904  19.638  0.00  0.00    +0.000 A 
ATOM     16  C   UNL     1       1.734   2.636  20.795  0.00  0.00    +0.000 A 
ATOM     17  C   UNL     1       2.765   3.489  21.164  0.00  0.00    +0.000 A 
ATOM     18  C   UNL     1       3.063   4.621  20.389  0.00  0.00    +0.000 A 
ENDBRANCH   2  13
ENDBRANCH   1   2
BRANCH   1  19
ATOM     19  C   UNL     1       5.103   6.717  17.552  0.00  0.00    +0.000 C 
BRANCH  19  20
ATOM     20  N   UNL     1       6.283   5.825  17.616  0.00  0.00    +0.000 N 
ATOM     21  C   UNL     1       6.846   5.177  16.513  0.00  0.00    +0.000 C 
ATOM     22  O   UNL     1       7.689   4.298  16.671  0.00  0.00    +0.000 OA
ATOM     23  N   UNL     1       6.377   5.593  15.291  0.00  0.00    +0.000 N 
ATOM     24  H   UNL     1       6.072   6.551  15.223  0.00  0.00    +0.000 HD
BRANCH  23  25
ATOM     25  C   UNL     1       6.515   4.908  14.066  0.00  0.00    +0.000 A 
ATOM     26  C   UNL     1       7.548   5.160  13.162  0.00  0.00    +0.000 A 
ATOM     27  C   UNL     1       7.620   4.465  11.953  0.00  0.00    +0.000 A 
ATOM     28  C   UNL     1       6.667   3.493  11.649  0.00  0.00    +0.000 A 
ATOM     29  C   UNL     1       5.668   3.198  12.564  0.00  0.00    +0.000 A 
ATOM     30  C   UNL     1       5.592   3.894  13.765  0.00  0.00    +0.000 A 
ENDBRANCH  23  25
BRANCH  20  31
ATOM     31  C   UNL     1       6.864   5.512  18.937  0.00  0.00    +0.000 C 
BRANCH  31  32
ATOM     32  C   UNL     1       8.153   6.282  19.282  0.00  0.00    +0.000 C 
BRANCH  32  34
ATOM     33  N   UNL     1       8.294   8.709  17.931  0.00  0.00    +0.000 NA
ATOM     34  C   UNL     1       8.229   7.608  18.544  0.00  0.00    +0.000 C 
ENDBRANCH  32  34
ENDBRANCH  31  32
ENDBRANCH  20  31
ENDBRANCH  19  20
ENDBRANCH   1  19
TORSDOF 9
ENDMDL
MODEL 5
REMARK VINA RESULT:      -7.4      1.110      1.584
REMARK  Name = 
REMARK  9 active torsions:
REMARK  status: ('A' for Active; 'I' for Inactive)
REMARK    1  A    between atoms: C_2  and  C_3
REMARK    2  A    between atoms: C_3  and  C_4
REMARK    3  A    between atoms: C_4  and  N_5
REMARK    4  A    between atoms: N_5  and  C_6
REMARK    5  A    between atoms: C_6  and  C_7
REMARK    6  A    between atoms: C_7  and  N_8
REMARK    7  A    between atoms: N_8  and  C_18
REMARK    8  A    between atoms: N_11  and  C_12
REMARK    9  A    between atoms: N_26  and  C_27
REMARK                            x       y       z     vdW  Elec       q    Type
REMARK                         _______ _______ _______ _____ _____    ______ ____
ROOT
ATOM      1  C   UNL     1       4.301   6.572  17.957  0.00  0.00    +0.000 C 
ENDROOT
BRANCH   1   2
ATOM      2  N   UNL     1       3.193   5.874  18.685  0.00  0.00    +0.000 N 
ATOM      3  C   UNL     1       2.248   6.457  19.559  0.00  0.00    +0.000 C 
ATOM      4  O   UNL     1       1.624   5.808  20.396  0.00  0.00    +0.000 OA
ATOM      5  N   UNL     1       2.065   7.815  19.432  0.00  0.00    +0.000 N 
ATOM      6  H   UNL     1       2.192   8.191  18.514  0.00  0.00    +0.000 HD
BRANCH   5   7
ATOM      7  C   UNL     1       1.301   8.661  20.271  0.00  0.00    +0.000 A 
ATOM      8  C   UNL     1       0.399   9.618  19.806  0.00  0.00    +0.000 A 
ATOM      9  C   UNL     1      -0.265  10.462  20.700  0.00  0.00    +0.000 A 
ATOM     10  C   UNL     1      -0.065  10.328  22.069  0.00  0.00    +0.000 A 
ATOM     11  C   UNL     1       0.797   9.345  22.548  0.00  0.00    +0.000 A 
ATOM     12  C   UNL     1       1.482   8.518  21.654  0.00  0.00    +0.000 A 
ENDBRANCH   5   7
BRANCH   2  13
ATOM     13  C   UNL     1       3.267   4.398  18.627  0.00  0.00    +0.000 A 
ATOM     14  C   UNL     1       4.169   3.663  19.419  0.00  0.00    +0.000 A 
ATOM     15  C   UNL     1       4.272   2.266  19.335  0.00  0.00    +0.000 A 
ATOM     16  C   UNL     1       3.449   1.555  18.475  0.00  0.00    +0.000 A 
ATOM     17  C   UNL     1       2.515   2.242  17.712  0.00  0.00    +0.000 A 
ATOM     18  C   UNL     1       2.422   3.641  17.791  0.00  0.00    +0.000 A 
ENDBRANCH   2  13
ENDBRANCH   1   2
BRANCH   1  19
ATOM     19  C   UNL     1       4.687   6.274  16.484  0.00  0.00    +0.000 C 
BRANCH  19  20
ATOM     20  N   UNL     1       6.102   5.886  16.280  0.00  0.00    +0.000 N 
ATOM     21  C   UNL     1       6.571   5.153  15.187  0.00  0.00    +0.000 C 
ATOM     22  O   UNL     1       7.710   4.694  15.188  0.00  0.00    +0.000 OA
ATOM     23  N   UNL     1       5.669   4.991  14.163  0.00  0.00    +0.000 N 
ATOM     24  H   UNL     1       4.990   5.725  14.035  0.00  0.00    +0.000 HD
BRANCH  23  25
ATOM     25  C   UNL     1       5.751   4.047  13.120  0.00  0.00    +0.000 A 
ATOM     26  C   UNL     1       4.631   3.462  12.528  0.00  0.00    +0.000 A 
ATOM     27  C   UNL     1       4.776   2.514  11.512  0.00  0.00    +0.000 A 
ATOM     28  C   UNL     1       6.048   2.162  11.063  0.00  0.00    +0.000 A 
ATOM     29  C   UNL     1       7.166   2.777  11.607  0.00  0.00    +0.000 A 
ATOM     30  C   UNL     1       7.022   3.716  12.623  0.00  0.00    +0.000 A 
ENDBRANCH  23  25
BRANCH  20  31
ATOM     31  C   UNL     1       7.084   6.207  17.335  0.00  0.00    +0.000 C 
BRANCH  31  32
ATOM     32  C   UNL     1       7.687   4.985  18.056  0.00  0.00    +0.000 C 
BRANCH  32  34
ATOM     33  N   UNL     1       8.041   5.467  20.772  0.00  0.00    +0.000 NA
ATOM     34  C   UNL     1       7.881   5.249  19.541  0.00  0.00    +0.000 C 
ENDBRANCH  32  34
ENDBRANCH  31  32
ENDBRANCH  20  31
ENDBRANCH  19  20
ENDBRANCH   1  19
TORSDOF 9
ENDMDL
MODEL 6
REMARK VINA RESULT:      -7.4      1.146      1.789
REMARK  Name = 
REMARK  9 active torsions:
REMARK  status: ('A' for Active; 'I' for Inactive)
REMARK    1  A    between atoms: C_2  and  C_3
REMARK    2  A    between atoms: C_3  and  C_4
REMARK    3  A    between atoms: C_4  and  N_5
REMARK    4  A    between atoms: N_5  and  C_6
REMARK    5  A    between atoms: C_6  and  C_7
REMARK    6  A    between atoms: C_7  and  N_8
REMARK    7  A    between atoms: N_8  and  C_18
REMARK    8  A    between atoms: N_11  and  C_12
REMARK    9  A    between atoms: N_26  and  C_27
REMARK                            x       y       z     vdW  Elec       q    Type
REMARK                         _______ _______ _______ _____ _____    ______ ____
ROOT
ATOM      1  C   UNL     1       4.247   6.611  17.822  0.00  0.00    +0.000 C 
ENDROOT
BRANCH   1   2
ATOM      2  N   UNL     1       3.198   5.904  18.625  0.00  0.00    +0.000 N 
ATOM      3  C   UNL     1       2.300   6.483  19.551  0.00  0.00    +0.000 C 
ATOM      4  O   UNL     1       1.741   5.833  20.432  0.00  0.00    +0.000 OA
ATOM      5  N   UNL     1       2.086   7.835  19.420  0.00  0.00    +0.000 N 
ATOM      6  H   UNL     1       2.149   8.203  18.492  0.00  0.00    +0.000 HD
BRANCH   5   7
ATOM      7  C   UNL     1       1.362   8.679  20.296  0.00  0.00    +0.000 A 
ATOM      8  C   UNL     1       1.148   8.406  21.649  0.00  0.00    +0.000 A 
ATOM      9  C   UNL     1       0.362   9.257  22.429  0.00  0.00    +0.000 A 
ATOM     10  C   UNL     1      -0.182  10.410  21.876  0.00  0.00    +0.000 A 
ATOM     11  C   UNL     1       0.062  10.718  20.540  0.00  0.00    +0.000 A 
ATOM     12  C   UNL     1       0.826   9.854  19.752  0.00  0.00    +0.000 A 
ENDBRANCH   5   7
BRANCH   2  13
ATOM     13  C   UNL     1       3.294   4.430  18.579  0.00  0.00    +0.000 A 
ATOM     14  C   UNL     1       2.447   3.650  17.770  0.00  0.00    +0.000 A 
ATOM     15  C   UNL     1       2.507   2.248  17.757  0.00  0.00    +0.000 A 
ATOM     16  C   UNL     1       3.444   1.581  18.531  0.00  0.00    +0.000 A 
ATOM     17  C   UNL     1       4.328   2.319  19.307  0.00  0.00    +0.000 A 
ATOM     18  C   UNL     1       4.258   3.721  19.325  0.00  0.00    +0.000 A 
ENDBRANCH   2  13
ENDBRANCH   1   2
BRANCH   1  19
ATOM     19  C   UNL     1       4.639   6.213  16.375  0.00  0.00    +0.000 C 
BRANCH  19  20
ATOM     20  N   UNL     1       6.060   5.835  16.199  0.00  0.00    +0.000 N 
ATOM     21  C   UNL     1       6.556   5.103  15.117  0.00  0.00    +0.000 C 
ATOM     22  O   UNL     1       7.699   4.653  15.141  0.00  0.00    +0.000 OA
ATOM     23  N   UNL     1       5.676   4.934  14.076  0.00  0.00    +0.000 N 
ATOM     24  H   UNL     1       4.995   5.663  13.934  0.00  0.00    +0.000 HD
BRANCH  23  25
ATOM     25  C   UNL     1       5.786   3.989  13.035  0.00  0.00    +0.000 A 
ATOM     26  C   UNL     1       7.008   3.515  12.559  0.00  0.00    +0.000 A 
ATOM     27  C   UNL     1       7.055   2.596  11.508  0.00  0.00    +0.000 A 
ATOM     28  C   UNL     1       5.871   2.125  10.942  0.00  0.00    +0.000 A 
ATOM     29  C   UNL     1       4.650   2.549  11.443  0.00  0.00    +0.000 A 
ATOM     30  C   UNL     1       4.604   3.469  12.484  0.00  0.00    +0.000 A 
ENDBRANCH  23  25
BRANCH  20  31
ATOM     31  C   UNL     1       7.019   6.164  17.273  0.00  0.00    +0.000 C 
BRANCH  31  32
ATOM     32  C   UNL     1       7.644   4.948  17.984  0.00  0.00    +0.000 C 
BRANCH  32  34
ATOM     33  N   UNL     1       8.098   5.453  20.681  0.00  0.00    +0.000 NA
ATOM     34  C   UNL     1       7.892   5.224  19.458  0.00  0.00    +0.000 C 
ENDBRANCH  32  34
ENDBRANCH  31  32
ENDBRANCH  20  31
ENDBRANCH  19  20
ENDBRANCH   1  19
TORSDOF 9
ENDMDL
MODEL 7
REMARK VINA RESULT:      -7.4      3.934      7.789
REMARK  Name = 
REMARK  9 active torsions:
REMARK  status: ('A' for Active; 'I' for Inactive)
REMARK    1  A    between atoms: C_2  and  C_3
REMARK    2  A    between atoms: C_3  and  C_4
REMARK    3  A    between atoms: C_4  and  N_5
REMARK    4  A    between atoms: N_5  and  C_6
REMARK    5  A    between atoms: C_6  and  C_7
REMARK    6  A    between atoms: C_7  and  N_8
REMARK    7  A    between atoms: N_8  and  C_18
REMARK    8  A    between atoms: N_11  and  C_12
REMARK    9  A    between atoms: N_26  and  C_27
REMARK                            x       y       z     vdW  Elec       q    Type
REMARK                         _______ _______ _______ _____ _____    ______ ____
ROOT
ATOM      1  C   UNL     1       2.055  10.759  18.123  0.00  0.00    +0.000 C 
ENDROOT
BRANCH   1   2
ATOM      2  N   UNL     1       1.349  11.994  18.596  0.00  0.00    +0.000 N 
ATOM      3  C   UNL     1      -0.012  12.323  18.406  0.00  0.00    +0.000 C 
ATOM      4  O   UNL     1      -0.435  13.475  18.476  0.00  0.00    +0.000 OA
ATOM      5  N   UNL     1      -0.854  11.272  18.126  0.00  0.00    +0.000 N 
ATOM      6  H   UNL     1      -0.607  10.391  18.530  0.00  0.00    +0.000 HD
BRANCH   5   7
ATOM      7  C   UNL     1      -2.217  11.341  17.750  0.00  0.00    +0.000 A 
ATOM      8  C   UNL     1      -3.254  11.681  18.619  0.00  0.00    +0.000 A 
ATOM      9  C   UNL     1      -4.581  11.657  18.185  0.00  0.00    +0.000 A 
ATOM     10  C   UNL     1      -4.881  11.335  16.867  0.00  0.00    +0.000 A 
ATOM     11  C   UNL     1      -3.852  11.039  15.977  0.00  0.00    +0.000 A 
ATOM     12  C   UNL     1      -2.526  11.037  16.417  0.00  0.00    +0.000 A 
ENDBRANCH   5   7
BRANCH   2  13
ATOM     13  C   UNL     1       2.252  13.044  19.114  0.00  0.00    +0.000 A 
ATOM     14  C   UNL     1       3.028  13.852  18.262  0.00  0.00    +0.000 A 
ATOM     15  C   UNL     1       3.917  14.819  18.752  0.00  0.00    +0.000 A 
ATOM     16  C   UNL     1       4.036  15.033  20.117  0.00  0.00    +0.000 A 
ATOM     17  C   UNL     1       3.252  14.287  20.987  0.00  0.00    +0.000 A 
ATOM     18  C   UNL     1       2.371  13.312  20.493  0.00  0.00    +0.000 A 
ENDBRANCH   2  13
ENDBRANCH   1   2
BRANCH   1  19
ATOM     19  C   UNL     1       1.431   9.340  18.168  0.00  0.00    +0.000 C 
BRANCH  19  20
ATOM     20  N   UNL     1       1.665   8.599  19.428  0.00  0.00    +0.000 N 
ATOM     21  C   UNL     1       2.103   7.273  19.497  0.00  0.00    +0.000 C 
ATOM     22  O   UNL     1       2.077   6.664  20.563  0.00  0.00    +0.000 OA
ATOM     23  N   UNL     1       2.535   6.740  18.308  0.00  0.00    +0.000 N 
ATOM     24  H   UNL     1       2.939   7.380  17.642  0.00  0.00    +0.000 HD
BRANCH  23  25
ATOM     25  C   UNL     1       2.711   5.371  18.021  0.00  0.00    +0.000 A 
ATOM     26  C   UNL     1       3.927   4.828  17.604  0.00  0.00    +0.000 A 
ATOM     27  C   UNL     1       4.035   3.466  17.312  0.00  0.00    +0.000 A 
ATOM     28  C   UNL     1       2.928   2.631  17.461  0.00  0.00    +0.000 A 
ATOM     29  C   UNL     1       1.730   3.151  17.926  0.00  0.00    +0.000 A 
ATOM     30  C   UNL     1       1.620   4.507  18.210  0.00  0.00    +0.000 A 
ENDBRANCH  23  25
BRANCH  20  31
ATOM     31  C   UNL     1       1.330   9.255  20.708  0.00  0.00    +0.000 C 
BRANCH  31  32
ATOM     32  C   UNL     1      -0.177   9.355  21.016  0.00  0.00    +0.000 C 
BRANCH  32  34
ATOM     33  N   UNL     1      -0.663  10.870  23.296  0.00  0.00    +0.000 NA
ATOM     34  C   UNL     1      -0.442  10.183  22.262  0.00  0.00    +0.000 C 
ENDBRANCH  32  34
ENDBRANCH  31  32
ENDBRANCH  20  31
ENDBRANCH  19  20
ENDBRANCH   1  19
TORSDOF 9
ENDMDL
MODEL 8
REMARK VINA RESULT:      -7.3      3.885      7.728
REMARK  Name = 
REMARK  9 active torsions:
REMARK  status: ('A' for Active; 'I' for Inactive)
REMARK    1  A    between atoms: C_2  and  C_3
REMARK    2  A    between atoms: C_3  and  C_4
REMARK    3  A    between atoms: C_4  and  N_5
REMARK    4  A    between atoms: N_5  and  C_6
REMARK    5  A    between atoms: C_6  and  C_7
REMARK    6  A    between atoms: C_7  and  N_8
REMARK    7  A    between atoms: N_8  and  C_18
REMARK    8  A    between atoms: N_11  and  C_12
REMARK    9  A    between atoms: N_26  and  C_27
REMARK                            x       y       z     vdW  Elec       q    Type
REMARK                         _______ _______ _______ _____ _____    ______ ____
ROOT
ATOM      1  C   UNL     1       2.076  10.713  17.961  0.00  0.00    +0.000 C 
ENDROOT
BRANCH   1   2
ATOM      2  N   UNL     1       1.322  11.885  18.514  0.00  0.00    +0.000 N 
ATOM      3  C   UNL     1      -0.044  12.189  18.316  0.00  0.00    +0.000 C 
ATOM      4  O   UNL     1      -0.504  13.319  18.468  0.00  0.00    +0.000 OA
ATOM      5  N   UNL     1      -0.846  11.141  17.929  0.00  0.00    +0.000 N 
ATOM      6  H   UNL     1      -0.582  10.237  18.265  0.00  0.00    +0.000 HD
BRANCH   5   7
ATOM      7  C   UNL     1      -2.201  11.201  17.523  0.00  0.00    +0.000 A 
ATOM      8  C   UNL     1      -2.635  11.014  16.210  0.00  0.00    +0.000 A 
ATOM      9  C   UNL     1      -3.985  11.159  15.881  0.00  0.00    +0.000 A 
ATOM     10  C   UNL     1      -4.919  11.449  16.869  0.00  0.00    +0.000 A 
ATOM     11  C   UNL     1      -4.505  11.591  18.190  0.00  0.00    +0.000 A 
ATOM     12  C   UNL     1      -3.152  11.472  18.517  0.00  0.00    +0.000 A 
ENDBRANCH   5   7
BRANCH   2  13
ATOM     13  C   UNL     1       2.180  12.914  19.140  0.00  0.00    +0.000 A 
ATOM     14  C   UNL     1       2.215  13.113  20.533  0.00  0.00    +0.000 A 
ATOM     15  C   UNL     1       2.995  14.117  21.126  0.00  0.00    +0.000 A 
ATOM     16  C   UNL     1       3.794  14.936  20.342  0.00  0.00    +0.000 A 
ATOM     17  C   UNL     1       3.821  14.739  18.968  0.00  0.00    +0.000 A 
ATOM     18  C   UNL     1       3.031  13.740  18.378  0.00  0.00    +0.000 A 
ENDBRANCH   2  13
ENDBRANCH   1   2
BRANCH   1  19
ATOM     19  C   UNL     1       1.554   9.254  18.005  0.00  0.00    +0.000 C 
BRANCH  19  20
ATOM     20  N   UNL     1       1.773   8.556  19.293  0.00  0.00    +0.000 N 
ATOM     21  C   UNL     1       2.187   7.226  19.412  0.00  0.00    +0.000 C 
ATOM     22  O   UNL     1       2.148   6.657  20.500  0.00  0.00    +0.000 OA
ATOM     23  N   UNL     1       2.611   6.641  18.244  0.00  0.00    +0.000 N 
ATOM     24  H   UNL     1       3.028   7.249  17.556  0.00  0.00    +0.000 HD
BRANCH  23  25
ATOM     25  C   UNL     1       2.763   5.260  18.009  0.00  0.00    +0.000 A 
ATOM     26  C   UNL     1       3.967   4.681  17.606  0.00  0.00    +0.000 A 
ATOM     27  C   UNL     1       4.051   3.307  17.366  0.00  0.00    +0.000 A 
ATOM     28  C   UNL     1       2.932   2.497  17.552  0.00  0.00    +0.000 A 
ATOM     29  C   UNL     1       1.745   3.054  18.004  0.00  0.00    +0.000 A 
ATOM     30  C   UNL     1       1.659   4.422  18.237  0.00  0.00    +0.000 A 
ENDBRANCH  23  25
BRANCH  20  31
ATOM     31  C   UNL     1       1.448   9.265  20.547  0.00  0.00    +0.000 C 
BRANCH  31  32
ATOM     32  C   UNL     1      -0.055   9.352  20.876  0.00  0.00    +0.000 C 
BRANCH  32  34
ATOM     33  N   UNL     1      -0.500  10.578  23.332  0.00  0.00    +0.000 NA
ATOM     34  C   UNL     1      -0.299  10.023  22.218  0.00  0.00    +0.000 C 
ENDBRANCH  32  34
ENDBRANCH  31  32
ENDBRANCH  20  31
ENDBRANCH  19  20
ENDBRANCH   1  19
TORSDOF 9
ENDMDL
MODEL 9
REMARK VINA RESULT:      -7.2      1.299      1.477
REMARK  Name = 
REMARK  9 active torsions:
REMARK  status: ('A' for Active; 'I' for Inactive)
REMARK    1  A    between atoms: C_2  and  C_3
REMARK    2  A    between atoms: C_3  and  C_4
REMARK    3  A    between atoms: C_4  and  N_5
REMARK    4  A    between atoms: N_5  and  C_6
REMARK    5  A    between atoms: C_6  and  C_7
REMARK    6  A    between atoms: C_7  and  N_8
REMARK    7  A    between atoms: N_8  and  C_18
REMARK    8  A    between atoms: N_11  and  C_12
REMARK    9  A    between atoms: N_26  and  C_27
REMARK                            x       y       z     vdW  Elec       q    Type
REMARK                         _______ _______ _______ _____ _____    ______ ____
ROOT
ATOM      1  C   UNL     1       3.829   6.541  18.915  0.00  0.00    +0.000 C 
ENDROOT
BRANCH   1   2
ATOM      2  N   UNL     1       2.475   6.386  19.539  0.00  0.00    +0.000 N 
ATOM      3  C   UNL     1       1.600   7.420  19.942  0.00  0.00    +0.000 C 
ATOM      4  O   UNL     1       0.703   7.251  20.766  0.00  0.00    +0.000 OA
ATOM      5  N   UNL     1       1.810   8.649  19.363  0.00  0.00    +0.000 N 
ATOM      6  H   UNL     1       2.173   8.640  18.430  0.00  0.00    +0.000 HD
BRANCH   5   7
ATOM      7  C   UNL     1       1.182   9.874  19.695  0.00  0.00    +0.000 A 
ATOM      8  C   UNL     1       0.953  10.308  21.002  0.00  0.00    +0.000 A 
ATOM      9  C   UNL     1       0.264  11.499  21.244  0.00  0.00    +0.000 A 
ATOM     10  C   UNL     1      -0.165  12.287  20.182  0.00  0.00    +0.000 A 
ATOM     11  C   UNL     1       0.098  11.889  18.875  0.00  0.00    +0.000 A 
ATOM     12  C   UNL     1       0.764  10.685  18.631  0.00  0.00    +0.000 A 
ENDBRANCH   5   7
BRANCH   2  13
ATOM     13  C   UNL     1       2.159   5.004  19.959  0.00  0.00    +0.000 A 
ATOM     14  C   UNL     1       2.540   4.497  21.215  0.00  0.00    +0.000 A 
ATOM     15  C   UNL     1       2.279   3.173  21.599  0.00  0.00    +0.000 A 
ATOM     16  C   UNL     1       1.595   2.320  20.746  0.00  0.00    +0.000 A 
ATOM     17  C   UNL     1       1.161   2.799  19.517  0.00  0.00    +0.000 A 
ATOM     18  C   UNL     1       1.434   4.121  19.133  0.00  0.00    +0.000 A 
ENDBRANCH   2  13
ENDBRANCH   1   2
BRANCH   1  19
ATOM     19  C   UNL     1       4.254   5.846  17.596  0.00  0.00    +0.000 C 
BRANCH  19  20
ATOM     20  N   UNL     1       5.607   5.242  17.620  0.00  0.00    +0.000 N 
ATOM     21  C   UNL     1       6.292   4.789  16.489  0.00  0.00    +0.000 C 
ATOM     22  O   UNL     1       7.313   4.118  16.608  0.00  0.00    +0.000 OA
ATOM     23  N   UNL     1       5.729   5.142  15.287  0.00  0.00    +0.000 N 
ATOM     24  H   UNL     1       5.215   6.009  15.263  0.00  0.00    +0.000 HD
BRANCH  23  25
ATOM     25  C   UNL     1       6.008   4.563  14.033  0.00  0.00    +0.000 A 
ATOM     26  C   UNL     1       5.146   3.670  13.395  0.00  0.00    +0.000 A 
ATOM     27  C   UNL     1       5.488   3.109  12.162  0.00  0.00    +0.000 A 
ATOM     28  C   UNL     1       6.688   3.460  11.545  0.00  0.00    +0.000 A 
ATOM     29  C   UNL     1       7.526   4.388  12.145  0.00  0.00    +0.000 A 
ATOM     30  C   UNL     1       7.190   4.941  13.375  0.00  0.00    +0.000 A 
ENDBRANCH  23  25
BRANCH  20  31
ATOM     31  C   UNL     1       6.255   5.009  18.927  0.00  0.00    +0.000 C 
BRANCH  31  32
ATOM     32  C   UNL     1       7.438   5.945  19.243  0.00  0.00    +0.000 C 
BRANCH  32  34
ATOM     33  N   UNL     1       7.718   7.934  17.320  0.00  0.00    +0.000 NA
ATOM     34  C   UNL     1       7.591   7.032  18.193  0.00  0.00    +0.000 C 
ENDBRANCH  32  34
ENDBRANCH  31  32
ENDBRANCH  20  31
ENDBRANCH  19  20
ENDBRANCH   1  19
TORSDOF 9
ENDMDL
