MODEL 1
REMARK VINA RESULT:      -8.1      0.000      0.000
REMARK  Name = 
REMARK  9 active torsions:
REMARK  status: ('A' for Active; 'I' for Inactive)
REMARK    1  A    between atoms: C_1  and  C_2
REMARK    2  A    between atoms: C_2  and  N_3
REMARK    3  A    between atoms: C_4  and  C_6
REMARK    4  A    between atoms: C_8  and  N_9
REMARK    5  A    between atoms: N_14  and  N_15
REMARK    6  A    between atoms: C_16  and  C_18
REMARK    7  A    between atoms: C_21  and  C_22
REMARK    8  A    between atoms: C_28  and  O_29
REMARK    9  A    between atoms: C_30  and  O_31
REMARK                            x       y       z     vdW  Elec       q    Type
REMARK                         _______ _______ _______ _____ _____    ______ ____
ROOT
ATOM      1  N   UNL     1       2.560   6.668  19.495  0.00  0.00    +0.000 N 
ATOM      2  C   UNL     1       2.982   6.973  18.221  0.00  0.00    +0.000 A 
ATOM      3  N   UNL     1       2.527   8.139  17.817  0.00  0.00    +0.000 NA
ATOM      4  C   UNL     1       1.769   8.604  18.870  0.00  0.00    +0.000 A 
ATOM      5  C   UNL     1       1.006   9.776  19.025  0.00  0.00    +0.000 A 
ATOM      6  N   UNL     1       0.883  10.712  17.981  0.00  0.00    +0.000 N 
ATOM      7  N   UNL     1       0.350   9.960  20.206  0.00  0.00    +0.000 NA
ATOM      8  C   UNL     1       0.459   9.007  21.154  0.00  0.00    +0.000 A 
ATOM      9  N   UNL     1       1.170   7.863  21.117  0.00  0.00    +0.000 NA
ATOM     10  C   UNL     1       1.794   7.714  19.932  0.00  0.00    +0.000 A 
ATOM     11  H   UNL     1       1.641  10.608  17.296  0.00  0.00    +0.000 HD
ENDROOT
BRANCH   1  14
ATOM     12  C   UNL     1       4.129   3.593  19.398  0.00  0.00    +0.000 C 
ATOM     13  O   UNL     1       4.177   4.946  19.864  0.00  0.00    +0.000 OA
ATOM     14  C   UNL     1       2.834   5.395  20.142  0.00  0.00    +0.000 C 
ATOM     15  C   UNL     1       1.881   4.277  19.714  0.00  0.00    +0.000 C 
ATOM     16  C   UNL     1       2.767   3.047  19.814  0.00  0.00    +0.000 C 
BRANCH  12  18
ATOM     17  N   UNL     1       5.513   4.021  17.404  0.00  0.00    +0.000 N 
ATOM     18  C   UNL     1       4.359   3.436  17.887  0.00  0.00    +0.000 C 
ATOM     19  O   UNL     1       3.599   2.779  17.179  0.00  0.00    +0.000 OA
ATOM     20  H   UNL     1       5.868   4.814  17.942  0.00  0.00    +0.000 HD
BRANCH  17  22
ATOM     21  C   UNL     1       5.552   5.186  15.212  0.00  0.00    +0.000 C 
ATOM     22  C   UNL     1       5.817   3.913  15.992  0.00  0.00    +0.000 C 
ENDBRANCH  17  22
ENDBRANCH  12  18
BRANCH  15  23
ATOM     23  O   UNL     1       0.749   4.178  20.579  0.00  0.00    +0.000 OA
ATOM     24  H   UNL     1       0.998   4.641  21.409  0.00  0.00    +0.000 HD
ENDBRANCH  15  23
BRANCH  16  25
ATOM     25  O   UNL     1       2.749   2.600  21.187  0.00  0.00    +0.000 OA
ATOM     26  H   UNL     1       3.665   2.536  21.514  0.00  0.00    +0.000 HD
ENDBRANCH  16  25
ENDBRANCH   1  14
BRANCH   6  27
ATOM     27  N   UNL     1       0.711  12.023  18.441  0.00  0.00    +0.000 N 
ATOM     28  C   UNL     1       1.781  12.900  18.397  0.00  0.00    +0.000 C 
ATOM     29  O   UNL     1       2.888  12.536  17.996  0.00  0.00    +0.000 OA
ATOM     30  H   UNL     1      -0.228  12.292  18.727  0.00  0.00    +0.000 HD
BRANCH  28  31
ATOM     31  C   UNL     1       1.508  14.257  18.852  0.00  0.00    +0.000 A 
ATOM     32  C   UNL     1       0.285  14.903  18.848  0.00  0.00    +0.000 A 
ATOM     33  C   UNL     1       0.368  16.238  19.342  0.00  0.00    +0.000 A 
ATOM     34  C   UNL     1       1.654  16.579  19.701  0.00  0.00    +0.000 A 
ATOM     35  C   UNL     1       2.162  17.874  20.233  0.00  0.00    +0.000 C 
ATOM     36  S   UNL     1       2.741  15.281  19.458  0.00  0.00    +0.000 S 
ENDBRANCH  28  31
ENDBRANCH   6  27
TORSDOF 7
ENDMDL
MODEL 2
REMARK VINA RESULT:      -8.0      1.876      2.116
REMARK  Name = 
REMARK  9 active torsions:
REMARK  status: ('A' for Active; 'I' for Inactive)
REMARK    1  A    between atoms: C_1  and  C_2
REMARK    2  A    between atoms: C_2  and  N_3
REMARK    3  A    between atoms: C_4  and  C_6
REMARK    4  A    between atoms: C_8  and  N_9
REMARK    5  A    between atoms: N_14  and  N_15
REMARK    6  A    between atoms: C_16  and  C_18
REMARK    7  A    between atoms: C_21  and  C_22
REMARK    8  A    between atoms: C_28  and  O_29
REMARK    9  A    between atoms: C_30  and  O_31
REMARK                            x       y       z     vdW  Elec       q    Type
REMARK                         _______ _______ _______ _____ _____    ______ ____
ROOT
ATOM      1  N   UNL     1       2.922   6.831  18.860  0.00  0.00    +0.000 N 
ATOM      2  C   UNL     1       3.194   7.319  17.602  0.00  0.00    +0.000 A 
ATOM      3  N   UNL     1       2.619   8.482  17.389  0.00  0.00    +0.000 NA
ATOM      4  C   UNL     1       1.935   8.754  18.554  0.00  0.00    +0.000 A 
ATOM      5  C   UNL     1       1.107   9.831  18.921  0.00  0.00    +0.000 A 
ATOM      6  N   UNL     1       0.816  10.870  18.017  0.00  0.00    +0.000 N 
ATOM      7  N   UNL     1       0.558   9.819  20.168  0.00  0.00    +0.000 NA
ATOM      8  C   UNL     1       0.826   8.772  20.976  0.00  0.00    +0.000 A 
ATOM      9  N   UNL     1       1.612   7.704  20.734  0.00  0.00    +0.000 NA
ATOM     10  C   UNL     1       2.128   7.750  19.490  0.00  0.00    +0.000 A 
ATOM     11  H   UNL     1       1.510  10.912  17.262  0.00  0.00    +0.000 HD
ENDROOT
BRANCH   1  14
ATOM     12  C   UNL     1       5.334   4.360  18.875  0.00  0.00    +0.000 C 
ATOM     13  O   UNL     1       4.770   5.485  19.557  0.00  0.00    +0.000 OA
ATOM     14  C   UNL     1       3.349   5.517  19.315  0.00  0.00    +0.000 C 
ATOM     15  C   UNL     1       3.029   4.396  18.325  0.00  0.00    +0.000 C 
ATOM     16  C   UNL     1       4.171   3.423  18.564  0.00  0.00    +0.000 C 
BRANCH  12  18
ATOM     17  N   UNL     1       6.062   3.784  16.592  0.00  0.00    +0.000 N 
ATOM     18  C   UNL     1       6.121   4.720  17.604  0.00  0.00    +0.000 C 
ATOM     19  O   UNL     1       6.703   5.795  17.485  0.00  0.00    +0.000 OA
ATOM     20  H   UNL     1       5.890   2.820  16.885  0.00  0.00    +0.000 HD
BRANCH  17  22
ATOM     21  C   UNL     1       5.861   4.088  14.136  0.00  0.00    +0.000 C 
ATOM     22  C   UNL     1       6.765   4.046  15.352  0.00  0.00    +0.000 C 
ENDBRANCH  17  22
ENDBRANCH  12  18
BRANCH  15  23
ATOM     23  O   UNL     1       1.762   3.791  18.592  0.00  0.00    +0.000 OA
ATOM     24  H   UNL     1       1.361   3.602  17.715  0.00  0.00    +0.000 HD
ENDBRANCH  15  23
BRANCH  16  25
ATOM     25  O   UNL     1       3.816   2.593  19.690  0.00  0.00    +0.000 OA
ATOM     26  H   UNL     1       2.859   2.672  19.857  0.00  0.00    +0.000 HD
ENDBRANCH  16  25
ENDBRANCH   1  14
BRANCH   6  27
ATOM     27  N   UNL     1       0.594  12.099  18.652  0.00  0.00    +0.000 N 
ATOM     28  C   UNL     1      -0.622  12.737  18.483  0.00  0.00    +0.000 C 
ATOM     29  O   UNL     1      -1.496  12.262  17.755  0.00  0.00    +0.000 OA
ATOM     30  H   UNL     1       1.327  12.436  19.272  0.00  0.00    +0.000 HD
BRANCH  28  31
ATOM     31  C   UNL     1      -0.789  13.988  19.211  0.00  0.00    +0.000 A 
ATOM     32  C   UNL     1      -0.220  15.210  18.904  0.00  0.00    +0.000 A 
ATOM     33  C   UNL     1      -0.571  16.229  19.836  0.00  0.00    +0.000 A 
ATOM     34  C   UNL     1      -1.392  15.756  20.837  0.00  0.00    +0.000 A 
ATOM     35  C   UNL     1      -1.957  16.489  22.004  0.00  0.00    +0.000 C 
ATOM     36  S   UNL     1      -1.746  14.096  20.629  0.00  0.00    +0.000 S 
ENDBRANCH  28  31
ENDBRANCH   6  27
TORSDOF 7
ENDMDL
MODEL 3
REMARK VINA RESULT:      -7.9      1.380      1.499
REMARK  Name = 
REMARK  9 active torsions:
REMARK  status: ('A' for Active; 'I' for Inactive)
REMARK    1  A    between atoms: C_1  and  C_2
REMARK    2  A    between atoms: C_2  and  N_3
REMARK    3  A    between atoms: C_4  and  C_6
REMARK    4  A    between atoms: C_8  and  N_9
REMARK    5  A    between atoms: N_14  and  N_15
REMARK    6  A    between atoms: C_16  and  C_18
REMARK    7  A    between atoms: C_21  and  C_22
REMARK    8  A    between atoms: C_28  and  O_29
REMARK    9  A    between atoms: C_30  and  O_31
REMARK                            x       y       z     vdW  Elec       q    Type
REMARK                         _______ _______ _______ _____ _____    ______ ____
ROOT
ATOM      1  N   UNL     1       2.528   6.759  19.438  0.00  0.00    +0.000 N 
ATOM      2  C   UNL     1       2.884   7.091  18.152  0.00  0.00    +0.000 A 
ATOM      3  N   UNL     1       2.431   8.276  17.804  0.00  0.00    +0.000 NA
ATOM      4  C   UNL     1       1.742   8.726  18.909  0.00  0.00    +0.000 A 
ATOM      5  C   UNL     1       1.012   9.907  19.137  0.00  0.00    +0.000 A 
ATOM      6  N   UNL     1       0.850  10.873  18.127  0.00  0.00    +0.000 N 
ATOM      7  N   UNL     1       0.427  10.071  20.357  0.00  0.00    +0.000 NA
ATOM      8  C   UNL     1       0.568   9.090  21.273  0.00  0.00    +0.000 A 
ATOM      9  N   UNL     1       1.253   7.934  21.166  0.00  0.00    +0.000 NA
ATOM     10  C   UNL     1       1.808   7.806  19.945  0.00  0.00    +0.000 A 
ATOM     11  H   UNL     1       1.567  10.773  17.398  0.00  0.00    +0.000 HD
ENDROOT
BRANCH   1  14
ATOM     12  C   UNL     1       4.088   3.687  19.205  0.00  0.00    +0.000 C 
ATOM     13  O   UNL     1       4.147   5.023  19.716  0.00  0.00    +0.000 OA
ATOM     14  C   UNL     1       2.812   5.463  20.035  0.00  0.00    +0.000 C 
ATOM     15  C   UNL     1       1.848   4.363  19.587  0.00  0.00    +0.000 C 
ATOM     16  C   UNL     1       2.733   3.128  19.628  0.00  0.00    +0.000 C 
BRANCH  12  18
ATOM     17  N   UNL     1       5.554   3.904  17.236  0.00  0.00    +0.000 N 
ATOM     18  C   UNL     1       4.289   3.582  17.685  0.00  0.00    +0.000 C 
ATOM     19  O   UNL     1       3.400   3.177  16.939  0.00  0.00    +0.000 OA
ATOM     20  H   UNL     1       6.084   4.550  17.824  0.00  0.00    +0.000 HD
BRANCH  17  22
ATOM     21  C   UNL     1       5.685   5.142  15.088  0.00  0.00    +0.000 C 
ATOM     22  C   UNL     1       5.838   3.822  15.817  0.00  0.00    +0.000 C 
ENDBRANCH  17  22
ENDBRANCH  12  18
BRANCH  15  23
ATOM     23  O   UNL     1       0.732   4.235  20.470  0.00  0.00    +0.000 OA
ATOM     24  H   UNL     1       1.105   4.006  21.350  0.00  0.00    +0.000 HD
ENDBRANCH  15  23
BRANCH  16  25
ATOM     25  O   UNL     1       2.741   2.634  20.984  0.00  0.00    +0.000 OA
ATOM     26  H   UNL     1       3.540   2.959  21.439  0.00  0.00    +0.000 HD
ENDBRANCH  16  25
ENDBRANCH   1  14
BRANCH   6  27
ATOM     27  N   UNL     1       0.730  12.174  18.630  0.00  0.00    +0.000 N 
ATOM     28  C   UNL     1      -0.473  12.845  18.490  0.00  0.00    +0.000 C 
ATOM     29  O   UNL     1      -1.424  12.331  17.898  0.00  0.00    +0.000 OA
ATOM     30  H   UNL     1       1.526  12.545  19.143  0.00  0.00    +0.000 HD
BRANCH  28  31
ATOM     31  C   UNL     1      -0.530  14.176  19.079  0.00  0.00    +0.000 A 
ATOM     32  C   UNL     1      -0.014  15.342  18.546  0.00  0.00    +0.000 A 
ATOM     33  C   UNL     1      -0.222  16.472  19.390  0.00  0.00    +0.000 A 
ATOM     34  C   UNL     1      -0.884  16.136  20.551  0.00  0.00    +0.000 A 
ATOM     35  C   UNL     1      -1.268  17.012  21.693  0.00  0.00    +0.000 C 
ATOM     36  S   UNL     1      -1.264  14.469  20.599  0.00  0.00    +0.000 S 
ENDBRANCH  28  31
ENDBRANCH   6  27
TORSDOF 7
ENDMDL
MODEL 4
REMARK VINA RESULT:      -7.9      1.366      1.497
REMARK  Name = 
REMARK  9 active torsions:
REMARK  status: ('A' for Active; 'I' for Inactive)
REMARK    1  A    between atoms: C_1  and  C_2
REMARK    2  A    between atoms: C_2  and  N_3
REMARK    3  A    between atoms: C_4  and  C_6
REMARK    4  A    between atoms: C_8  and  N_9
REMARK    5  A    between atoms: N_14  and  N_15
REMARK    6  A    between atoms: C_16  and  C_18
REMARK    7  A    between atoms: C_21  and  C_22
REMARK    8  A    between atoms: C_28  and  O_29
REMARK    9  A    between atoms: C_30  and  O_31
REMARK                            x       y       z     vdW  Elec       q    Type
REMARK                         _______ _______ _______ _____ _____    ______ ____
ROOT
ATOM      1  N   UNL     1       2.748   6.883  18.904  0.00  0.00    +0.000 N 
ATOM      2  C   UNL     1       3.024   7.418  17.666  0.00  0.00    +0.000 A 
ATOM      3  N   UNL     1       2.481   8.605  17.510  0.00  0.00    +0.000 NA
ATOM      4  C   UNL     1       1.815   8.846  18.692  0.00  0.00    +0.000 A 
ATOM      5  C   UNL     1       1.022   9.929  19.113  0.00  0.00    +0.000 A 
ATOM      6  N   UNL     1       0.754  11.014  18.258  0.00  0.00    +0.000 N 
ATOM      7  N   UNL     1       0.483   9.878  20.364  0.00  0.00    +0.000 NA
ATOM      8  C   UNL     1       0.728   8.790  21.123  0.00  0.00    +0.000 A 
ATOM      9  N   UNL     1       1.480   7.711  20.827  0.00  0.00    +0.000 NA
ATOM     10  C   UNL     1       1.986   7.796  19.581  0.00  0.00    +0.000 A 
ATOM     11  H   UNL     1       1.442  11.069  17.498  0.00  0.00    +0.000 HD
ENDROOT
BRANCH   1  14
ATOM     12  C   UNL     1       5.143   4.396  18.904  0.00  0.00    +0.000 C 
ATOM     13  O   UNL     1       4.544   5.480  19.623  0.00  0.00    +0.000 OA
ATOM     14  C   UNL     1       3.140   5.539  19.297  0.00  0.00    +0.000 C 
ATOM     15  C   UNL     1       2.876   4.488  18.218  0.00  0.00    +0.000 C 
ATOM     16  C   UNL     1       3.997   3.492  18.463  0.00  0.00    +0.000 C 
BRANCH  12  18
ATOM     17  N   UNL     1       6.060   3.933  16.664  0.00  0.00    +0.000 N 
ATOM     18  C   UNL     1       6.009   4.831  17.711  0.00  0.00    +0.000 C 
ATOM     19  O   UNL     1       6.558   5.929  17.674  0.00  0.00    +0.000 OA
ATOM     20  H   UNL     1       5.903   2.953  16.910  0.00  0.00    +0.000 HD
BRANCH  17  22
ATOM     21  C   UNL     1       6.142   3.959  14.183  0.00  0.00    +0.000 C 
ATOM     22  C   UNL     1       6.843   4.266  15.491  0.00  0.00    +0.000 C 
ENDBRANCH  17  22
ENDBRANCH  12  18
BRANCH  15  23
ATOM     23  O   UNL     1       1.593   3.877  18.367  0.00  0.00    +0.000 OA
ATOM     24  H   UNL     1       1.297   3.641  17.461  0.00  0.00    +0.000 HD
ENDBRANCH  15  23
BRANCH  16  25
ATOM     25  O   UNL     1       3.570   2.593  19.508  0.00  0.00    +0.000 OA
ATOM     26  H   UNL     1       2.732   2.917  19.886  0.00  0.00    +0.000 HD
ENDBRANCH  16  25
ENDBRANCH   1  14
BRANCH   6  27
ATOM     27  N   UNL     1       0.574  12.220  18.947  0.00  0.00    +0.000 N 
ATOM     28  C   UNL     1       1.576  13.174  18.913  0.00  0.00    +0.000 C 
ATOM     29  O   UNL     1       2.635  12.965  18.319  0.00  0.00    +0.000 OA
ATOM     30  H   UNL     1      -0.329  12.367  19.393  0.00  0.00    +0.000 HD
BRANCH  28  31
ATOM     31  C   UNL     1       1.293  14.418  19.617  0.00  0.00    +0.000 A 
ATOM     32  C   UNL     1       0.845  15.602  19.062  0.00  0.00    +0.000 A 
ATOM     33  C   UNL     1       0.688  16.637  20.029  0.00  0.00    +0.000 A 
ATOM     34  C   UNL     1       1.029  16.218  21.297  0.00  0.00    +0.000 A 
ATOM     35  C   UNL     1       1.027  16.995  22.568  0.00  0.00    +0.000 C 
ATOM     36  S   UNL     1       1.514  14.579  21.309  0.00  0.00    +0.000 S 
ENDBRANCH  28  31
ENDBRANCH   6  27
TORSDOF 7
ENDMDL
MODEL 5
REMARK VINA RESULT:      -7.8      5.318     10.185
REMARK  Name = 
REMARK  9 active torsions:
REMARK  status: ('A' for Active; 'I' for Inactive)
REMARK    1  A    between atoms: C_1  and  C_2
REMARK    2  A    between atoms: C_2  and  N_3
REMARK    3  A    between atoms: C_4  and  C_6
REMARK    4  A    between atoms: C_8  and  N_9
REMARK    5  A    between atoms: N_14  and  N_15
REMARK    6  A    between atoms: C_16  and  C_18
REMARK    7  A    between atoms: C_21  and  C_22
REMARK    8  A    between atoms: C_28  and  O_29
REMARK    9  A    between atoms: C_30  and  O_31
REMARK                            x       y       z     vdW  Elec       q    Type
REMARK                         _______ _______ _______ _____ _____    ______ ____
ROOT
ATOM      1  N   UNL     1      -1.720  11.799  22.339  0.00  0.00    +0.000 N 
ATOM      2  C   UNL     1      -1.898  12.147  21.019  0.00  0.00    +0.000 A 
ATOM      3  N   UNL     1      -1.082  11.492  20.222  0.00  0.00    +0.000 NA
ATOM      4  C   UNL     1      -0.335  10.695  21.062  0.00  0.00    +0.000 A 
ATOM      5  C   UNL     1       0.717   9.796  20.805  0.00  0.00    +0.000 A 
ATOM      6  N   UNL     1       1.217   9.609  19.503  0.00  0.00    +0.000 N 
ATOM      7  N   UNL     1       1.270   9.141  21.865  0.00  0.00    +0.000 NA
ATOM      8  C   UNL     1       0.789   9.398  23.099  0.00  0.00    +0.000 A 
ATOM      9  N   UNL     1      -0.218  10.220  23.453  0.00  0.00    +0.000 NA
ATOM     10  C   UNL     1      -0.731  10.854  22.381  0.00  0.00    +0.000 A 
ATOM     11  H   UNL     1       0.537   9.913  18.796  0.00  0.00    +0.000 HD
ENDROOT
BRANCH   1  14
ATOM     12  C   UNL     1      -4.674  13.050  23.617  0.00  0.00    +0.000 C 
ATOM     13  O   UNL     1      -3.765  11.945  23.566  0.00  0.00    +0.000 OA
ATOM     14  C   UNL     1      -2.420  12.448  23.436  0.00  0.00    +0.000 C 
ATOM     15  C   UNL     1      -2.513  13.967  23.285  0.00  0.00    +0.000 C 
ATOM     16  C   UNL     1      -3.835  14.275  23.967  0.00  0.00    +0.000 C 
BRANCH  12  18
ATOM     17  N   UNL     1      -5.839  12.117  21.656  0.00  0.00    +0.000 N 
ATOM     18  C   UNL     1      -5.476  13.269  22.324  0.00  0.00    +0.000 C 
ATOM     19  O   UNL     1      -5.819  14.390  21.956  0.00  0.00    +0.000 OA
ATOM     20  H   UNL     1      -5.235  11.306  21.806  0.00  0.00    +0.000 HD
BRANCH  17  22
ATOM     21  C   UNL     1      -7.312  10.945  20.038  0.00  0.00    +0.000 C 
ATOM     22  C   UNL     1      -6.608  12.228  20.433  0.00  0.00    +0.000 C 
ENDBRANCH  17  22
ENDBRANCH  12  18
BRANCH  15  23
ATOM     23  O   UNL     1      -1.426  14.637  23.925  0.00  0.00    +0.000 OA
ATOM     24  H   UNL     1      -1.479  14.396  24.876  0.00  0.00    +0.000 HD
ENDBRANCH  15  23
BRANCH  16  25
ATOM     25  O   UNL     1      -3.586  14.385  25.385  0.00  0.00    +0.000 OA
ATOM     26  H   UNL     1      -2.665  14.673  25.526  0.00  0.00    +0.000 HD
ENDBRANCH  16  25
ENDBRANCH   1  14
BRANCH   6  27
ATOM     27  N   UNL     1       1.715   8.318  19.291  0.00  0.00    +0.000 N 
ATOM     28  C   UNL     1       2.423   8.048  18.132  0.00  0.00    +0.000 C 
ATOM     29  O   UNL     1       2.588   8.914  17.270  0.00  0.00    +0.000 OA
ATOM     30  H   UNL     1       1.590   7.645  20.044  0.00  0.00    +0.000 HD
BRANCH  28  31
ATOM     31  C   UNL     1       2.947   6.694  18.008  0.00  0.00    +0.000 A 
ATOM     32  C   UNL     1       4.040   6.292  17.263  0.00  0.00    +0.000 A 
ATOM     33  C   UNL     1       4.272   4.888  17.342  0.00  0.00    +0.000 A 
ATOM     34  C   UNL     1       3.343   4.253  18.138  0.00  0.00    +0.000 A 
ATOM     35  C   UNL     1       3.223   2.803  18.455  0.00  0.00    +0.000 C 
ATOM     36  S   UNL     1       2.218   5.359  18.797  0.00  0.00    +0.000 S 
ENDBRANCH  28  31
ENDBRANCH   6  27
TORSDOF 7
ENDMDL
MODEL 6
REMARK VINA RESULT:      -7.8      3.339      4.500
REMARK  Name = 
REMARK  9 active torsions:
REMARK  status: ('A' for Active; 'I' for Inactive)
REMARK    1  A    between atoms: C_1  and  C_2
REMARK    2  A    between atoms: C_2  and  N_3
REMARK    3  A    between atoms: C_4  and  C_6
REMARK    4  A    between atoms: C_8  and  N_9
REMARK    5  A    between atoms: N_14  and  N_15
REMARK    6  A    between atoms: C_16  and  C_18
REMARK    7  A    between atoms: C_21  and  C_22
REMARK    8  A    between atoms: C_28  and  O_29
REMARK    9  A    between atoms: C_30  and  O_31
REMARK                            x       y       z     vdW  Elec       q    Type
REMARK                         _______ _______ _______ _____ _____    ______ ____
ROOT
ATOM      1  N   UNL     1       2.757   6.564  18.681  0.00  0.00    +0.000 N 
ATOM      2  C   UNL     1       2.547   6.105  19.961  0.00  0.00    +0.000 A 
ATOM      3  N   UNL     1       1.951   7.003  20.716  0.00  0.00    +0.000 NA
ATOM      4  C   UNL     1       1.777   8.094  19.893  0.00  0.00    +0.000 A 
ATOM      5  C   UNL     1       1.230   9.368  20.133  0.00  0.00    +0.000 A 
ATOM      6  N   UNL     1       0.769   9.735  21.411  0.00  0.00    +0.000 N 
ATOM      7  N   UNL     1       1.197  10.255  19.099  0.00  0.00    +0.000 NA
ATOM      8  C   UNL     1       1.701   9.870  17.908  0.00  0.00    +0.000 A 
ATOM      9  N   UNL     1       2.230   8.678  17.566  0.00  0.00    +0.000 NA
ATOM     10  C   UNL     1       2.252   7.834  18.616  0.00  0.00    +0.000 A 
ATOM     11  H   UNL     1       0.575   8.909  21.989  0.00  0.00    +0.000 HD
ENDROOT
BRANCH   1  14
ATOM     12  C   UNL     1       3.509   3.510  17.256  0.00  0.00    +0.000 C 
ATOM     13  O   UNL     1       2.712   4.698  17.189  0.00  0.00    +0.000 OA
ATOM     14  C   UNL     1       3.488   5.812  17.675  0.00  0.00    +0.000 C 
ATOM     15  C   UNL     1       4.821   5.254  18.180  0.00  0.00    +0.000 C 
ATOM     16  C   UNL     1       4.957   3.974  17.374  0.00  0.00    +0.000 C 
BRANCH  12  18
ATOM     17  N   UNL     1       2.053   2.961  19.167  0.00  0.00    +0.000 N 
ATOM     18  C   UNL     1       3.128   2.558  18.400  0.00  0.00    +0.000 C 
ATOM     19  O   UNL     1       3.703   1.486  18.571  0.00  0.00    +0.000 OA
ATOM     20  H   UNL     1       1.884   3.968  19.202  0.00  0.00    +0.000 HD
BRANCH  17  22
ATOM     21  C   UNL     1       1.646   2.808  21.611  0.00  0.00    +0.000 C 
ATOM     22  C   UNL     1       1.617   2.118  20.262  0.00  0.00    +0.000 C 
ENDBRANCH  17  22
ENDBRANCH  12  18
BRANCH  15  23
ATOM     23  O   UNL     1       5.906   6.149  17.928  0.00  0.00    +0.000 OA
ATOM     24  H   UNL     1       5.502   6.982  17.599  0.00  0.00    +0.000 HD
ENDBRANCH  15  23
BRANCH  16  25
ATOM     25  O   UNL     1       5.532   4.315  16.095  0.00  0.00    +0.000 OA
ATOM     26  H   UNL     1       5.850   3.502  15.660  0.00  0.00    +0.000 HD
ENDBRANCH  16  25
ENDBRANCH   1  14
BRANCH   6  27
ATOM     27  N   UNL     1      -0.285  10.656  21.367  0.00  0.00    +0.000 N 
ATOM     28  C   UNL     1      -0.985  10.938  22.527  0.00  0.00    +0.000 C 
ATOM     29  O   UNL     1      -0.721  10.365  23.586  0.00  0.00    +0.000 OA
ATOM     30  H   UNL     1      -0.444  11.133  20.483  0.00  0.00    +0.000 HD
BRANCH  28  31
ATOM     31  C   UNL     1      -2.037  11.939  22.407  0.00  0.00    +0.000 A 
ATOM     32  C   UNL     1      -2.930  12.327  23.388  0.00  0.00    +0.000 A 
ATOM     33  C   UNL     1      -3.848  13.319  22.935  0.00  0.00    +0.000 A 
ATOM     34  C   UNL     1      -3.637  13.656  21.615  0.00  0.00    +0.000 A 
ATOM     35  C   UNL     1      -4.388  14.624  20.769  0.00  0.00    +0.000 C 
ATOM     36  S   UNL     1      -2.324  12.789  20.947  0.00  0.00    +0.000 S 
ENDBRANCH  28  31
ENDBRANCH   6  27
TORSDOF 7
ENDMDL
MODEL 7
REMARK VINA RESULT:      -7.7      2.200      2.459
REMARK  Name = 
REMARK  9 active torsions:
REMARK  status: ('A' for Active; 'I' for Inactive)
REMARK    1  A    between atoms: C_1  and  C_2
REMARK    2  A    between atoms: C_2  and  N_3
REMARK    3  A    between atoms: C_4  and  C_6
REMARK    4  A    between atoms: C_8  and  N_9
REMARK    5  A    between atoms: N_14  and  N_15
REMARK    6  A    between atoms: C_16  and  C_18
REMARK    7  A    between atoms: C_21  and  C_22
REMARK    8  A    between atoms: C_28  and  O_29
REMARK    9  A    between atoms: C_30  and  O_31
REMARK                            x       y       z     vdW  Elec       q    Type
REMARK                         _______ _______ _______ _____ _____    ______ ____
ROOT
ATOM      1  N   UNL     1       2.877   6.797  18.727  0.00  0.00    +0.000 N 
ATOM      2  C   UNL     1       3.133   7.376  17.505  0.00  0.00    +0.000 A 
ATOM      3  N   UNL     1       2.573   8.561  17.393  0.00  0.00    +0.000 NA
ATOM      4  C   UNL     1       1.916   8.753  18.590  0.00  0.00    +0.000 A 
ATOM      5  C   UNL     1       1.114   9.812  19.055  0.00  0.00    +0.000 A 
ATOM      6  N   UNL     1       0.823  10.921  18.239  0.00  0.00    +0.000 N 
ATOM      7  N   UNL     1       0.590   9.712  20.309  0.00  0.00    +0.000 NA
ATOM      8  C   UNL     1       0.857   8.603  21.029  0.00  0.00    +0.000 A 
ATOM      9  N   UNL     1       1.619   7.545  20.689  0.00  0.00    +0.000 NA
ATOM     10  C   UNL     1       2.111   7.677  19.442  0.00  0.00    +0.000 A 
ATOM     11  H   UNL     1       1.502  11.009  17.474  0.00  0.00    +0.000 HD
ENDROOT
BRANCH   1  14
ATOM     12  C   UNL     1       5.423   4.485  19.032  0.00  0.00    +0.000 C 
ATOM     13  O   UNL     1       4.591   5.442  19.696  0.00  0.00    +0.000 OA
ATOM     14  C   UNL     1       3.291   5.447  19.072  0.00  0.00    +0.000 C 
ATOM     15  C   UNL     1       3.359   4.504  17.869  0.00  0.00    +0.000 C 
ATOM     16  C   UNL     1       4.483   3.562  18.264  0.00  0.00    +0.000 C 
BRANCH  12  18
ATOM     17  N   UNL     1       6.512   6.483  18.085  0.00  0.00    +0.000 N 
ATOM     18  C   UNL     1       6.484   5.103  18.108  0.00  0.00    +0.000 C 
ATOM     19  O   UNL     1       7.288   4.410  17.489  0.00  0.00    +0.000 OA
ATOM     20  H   UNL     1       5.631   6.949  18.311  0.00  0.00    +0.000 HD
BRANCH  17  22
ATOM     21  C   UNL     1       8.009   8.448  17.840  0.00  0.00    +0.000 C 
ATOM     22  C   UNL     1       7.489   7.152  17.250  0.00  0.00    +0.000 C 
ENDBRANCH  17  22
ENDBRANCH  12  18
BRANCH  15  23
ATOM     23  O   UNL     1       2.132   3.800  17.670  0.00  0.00    +0.000 OA
ATOM     24  H   UNL     1       1.834   3.513  18.561  0.00  0.00    +0.000 HD
ENDBRANCH  15  23
BRANCH  16  25
ATOM     25  O   UNL     1       3.921   2.529  19.100  0.00  0.00    +0.000 OA
ATOM     26  H   UNL     1       3.424   2.943  19.830  0.00  0.00    +0.000 HD
ENDBRANCH  16  25
ENDBRANCH   1  14
BRANCH   6  27
ATOM     27  N   UNL     1       0.635  12.100  18.969  0.00  0.00    +0.000 N 
ATOM     28  C   UNL     1      -0.483  12.879  18.721  0.00  0.00    +0.000 C 
ATOM     29  O   UNL     1      -1.292  12.570  17.843  0.00  0.00    +0.000 OA
ATOM     30  H   UNL     1       1.306  12.298  19.709  0.00  0.00    +0.000 HD
BRANCH  28  31
ATOM     31  C   UNL     1      -0.628  14.065  19.553  0.00  0.00    +0.000 A 
ATOM     32  C   UNL     1      -0.346  15.371  19.194  0.00  0.00    +0.000 A 
ATOM     33  C   UNL     1      -0.578  16.294  20.254  0.00  0.00    +0.000 A 
ATOM     34  C   UNL     1      -1.023  15.668  21.399  0.00  0.00    +0.000 A 
ATOM     35  C   UNL     1      -1.355  16.268  22.721  0.00  0.00    +0.000 C 
ATOM     36  S   UNL     1      -1.175  13.980  21.175  0.00  0.00    +0.000 S 
ENDBRANCH  28  31
ENDBRANCH   6  27
TORSDOF 7
ENDMDL
MODEL 8
REMARK VINA RESULT:      -7.7      1.823      2.049
REMARK  Name = 
REMARK  9 active torsions:
REMARK  status: ('A' for Active; 'I' for Inactive)
REMARK    1  A    between atoms: C_1  and  C_2
REMARK    2  A    between atoms: C_2  and  N_3
REMARK    3  A    between atoms: C_4  and  C_6
REMARK    4  A    between atoms: C_8  and  N_9
REMARK    5  A    between atoms: N_14  and  N_15
REMARK    6  A    between atoms: C_16  and  C_18
REMARK    7  A    between atoms: C_21  and  C_22
REMARK    8  A    between atoms: C_28  and  O_29
REMARK    9  A    between atoms: C_30  and  O_31
REMARK                            x       y       z     vdW  Elec       q    Type
REMARK                         _______ _______ _______ _____ _____    ______ ____
ROOT
ATOM      1  N   UNL     1       2.845   6.838  18.739  0.00  0.00    +0.000 N 
ATOM      2  C   UNL     1       3.114   7.410  17.517  0.00  0.00    +0.000 A 
ATOM      3  N   UNL     1       2.561   8.597  17.397  0.00  0.00    +0.000 NA
ATOM      4  C   UNL     1       1.896   8.798  18.587  0.00  0.00    +0.000 A 
ATOM      5  C   UNL     1       1.096   9.863  19.042  0.00  0.00    +0.000 A 
ATOM      6  N   UNL     1       0.817  10.970  18.220  0.00  0.00    +0.000 N 
ATOM      7  N   UNL     1       0.561   9.771  20.292  0.00  0.00    +0.000 NA
ATOM      8  C   UNL     1       0.817   8.663  21.018  0.00  0.00    +0.000 A 
ATOM      9  N   UNL     1       1.576   7.599  20.689  0.00  0.00    +0.000 NA
ATOM     10  C   UNL     1       2.078   7.724  19.445  0.00  0.00    +0.000 A 
ATOM     11  H   UNL     1       1.503  11.052  17.460  0.00  0.00    +0.000 HD
ENDROOT
BRANCH   1  14
ATOM     12  C   UNL     1       5.368   4.496  19.020  0.00  0.00    +0.000 C 
ATOM     13  O   UNL     1       4.562   5.472  19.689  0.00  0.00    +0.000 OA
ATOM     14  C   UNL     1       3.249   5.486  19.093  0.00  0.00    +0.000 C 
ATOM     15  C   UNL     1       3.279   4.528  17.900  0.00  0.00    +0.000 C 
ATOM     16  C   UNL     1       4.399   3.576  18.283  0.00  0.00    +0.000 C 
BRANCH  12  18
ATOM     17  N   UNL     1       6.570   6.458  18.137  0.00  0.00    +0.000 N 
ATOM     18  C   UNL     1       6.417   5.089  18.065  0.00  0.00    +0.000 C 
ATOM     19  O   UNL     1       7.110   4.378  17.341  0.00  0.00    +0.000 OA
ATOM     20  H   UNL     1       5.752   6.981  18.460  0.00  0.00    +0.000 HD
BRANCH  17  22
ATOM     21  C   UNL     1       7.946   8.488  17.748  0.00  0.00    +0.000 C 
ATOM     22  C   UNL     1       7.545   7.102  17.281  0.00  0.00    +0.000 C 
ENDBRANCH  17  22
ENDBRANCH  12  18
BRANCH  15  23
ATOM     23  O   UNL     1       2.039   3.837  17.736  0.00  0.00    +0.000 OA
ATOM     24  H   UNL     1       1.426   4.475  17.309  0.00  0.00    +0.000 HD
ENDBRANCH  15  23
BRANCH  16  25
ATOM     25  O   UNL     1       3.842   2.561  19.144  0.00  0.00    +0.000 OA
ATOM     26  H   UNL     1       4.154   1.685  18.849  0.00  0.00    +0.000 HD
ENDBRANCH  16  25
ENDBRANCH   1  14
BRANCH   6  27
ATOM     27  N   UNL     1       0.630  12.154  18.944  0.00  0.00    +0.000 N 
ATOM     28  C   UNL     1       1.486  13.220  18.729  0.00  0.00    +0.000 C 
ATOM     29  O   UNL     1       2.429  13.132  17.941  0.00  0.00    +0.000 OA
ATOM     30  H   UNL     1      -0.182  12.197  19.556  0.00  0.00    +0.000 HD
BRANCH  28  31
ATOM     31  C   UNL     1       1.196  14.429  19.489  0.00  0.00    +0.000 A 
ATOM     32  C   UNL     1       1.832  14.858  20.639  0.00  0.00    +0.000 A 
ATOM     33  C   UNL     1       1.290  16.076  21.145  0.00  0.00    +0.000 A 
ATOM     34  C   UNL     1       0.247  16.540  20.371  0.00  0.00    +0.000 A 
ATOM     35  C   UNL     1      -0.593  17.753  20.570  0.00  0.00    +0.000 C 
ATOM     36  S   UNL     1      -0.050  15.515  19.036  0.00  0.00    +0.000 S 
ENDBRANCH  28  31
ENDBRANCH   6  27
TORSDOF 7
ENDMDL
MODEL 9
REMARK VINA RESULT:      -7.6      2.357      2.661
REMARK  Name = 
REMARK  9 active torsions:
REMARK  status: ('A' for Active; 'I' for Inactive)
REMARK    1  A    between atoms: C_1  and  C_2
REMARK    2  A    between atoms: C_2  and  N_3
REMARK    3  A    between atoms: C_4  and  C_6
REMARK    4  A    between atoms: C_8  and  N_9
REMARK    5  A    between atoms: N_14  and  N_15
REMARK    6  A    between atoms: C_16  and  C_18
REMARK    7  A    between atoms: C_21  and  C_22
REMARK    8  A    between atoms: C_28  and  O_29
REMARK    9  A    between atoms: C_30  and  O_31
REMARK                            x       y       z     vdW  Elec       q    Type
REMARK                         _______ _______ _______ _____ _____    ______ ____
ROOT
ATOM      1  N   UNL     1       3.071   6.731  18.562  0.00  0.00    +0.000 N 
ATOM      2  C   UNL     1       3.222   7.488  17.423  0.00  0.00    +0.000 A 
ATOM      3  N   UNL     1       2.566   8.625  17.496  0.00  0.00    +0.000 NA
ATOM      4  C   UNL     1       1.954   8.600  18.731  0.00  0.00    +0.000 A 
ATOM      5  C   UNL     1       1.095   9.514  19.366  0.00  0.00    +0.000 A 
ATOM      6  N   UNL     1       0.678  10.694  18.722  0.00  0.00    +0.000 N 
ATOM      7  N   UNL     1       0.640   9.203  20.613  0.00  0.00    +0.000 NA
ATOM      8  C   UNL     1       1.027   8.034  21.163  0.00  0.00    +0.000 A 
ATOM      9  N   UNL     1       1.854   7.099  20.654  0.00  0.00    +0.000 NA
ATOM     10  C   UNL     1       2.273   7.439  19.419  0.00  0.00    +0.000 A 
ATOM     11  H   UNL     1       1.311  10.942  17.952  0.00  0.00    +0.000 HD
ENDROOT
BRANCH   1  14
ATOM     12  C   UNL     1       5.468   4.407  17.677  0.00  0.00    +0.000 C 
ATOM     13  O   UNL     1       5.047   5.387  18.633  0.00  0.00    +0.000 OA
ATOM     14  C   UNL     1       3.606   5.386  18.703  0.00  0.00    +0.000 C 
ATOM     15  C   UNL     1       3.098   4.414  17.636  0.00  0.00    +0.000 C 
ATOM     16  C   UNL     1       4.279   3.474  17.472  0.00  0.00    +0.000 C 
BRANCH  12  18
ATOM     17  N   UNL     1       6.183   4.072  15.343  0.00  0.00    +0.000 N 
ATOM     18  C   UNL     1       5.958   4.995  16.344  0.00  0.00    +0.000 C 
ATOM     19  O   UNL     1       6.075   6.206  16.173  0.00  0.00    +0.000 OA
ATOM     20  H   UNL     1       6.415   3.126  15.653  0.00  0.00    +0.000 HD
BRANCH  17  22
ATOM     21  C   UNL     1       6.191   3.660  12.895  0.00  0.00    +0.000 C 
ATOM     22  C   UNL     1       6.636   4.538  14.048  0.00  0.00    +0.000 C 
ENDBRANCH  17  22
ENDBRANCH  12  18
BRANCH  15  23
ATOM     23  O   UNL     1       1.928   3.714  18.063  0.00  0.00    +0.000 OA
ATOM     24  H   UNL     1       1.171   4.147  17.610  0.00  0.00    +0.000 HD
ENDBRANCH  15  23
BRANCH  16  25
ATOM     25  O   UNL     1       4.188   2.465  18.501  0.00  0.00    +0.000 OA
ATOM     26  H   UNL     1       5.069   2.330  18.896  0.00  0.00    +0.000 HD
ENDBRANCH  16  25
ENDBRANCH   1  14
BRANCH   6  27
ATOM     27  N   UNL     1       0.433  11.745  19.614  0.00  0.00    +0.000 N 
ATOM     28  C   UNL     1      -0.757  12.446  19.523  0.00  0.00    +0.000 C 
ATOM     29  O   UNL     1      -1.585  12.185  18.647  0.00  0.00    +0.000 OA
ATOM     30  H   UNL     1       1.125  11.902  20.344  0.00  0.00    +0.000 HD
BRANCH  28  31
ATOM     31  C   UNL     1      -0.955  13.494  20.515  0.00  0.00    +0.000 A 
ATOM     32  C   UNL     1      -1.280  14.816  20.273  0.00  0.00    +0.000 A 
ATOM     33  C   UNL     1      -1.378  15.586  21.468  0.00  0.00    +0.000 A 
ATOM     34  C   UNL     1      -1.117  14.833  22.593  0.00  0.00    +0.000 A 
ATOM     35  C   UNL     1      -1.094  15.262  24.018  0.00  0.00    +0.000 C 
ATOM     36  S   UNL     1      -0.777  13.205  22.195  0.00  0.00    +0.000 S 
ENDBRANCH  28  31
ENDBRANCH   6  27
TORSDOF 7
ENDMDL
