MODEL 1
REMARK VINA RESULT:      -8.8      0.000      0.000
REMARK  Name = 
REMARK  7 active torsions:
REMARK  status: ('A' for Active; 'I' for Inactive)
REMARK    1  A    between atoms: C_2  and  C_3
REMARK    2  A    between atoms: C_3  and  C_4
REMARK    3  A    between atoms: C_9  and  N_10
REMARK    4  A    between atoms: C_11  and  C_13
REMARK    5  A    between atoms: C_22  and  C_23
REMARK    6  A    between atoms: C_23  and  O_24
REMARK    7  A    between atoms: N_26  and  C_27
REMARK                            x       y       z     vdW  Elec       q    Type
REMARK                         _______ _______ _______ _____ _____    ______ ____
ROOT
ATOM      1  C   UNL     1       6.921   7.309  17.448  0.00  0.00    +0.000 C 
ATOM      2  C   UNL     1       5.981   6.962  16.296  0.00  0.00    +0.000 C 
ATOM      3  C   UNL     1       5.126   5.740  16.636  0.00  0.00    +0.000 C 
ATOM      4  C   UNL     1       4.099   5.923  17.694  0.00  0.00    +0.000 A 
ATOM      5  C   UNL     1       3.321   7.032  17.970  0.00  0.00    +0.000 A 
ATOM      6  C   UNL     1       2.479   7.013  19.085  0.00  0.00    +0.000 A 
ATOM      7  C   UNL     1       2.432   5.861  19.899  0.00  0.00    +0.000 A 
ATOM      8  C   UNL     1       3.191   4.720  19.576  0.00  0.00    +0.000 A 
ATOM      9  C   UNL     1       4.016   4.787  18.479  0.00  0.00    +0.000 A 
ATOM     10  O   UNL     1       4.935   3.826  18.115  0.00  0.00    +0.000 OA
ATOM     11  C   UNL     1       5.886   4.579  17.304  0.00  0.00    +0.000 C 
ATOM     12  C   UNL     1       7.118   5.001  18.149  0.00  0.00    +0.000 C 
ATOM     13  O   UNL     1       7.780   6.165  17.630  0.00  0.00    +0.000 OA
ENDROOT
BRANCH   6  14
ATOM     14  N   UNL     1       1.707   8.147  19.442  0.00  0.00    +0.000 N 
ATOM     15  C   UNL     1       1.501   9.249  18.618  0.00  0.00    +0.000 C 
ATOM     16  O   UNL     1       1.825   9.287  17.426  0.00  0.00    +0.000 OA
ATOM     17  H   UNL     1       1.231   8.115  20.333  0.00  0.00    +0.000 HD
BRANCH  15  18
ATOM     18  C   UNL     1       0.769  10.453  19.208  0.00  0.00    +0.000 C 
ATOM     19  C   UNL     1      -0.683  10.868  18.877  0.00  0.00    +0.000 C 
ATOM     20  C   UNL     1      -0.780  11.370  20.338  0.00  0.00    +0.000 C 
ATOM     21  C   UNL     1       0.274  10.300  20.678  0.00  0.00    +0.000 C 
ENDBRANCH  15  18
ENDBRANCH   6  14
BRANCH   1  22
ATOM     22  C   UNL     1       7.857   8.485  17.171  0.00  0.00    +0.000 C 
BRANCH  22  24
ATOM     23  O   UNL     1       8.905   8.483  19.362  0.00  0.00    +0.000 OA
ATOM     24  C   UNL     1       8.556   9.110  18.370  0.00  0.00    +0.000 C 
ATOM     25  N   UNL     1       8.787  10.459  18.174  0.00  0.00    +0.000 N 
ATOM     26  H   UNL     1       8.571  10.837  17.261  0.00  0.00    +0.000 HD
BRANCH  25  27
ATOM     27  C   UNL     1       9.408  11.361  19.144  0.00  0.00    +0.000 C 
ATOM     28  C   UNL     1      10.939  11.296  19.092  0.00  0.00    +0.000 C 
ATOM     29  C   UNL     1      11.517  11.819  17.775  0.00  0.00    +0.000 C 
ATOM     30  C   UNL     1      10.955  13.173  17.337  0.00  0.00    +0.000 C 
ATOM     31  C   UNL     1       9.451  13.338  17.540  0.00  0.00    +0.000 C 
ATOM     32  C   UNL     1       8.964  12.808  18.889  0.00  0.00    +0.000 C 
ENDBRANCH  25  27
ENDBRANCH  22  24
ENDBRANCH   1  22
BRANCH  12  33
ATOM     33  C   UNL     1       6.882   5.139  19.669  0.00  0.00    +0.000 C 
BRANCH  33  34
ATOM     34  O   UNL     1       8.061   5.580  20.347  0.00  0.00    +0.000 OA
ATOM     35  H   UNL     1       8.810   5.070  19.996  0.00  0.00    +0.000 HD
ENDBRANCH  33  34
ENDBRANCH  12  33
TORSDOF 7
ENDMDL
MODEL 2
REMARK VINA RESULT:      -8.6      1.342      1.763
REMARK  Name = 
REMARK  7 active torsions:
REMARK  status: ('A' for Active; 'I' for Inactive)
REMARK    1  A    between atoms: C_2  and  C_3
REMARK    2  A    between atoms: C_3  and  C_4
REMARK    3  A    between atoms: C_9  and  N_10
REMARK    4  A    between atoms: C_11  and  C_13
REMARK    5  A    between atoms: C_22  and  C_23
REMARK    6  A    between atoms: C_23  and  O_24
REMARK    7  A    between atoms: N_26  and  C_27
REMARK                            x       y       z     vdW  Elec       q    Type
REMARK                         _______ _______ _______ _____ _____    ______ ____
ROOT
ATOM      1  C   UNL     1       7.296   6.922  18.092  0.00  0.00    +0.000 C 
ATOM      2  C   UNL     1       6.858   7.081  16.637  0.00  0.00    +0.000 C 
ATOM      3  C   UNL     1       5.770   6.066  16.280  0.00  0.00    +0.000 C 
ATOM      4  C   UNL     1       4.444   6.265  16.919  0.00  0.00    +0.000 A 
ATOM      5  C   UNL     1       3.792   7.446  17.224  0.00  0.00    +0.000 A 
ATOM      6  C   UNL     1       2.580   7.395  17.918  0.00  0.00    +0.000 A 
ATOM      7  C   UNL     1       2.041   6.143  18.283  0.00  0.00    +0.000 A 
ATOM      8  C   UNL     1       2.690   4.948  17.920  0.00  0.00    +0.000 A 
ATOM      9  C   UNL     1       3.887   5.043  17.251  0.00  0.00    +0.000 A 
ATOM     10  O   UNL     1       4.723   3.987  16.960  0.00  0.00    +0.000 OA
ATOM     11  C   UNL     1       6.019   4.636  16.793  0.00  0.00    +0.000 C 
ATOM     12  C   UNL     1       6.855   4.543  18.098  0.00  0.00    +0.000 C 
ATOM     13  O   UNL     1       7.833   5.588  18.212  0.00  0.00    +0.000 OA
ENDROOT
BRANCH   6  14
ATOM     14  N   UNL     1       1.905   8.580  18.304  0.00  0.00    +0.000 N 
ATOM     15  C   UNL     1       1.433   8.835  19.588  0.00  0.00    +0.000 C 
ATOM     16  O   UNL     1       1.699   8.132  20.570  0.00  0.00    +0.000 OA
ATOM     17  H   UNL     1       1.819   9.307  17.606  0.00  0.00    +0.000 HD
BRANCH  15  18
ATOM     18  C   UNL     1       0.596  10.094  19.803  0.00  0.00    +0.000 C 
ATOM     19  C   UNL     1       1.047  11.535  19.473  0.00  0.00    +0.000 C 
ATOM     20  C   UNL     1      -0.436  11.829  19.137  0.00  0.00    +0.000 C 
ATOM     21  C   UNL     1      -0.553  10.336  18.778  0.00  0.00    +0.000 C 
ENDBRANCH  15  18
ENDBRANCH   6  14
BRANCH   1  22
ATOM     22  C   UNL     1       8.426   7.858  18.520  0.00  0.00    +0.000 C 
BRANCH  22  24
ATOM     23  O   UNL     1       7.477   9.760  17.345  0.00  0.00    +0.000 OA
ATOM     24  C   UNL     1       8.273   9.332  18.171  0.00  0.00    +0.000 C 
ATOM     25  N   UNL     1       9.108  10.122  18.938  0.00  0.00    +0.000 N 
ATOM     26  H   UNL     1       9.624   9.666  19.679  0.00  0.00    +0.000 HD
BRANCH  25  27
ATOM     27  C   UNL     1       9.232  11.576  18.831  0.00  0.00    +0.000 C 
ATOM     28  C   UNL     1       9.591  12.223  20.174  0.00  0.00    +0.000 C 
ATOM     29  C   UNL     1      10.984  11.835  20.673  0.00  0.00    +0.000 C 
ATOM     30  C   UNL     1      12.088  11.970  19.623  0.00  0.00    +0.000 C 
ATOM     31  C   UNL     1      11.704  11.496  18.224  0.00  0.00    +0.000 C 
ATOM     32  C   UNL     1      10.305  11.946  17.799  0.00  0.00    +0.000 C 
ENDBRANCH  25  27
ENDBRANCH  22  24
ENDBRANCH   1  22
BRANCH  12  33
ATOM     33  C   UNL     1       6.051   4.401  19.409  0.00  0.00    +0.000 C 
BRANCH  33  34
ATOM     34  O   UNL     1       5.428   3.117  19.508  0.00  0.00    +0.000 OA
ATOM     35  H   UNL     1       4.469   3.260  19.565  0.00  0.00    +0.000 HD
ENDBRANCH  33  34
ENDBRANCH  12  33
TORSDOF 7
ENDMDL
MODEL 3
REMARK VINA RESULT:      -8.6      1.010      1.214
REMARK  Name = 
REMARK  7 active torsions:
REMARK  status: ('A' for Active; 'I' for Inactive)
REMARK    1  A    between atoms: C_2  and  C_3
REMARK    2  A    between atoms: C_3  and  C_4
REMARK    3  A    between atoms: C_9  and  N_10
REMARK    4  A    between atoms: C_11  and  C_13
REMARK    5  A    between atoms: C_22  and  C_23
REMARK    6  A    between atoms: C_23  and  O_24
REMARK    7  A    between atoms: N_26  and  C_27
REMARK                            x       y       z     vdW  Elec       q    Type
REMARK                         _______ _______ _______ _____ _____    ______ ____
ROOT
ATOM      1  C   UNL     1       6.520   7.216  17.374  0.00  0.00    +0.000 C 
ATOM      2  C   UNL     1       5.326   7.127  16.426  0.00  0.00    +0.000 C 
ATOM      3  C   UNL     1       4.579   5.804  16.608  0.00  0.00    +0.000 C 
ATOM      4  C   UNL     1       3.843   5.629  17.886  0.00  0.00    +0.000 A 
ATOM      5  C   UNL     1       3.157   6.570  18.632  0.00  0.00    +0.000 A 
ATOM      6  C   UNL     1       2.613   6.198  19.863  0.00  0.00    +0.000 A 
ATOM      7  C   UNL     1       2.766   4.869  20.317  0.00  0.00    +0.000 A 
ATOM      8  C   UNL     1       3.422   3.910  19.523  0.00  0.00    +0.000 A 
ATOM      9  C   UNL     1       3.954   4.322  18.324  0.00  0.00    +0.000 A 
ATOM     10  O   UNL     1       4.755   3.557  17.504  0.00  0.00    +0.000 OA
ATOM     11  C   UNL     1       5.480   4.561  16.732  0.00  0.00    +0.000 C 
ATOM     12  C   UNL     1       6.881   4.823  17.346  0.00  0.00    +0.000 C 
ATOM     13  O   UNL     1       7.397   6.125  17.026  0.00  0.00    +0.000 OA
ENDROOT
BRANCH   6  14
ATOM     14  N   UNL     1       1.953   7.141  20.690  0.00  0.00    +0.000 N 
ATOM     15  C   UNL     1       1.545   8.404  20.272  0.00  0.00    +0.000 C 
ATOM     16  O   UNL     1       1.560   8.776  19.093  0.00  0.00    +0.000 OA
ATOM     17  H   UNL     1       1.715   6.843  21.626  0.00  0.00    +0.000 HD
BRANCH  15  18
ATOM     18  C   UNL     1       0.981   9.356  21.325  0.00  0.00    +0.000 C 
ATOM     19  C   UNL     1       0.110  10.599  21.033  0.00  0.00    +0.000 C 
ATOM     20  C   UNL     1      -0.602  10.307  22.376  0.00  0.00    +0.000 C 
ATOM     21  C   UNL     1      -0.237   8.829  22.142  0.00  0.00    +0.000 C 
ENDBRANCH  15  18
ENDBRANCH   6  14
BRANCH   1  22
ATOM     22  C   UNL     1       7.361   8.483  17.219  0.00  0.00    +0.000 C 
BRANCH  22  24
ATOM     23  O   UNL     1       8.794   7.945  19.104  0.00  0.00    +0.000 OA
ATOM     24  C   UNL     1       8.369   8.782  18.319  0.00  0.00    +0.000 C 
ATOM     25  N   UNL     1       8.777  10.103  18.284  0.00  0.00    +0.000 N 
ATOM     26  H   UNL     1       8.456  10.666  17.508  0.00  0.00    +0.000 HD
BRANCH  25  27
ATOM     27  C   UNL     1       9.712  10.725  19.222  0.00  0.00    +0.000 C 
ATOM     28  C   UNL     1      11.036  11.104  18.547  0.00  0.00    +0.000 C 
ATOM     29  C   UNL     1      10.879  12.206  17.498  0.00  0.00    +0.000 C 
ATOM     30  C   UNL     1      10.076  13.417  17.973  0.00  0.00    +0.000 C 
ATOM     31  C   UNL     1       8.839  13.080  18.802  0.00  0.00    +0.000 C 
ATOM     32  C   UNL     1       9.091  11.984  19.840  0.00  0.00    +0.000 C 
ENDBRANCH  25  27
ENDBRANCH  22  24
ENDBRANCH   1  22
BRANCH  12  33
ATOM     33  C   UNL     1       7.024   4.534  18.856  0.00  0.00    +0.000 C 
BRANCH  33  34
ATOM     34  O   UNL     1       8.217   5.112  19.392  0.00  0.00    +0.000 OA
ATOM     35  H   UNL     1       7.966   5.931  19.851  0.00  0.00    +0.000 HD
ENDBRANCH  33  34
ENDBRANCH  12  33
TORSDOF 7
ENDMDL
MODEL 4
REMARK VINA RESULT:      -8.5      0.960      1.070
REMARK  Name = 
REMARK  7 active torsions:
REMARK  status: ('A' for Active; 'I' for Inactive)
REMARK    1  A    between atoms: C_2  and  C_3
REMARK    2  A    between atoms: C_3  and  C_4
REMARK    3  A    between atoms: C_9  and  N_10
REMARK    4  A    between atoms: C_11  and  C_13
REMARK    5  A    between atoms: C_22  and  C_23
REMARK    6  A    between atoms: C_23  and  O_24
REMARK    7  A    between atoms: N_26  and  C_27
REMARK                            x       y       z     vdW  Elec       q    Type
REMARK                         _______ _______ _______ _____ _____    ______ ____
ROOT
ATOM      1  C   UNL     1       6.786   7.248  17.435  0.00  0.00    +0.000 C 
ATOM      2  C   UNL     1       5.828   6.939  16.286  0.00  0.00    +0.000 C 
ATOM      3  C   UNL     1       4.899   5.777  16.646  0.00  0.00    +0.000 C 
ATOM      4  C   UNL     1       3.885   6.041  17.698  0.00  0.00    +0.000 A 
ATOM      5  C   UNL     1       3.175   7.200  17.953  0.00  0.00    +0.000 A 
ATOM      6  C   UNL     1       2.332   7.251  19.066  0.00  0.00    +0.000 A 
ATOM      7  C   UNL     1       2.214   6.119  19.900  0.00  0.00    +0.000 A 
ATOM      8  C   UNL     1       2.902   4.929  19.598  0.00  0.00    +0.000 A 
ATOM      9  C   UNL     1       3.732   4.926  18.502  0.00  0.00    +0.000 A 
ATOM     10  O   UNL     1       4.591   3.905  18.157  0.00  0.00    +0.000 OA
ATOM     11  C   UNL     1       5.587   4.584  17.335  0.00  0.00    +0.000 C 
ATOM     12  C   UNL     1       6.841   4.945  18.176  0.00  0.00    +0.000 C 
ATOM     13  O   UNL     1       7.574   6.057  17.638  0.00  0.00    +0.000 OA
ENDROOT
BRANCH   6  14
ATOM     14  N   UNL     1       1.630   8.437  19.401  0.00  0.00    +0.000 N 
ATOM     15  C   UNL     1       1.174   8.747  20.678  0.00  0.00    +0.000 C 
ATOM     16  O   UNL     1       1.478   8.107  21.691  0.00  0.00    +0.000 OA
ATOM     17  H   UNL     1       1.511   9.121  18.666  0.00  0.00    +0.000 HD
BRANCH  15  18
ATOM     18  C   UNL     1       0.305   9.992  20.841  0.00  0.00    +0.000 C 
ATOM     19  C   UNL     1       0.783  11.449  20.646  0.00  0.00    +0.000 C 
ATOM     20  C   UNL     1      -0.645  11.756  20.130  0.00  0.00    +0.000 C 
ATOM     21  C   UNL     1      -0.700  10.282  19.686  0.00  0.00    +0.000 C 
ENDBRANCH  15  18
ENDBRANCH   6  14
BRANCH   1  22
ATOM     22  C   UNL     1       7.793   8.360  17.139  0.00  0.00    +0.000 C 
BRANCH  22  24
ATOM     23  O   UNL     1       8.881   8.346  19.310  0.00  0.00    +0.000 OA
ATOM     24  C   UNL     1       8.508   8.980  18.331  0.00  0.00    +0.000 C 
ATOM     25  N   UNL     1       8.724  10.332  18.144  0.00  0.00    +0.000 N 
ATOM     26  H   UNL     1       8.489  10.717  17.238  0.00  0.00    +0.000 HD
BRANCH  25  27
ATOM     27  C   UNL     1       9.356  11.230  19.111  0.00  0.00    +0.000 C 
ATOM     28  C   UNL     1      10.885  11.202  19.008  0.00  0.00    +0.000 C 
ATOM     29  C   UNL     1      11.408  11.764  17.684  0.00  0.00    +0.000 C 
ATOM     30  C   UNL     1      10.801  13.111  17.291  0.00  0.00    +0.000 C 
ATOM     31  C   UNL     1       9.301  13.238  17.545  0.00  0.00    +0.000 C 
ATOM     32  C   UNL     1       8.870  12.670  18.898  0.00  0.00    +0.000 C 
ENDBRANCH  25  27
ENDBRANCH  22  24
ENDBRANCH   1  22
BRANCH  12  33
ATOM     33  C   UNL     1       6.612   5.124  19.693  0.00  0.00    +0.000 C 
BRANCH  33  34
ATOM     34  O   UNL     1       7.804   5.549  20.359  0.00  0.00    +0.000 OA
ATOM     35  H   UNL     1       7.609   5.593  21.310  0.00  0.00    +0.000 HD
ENDBRANCH  33  34
ENDBRANCH  12  33
TORSDOF 7
ENDMDL
MODEL 5
REMARK VINA RESULT:      -8.5      1.129      1.569
REMARK  Name = 
REMARK  7 active torsions:
REMARK  status: ('A' for Active; 'I' for Inactive)
REMARK    1  A    between atoms: C_2  and  C_3
REMARK    2  A    between atoms: C_3  and  C_4
REMARK    3  A    between atoms: C_9  and  N_10
REMARK    4  A    between atoms: C_11  and  C_13
REMARK    5  A    between atoms: C_22  and  C_23
REMARK    6  A    between atoms: C_23  and  O_24
REMARK    7  A    between atoms: N_26  and  C_27
REMARK                            x       y       z     vdW  Elec       q    Type
REMARK                         _______ _______ _______ _____ _____    ______ ____
ROOT
ATOM      1  C   UNL     1       7.096   6.899  18.044  0.00  0.00    +0.000 C 
ATOM      2  C   UNL     1       6.412   7.225  16.718  0.00  0.00    +0.000 C 
ATOM      3  C   UNL     1       5.263   6.253  16.442  0.00  0.00    +0.000 C 
ATOM      4  C   UNL     1       4.073   6.366  17.324  0.00  0.00    +0.000 A 
ATOM      5  C   UNL     1       3.502   7.499  17.876  0.00  0.00    +0.000 A 
ATOM      6  C   UNL     1       2.431   7.359  18.761  0.00  0.00    +0.000 A 
ATOM      7  C   UNL     1       1.946   6.068  19.066  0.00  0.00    +0.000 A 
ATOM      8  C   UNL     1       2.504   4.929  18.457  0.00  0.00    +0.000 A 
ATOM      9  C   UNL     1       3.565   5.110  17.603  0.00  0.00    +0.000 A 
ATOM     10  O   UNL     1       4.322   4.101  17.047  0.00  0.00    +0.000 OA
ATOM     11  C   UNL     1       5.577   4.774  16.732  0.00  0.00    +0.000 C 
ATOM     12  C   UNL     1       6.628   4.532  17.849  0.00  0.00    +0.000 C 
ATOM     13  O   UNL     1       7.626   5.564  17.910  0.00  0.00    +0.000 OA
ENDROOT
BRANCH   6  14
ATOM     14  N   UNL     1       1.851   8.486  19.396  0.00  0.00    +0.000 N 
ATOM     15  C   UNL     1       1.074   9.441  18.750  0.00  0.00    +0.000 C 
ATOM     16  O   UNL     1       0.662   9.322  17.590  0.00  0.00    +0.000 OA
ATOM     17  H   UNL     1       1.970   8.558  20.398  0.00  0.00    +0.000 HD
BRANCH  15  18
ATOM     18  C   UNL     1       0.650  10.673  19.546  0.00  0.00    +0.000 C 
ATOM     19  C   UNL     1      -0.786  11.243  19.617  0.00  0.00    +0.000 C 
ATOM     20  C   UNL     1      -0.452  11.668  21.067  0.00  0.00    +0.000 C 
ATOM     21  C   UNL     1       0.534  10.485  21.089  0.00  0.00    +0.000 C 
ENDBRANCH  15  18
ENDBRANCH   6  14
BRANCH   1  22
ATOM     22  C   UNL     1       8.298   7.785  18.373  0.00  0.00    +0.000 C 
BRANCH  22  24
ATOM     23  O   UNL     1       7.420   9.694  17.155  0.00  0.00    +0.000 OA
ATOM     24  C   UNL     1       8.196   9.256  17.994  0.00  0.00    +0.000 C 
ATOM     25  N   UNL     1       9.053  10.033  18.751  0.00  0.00    +0.000 N 
ATOM     26  H   UNL     1       9.549   9.574  19.504  0.00  0.00    +0.000 HD
BRANCH  25  27
ATOM     27  C   UNL     1       9.227  11.479  18.616  0.00  0.00    +0.000 C 
ATOM     28  C   UNL     1       9.344  12.174  19.978  0.00  0.00    +0.000 C 
ATOM     29  C   UNL     1      10.611  11.785  20.742  0.00  0.00    +0.000 C 
ATOM     30  C   UNL     1      11.893  11.862  19.913  0.00  0.00    +0.000 C 
ATOM     31  C   UNL     1      11.766  11.338  18.485  0.00  0.00    +0.000 C 
ATOM     32  C   UNL     1      10.481  11.792  17.790  0.00  0.00    +0.000 C 
ENDBRANCH  25  27
ENDBRANCH  22  24
ENDBRANCH   1  22
BRANCH  12  33
ATOM     33  C   UNL     1       6.065   4.232  19.255  0.00  0.00    +0.000 C 
BRANCH  33  34
ATOM     34  O   UNL     1       5.464   2.935  19.315  0.00  0.00    +0.000 OA
ATOM     35  H   UNL     1       4.806   2.950  20.030  0.00  0.00    +0.000 HD
ENDBRANCH  33  34
ENDBRANCH  12  33
TORSDOF 7
ENDMDL
MODEL 6
REMARK VINA RESULT:      -8.0      1.525      1.808
REMARK  Name = 
REMARK  7 active torsions:
REMARK  status: ('A' for Active; 'I' for Inactive)
REMARK    1  A    between atoms: C_2  and  C_3
REMARK    2  A    between atoms: C_3  and  C_4
REMARK    3  A    between atoms: C_9  and  N_10
REMARK    4  A    between atoms: C_11  and  C_13
REMARK    5  A    between atoms: C_22  and  C_23
REMARK    6  A    between atoms: C_23  and  O_24
REMARK    7  A    between atoms: N_26  and  C_27
REMARK                            x       y       z     vdW  Elec       q    Type
REMARK                         _______ _______ _______ _____ _____    ______ ____
ROOT
ATOM      1  C   UNL     1       6.092   7.044  17.379  0.00  0.00    +0.000 C 
ATOM      2  C   UNL     1       4.877   7.195  16.467  0.00  0.00    +0.000 C 
ATOM      3  C   UNL     1       3.821   6.132  16.782  0.00  0.00    +0.000 C 
ATOM      4  C   UNL     1       3.121   6.260  18.086  0.00  0.00    +0.000 A 
ATOM      5  C   UNL     1       2.735   7.404  18.759  0.00  0.00    +0.000 A 
ATOM      6  C   UNL     1       2.167   7.287  20.030  0.00  0.00    +0.000 A 
ATOM      7  C   UNL     1       1.990   6.006  20.596  0.00  0.00    +0.000 A 
ATOM      8  C   UNL     1       2.341   4.848  19.878  0.00  0.00    +0.000 A 
ATOM      9  C   UNL     1       2.909   5.008  18.636  0.00  0.00    +0.000 A 
ATOM     10  O   UNL     1       3.448   3.997  17.871  0.00  0.00    +0.000 OA
ATOM     11  C   UNL     1       4.373   4.711  16.997  0.00  0.00    +0.000 C 
ATOM     12  C   UNL     1       5.820   4.646  17.556  0.00  0.00    +0.000 C 
ATOM     13  O   UNL     1       6.641   5.737  17.111  0.00  0.00    +0.000 OA
ENDROOT
BRANCH   6  14
ATOM     14  N   UNL     1       1.810   8.435  20.783  0.00  0.00    +0.000 N 
ATOM     15  C   UNL     1       0.539   8.675  21.295  0.00  0.00    +0.000 C 
ATOM     16  O   UNL     1      -0.371   7.838  21.298  0.00  0.00    +0.000 OA
ATOM     17  H   UNL     1       2.551   9.086  21.005  0.00  0.00    +0.000 HD
BRANCH  15  18
ATOM     18  C   UNL     1       0.281  10.028  21.955  0.00  0.00    +0.000 C 
ATOM     19  C   UNL     1      -0.572  11.169  21.354  0.00  0.00    +0.000 C 
ATOM     20  C   UNL     1      -0.968  11.520  22.809  0.00  0.00    +0.000 C 
ATOM     21  C   UNL     1      -0.739  10.033  23.133  0.00  0.00    +0.000 C 
ENDBRANCH  15  18
ENDBRANCH   6  14
BRANCH   1  22
ATOM     22  C   UNL     1       7.225   8.030  17.094  0.00  0.00    +0.000 C 
BRANCH  22  24
ATOM     23  O   UNL     1       8.595   7.533  19.037  0.00  0.00    +0.000 OA
ATOM     24  C   UNL     1       8.159   8.363  18.249  0.00  0.00    +0.000 C 
ATOM     25  N   UNL     1       8.488   9.705  18.262  0.00  0.00    +0.000 N 
ATOM     26  H   UNL     1       8.172  10.266  17.482  0.00  0.00    +0.000 HD
BRANCH  25  27
ATOM     27  C   UNL     1       9.338  10.359  19.258  0.00  0.00    +0.000 C 
ATOM     28  C   UNL     1      10.739  10.658  18.711  0.00  0.00    +0.000 C 
ATOM     29  C   UNL     1      10.735  11.695  17.586  0.00  0.00    +0.000 C 
ATOM     30  C   UNL     1       9.926  12.956  17.897  0.00  0.00    +0.000 C 
ATOM     31  C   UNL     1       8.597  12.706  18.605  0.00  0.00    +0.000 C 
ATOM     32  C   UNL     1       8.697  11.672  19.727  0.00  0.00    +0.000 C 
ENDBRANCH  25  27
ENDBRANCH  22  24
ENDBRANCH   1  22
BRANCH  12  33
ATOM     33  C   UNL     1       5.949   4.452  19.083  0.00  0.00    +0.000 C 
BRANCH  33  34
ATOM     34  O   UNL     1       5.453   3.175  19.495  0.00  0.00    +0.000 OA
ATOM     35  H   UNL     1       4.491   3.255  19.603  0.00  0.00    +0.000 HD
ENDBRANCH  33  34
ENDBRANCH  12  33
TORSDOF 7
ENDMDL
MODEL 7
REMARK VINA RESULT:      -7.9      0.893      1.004
REMARK  Name = 
REMARK  7 active torsions:
REMARK  status: ('A' for Active; 'I' for Inactive)
REMARK    1  A    between atoms: C_2  and  C_3
REMARK    2  A    between atoms: C_3  and  C_4
REMARK    3  A    between atoms: C_9  and  N_10
REMARK    4  A    between atoms: C_11  and  C_13
REMARK    5  A    between atoms: C_22  and  C_23
REMARK    6  A    between atoms: C_23  and  O_24
REMARK    7  A    between atoms: N_26  and  C_27
REMARK                            x       y       z     vdW  Elec       q    Type
REMARK                         _______ _______ _______ _____ _____    ______ ____
ROOT
ATOM      1  C   UNL     1       6.507   6.968  17.239  0.00  0.00    +0.000 C 
ATOM      2  C   UNL     1       5.439   6.967  16.148  0.00  0.00    +0.000 C 
ATOM      3  C   UNL     1       4.367   5.913  16.432  0.00  0.00    +0.000 C 
ATOM      4  C   UNL     1       3.477   6.169  17.593  0.00  0.00    +0.000 A 
ATOM      5  C   UNL     1       2.975   7.371  18.057  0.00  0.00    +0.000 A 
ATOM      6  C   UNL     1       2.225   7.386  19.236  0.00  0.00    +0.000 A 
ATOM      7  C   UNL     1       1.987   6.175  19.923  0.00  0.00    +0.000 A 
ATOM      8  C   UNL     1       2.461   4.953  19.410  0.00  0.00    +0.000 A 
ATOM      9  C   UNL     1       3.206   4.985  18.256  0.00  0.00    +0.000 A 
ATOM     10  O   UNL     1       3.871   3.910  17.707  0.00  0.00    +0.000 OA
ATOM     11  C   UNL     1       4.905   4.548  16.898  0.00  0.00    +0.000 C 
ATOM     12  C   UNL     1       6.252   4.600  17.667  0.00  0.00    +0.000 C 
ATOM     13  O   UNL     1       7.112   5.659  17.217  0.00  0.00    +0.000 OA
ENDROOT
BRANCH   6  14
ATOM     14  N   UNL     1       1.740   8.601  19.782  0.00  0.00    +0.000 N 
ATOM     15  C   UNL     1       1.052   9.569  19.058  0.00  0.00    +0.000 C 
ATOM     16  O   UNL     1       0.641   9.403  17.904  0.00  0.00    +0.000 OA
ATOM     17  H   UNL     1       1.855   8.734  20.778  0.00  0.00    +0.000 HD
BRANCH  15  18
ATOM     18  C   UNL     1       0.729  10.887  19.759  0.00  0.00    +0.000 C 
ATOM     19  C   UNL     1      -0.677  11.520  19.871  0.00  0.00    +0.000 C 
ATOM     20  C   UNL     1      -0.227  12.065  21.248  0.00  0.00    +0.000 C 
ATOM     21  C   UNL     1       0.716  10.849  21.317  0.00  0.00    +0.000 C 
ENDBRANCH  15  18
ENDBRANCH   6  14
BRANCH   1  22
ATOM     22  C   UNL     1       7.652   7.953  17.005  0.00  0.00    +0.000 C 
BRANCH  22  24
ATOM     23  O   UNL     1       8.712   7.823  19.186  0.00  0.00    +0.000 OA
ATOM     24  C   UNL     1       8.350   8.508  18.238  0.00  0.00    +0.000 C 
ATOM     25  N   UNL     1       8.565   9.869  18.128  0.00  0.00    +0.000 N 
ATOM     26  H   UNL     1       8.340  10.302  17.242  0.00  0.00    +0.000 HD
BRANCH  25  27
ATOM     27  C   UNL     1       9.180  10.715  19.151  0.00  0.00    +0.000 C 
ATOM     28  C   UNL     1      10.692  10.862  18.942  0.00  0.00    +0.000 C 
ATOM     29  C   UNL     1      11.050  11.621  17.663  0.00  0.00    +0.000 C 
ATOM     30  C   UNL     1      10.285  12.932  17.476  0.00  0.00    +0.000 C 
ATOM     31  C   UNL     1       8.805  12.869  17.845  0.00  0.00    +0.000 C 
ATOM     32  C   UNL     1       8.541  12.110  19.147  0.00  0.00    +0.000 C 
ENDBRANCH  25  27
ENDBRANCH  22  24
ENDBRANCH   1  22
BRANCH  12  33
ATOM     33  C   UNL     1       6.154   4.593  19.208  0.00  0.00    +0.000 C 
BRANCH  33  34
ATOM     34  O   UNL     1       5.620   3.359  19.696  0.00  0.00    +0.000 OA
ATOM     35  H   UNL     1       4.701   3.523  19.965  0.00  0.00    +0.000 HD
ENDBRANCH  33  34
ENDBRANCH  12  33
TORSDOF 7
ENDMDL
MODEL 8
REMARK VINA RESULT:      -7.8      4.887      7.316
REMARK  Name = 
REMARK  7 active torsions:
REMARK  status: ('A' for Active; 'I' for Inactive)
REMARK    1  A    between atoms: C_2  and  C_3
REMARK    2  A    between atoms: C_3  and  C_4
REMARK    3  A    between atoms: C_9  and  N_10
REMARK    4  A    between atoms: C_11  and  C_13
REMARK    5  A    between atoms: C_22  and  C_23
REMARK    6  A    between atoms: C_23  and  O_24
REMARK    7  A    between atoms: N_26  and  C_27
REMARK                            x       y       z     vdW  Elec       q    Type
REMARK                         _______ _______ _______ _____ _____    ______ ____
ROOT
ATOM      1  C   UNL     1       6.901  14.333  21.527  0.00  0.00    +0.000 C 
ATOM      2  C   UNL     1       5.912  15.355  22.084  0.00  0.00    +0.000 C 
ATOM      3  C   UNL     1       5.140  16.041  20.955  0.00  0.00    +0.000 C 
ATOM      4  C   UNL     1       4.171  15.199  20.208  0.00  0.00    +0.000 A 
ATOM      5  C   UNL     1       3.357  14.184  20.676  0.00  0.00    +0.000 A 
ATOM      6  C   UNL     1       2.585  13.457  19.766  0.00  0.00    +0.000 A 
ATOM      7  C   UNL     1       2.643  13.778  18.393  0.00  0.00    +0.000 A 
ATOM      8  C   UNL     1       3.437  14.848  17.938  0.00  0.00    +0.000 A 
ATOM      9  C   UNL     1       4.192  15.528  18.864  0.00  0.00    +0.000 A 
ATOM     10  O   UNL     1       5.133  16.491  18.571  0.00  0.00    +0.000 OA
ATOM     11  C   UNL     1       5.996  16.468  19.748  0.00  0.00    +0.000 C 
ATOM     12  C   UNL     1       7.253  15.595  19.493  0.00  0.00    +0.000 C 
ATOM     13  O   UNL     1       7.825  15.071  20.702  0.00  0.00    +0.000 OA
ENDROOT
BRANCH   6  14
ATOM     14  N   UNL     1       1.780  12.370  20.191  0.00  0.00    +0.000 N 
ATOM     15  C   UNL     1       0.540  12.502  20.806  0.00  0.00    +0.000 C 
ATOM     16  O   UNL     1      -0.073  13.572  20.895  0.00  0.00    +0.000 OA
ATOM     17  H   UNL     1       2.115  11.440  19.975  0.00  0.00    +0.000 HD
BRANCH  15  18
ATOM     18  C   UNL     1      -0.131  11.237  21.337  0.00  0.00    +0.000 C 
ATOM     19  C   UNL     1       0.605  10.022  21.947  0.00  0.00    +0.000 C 
ATOM     20  C   UNL     1      -0.628   9.847  22.866  0.00  0.00    +0.000 C 
ATOM     21  C   UNL     1      -0.837  11.365  22.721  0.00  0.00    +0.000 C 
ENDBRANCH  15  18
ENDBRANCH   6  14
BRANCH   1  22
ATOM     22  C   UNL     1       7.760  13.640  22.585  0.00  0.00    +0.000 C 
BRANCH  22  24
ATOM     23  O   UNL     1       8.104  11.241  22.736  0.00  0.00    +0.000 OA
ATOM     24  C   UNL     1       8.385  12.306  22.203  0.00  0.00    +0.000 C 
ATOM     25  N   UNL     1       9.268  12.446  21.148  0.00  0.00    +0.000 N 
ATOM     26  H   UNL     1       9.318  13.354  20.705  0.00  0.00    +0.000 HD
BRANCH  25  27
ATOM     27  C   UNL     1      10.062  11.367  20.560  0.00  0.00    +0.000 C 
ATOM     28  C   UNL     1       9.329  10.681  19.400  0.00  0.00    +0.000 C 
ATOM     29  C   UNL     1       9.123  11.600  18.195  0.00  0.00    +0.000 C 
ATOM     30  C   UNL     1      10.380  12.351  17.754  0.00  0.00    +0.000 C 
ATOM     31  C   UNL     1      11.232  12.899  18.897  0.00  0.00    +0.000 C 
ATOM     32  C   UNL     1      11.404  11.908  20.049  0.00  0.00    +0.000 C 
ENDBRANCH  25  27
ENDBRANCH  22  24
ENDBRANCH   1  22
BRANCH  12  33
ATOM     33  C   UNL     1       7.102  14.483  18.432  0.00  0.00    +0.000 C 
BRANCH  33  34
ATOM     34  O   UNL     1       7.453  14.949  17.127  0.00  0.00    +0.000 OA
ATOM     35  H   UNL     1       6.681  15.414  16.764  0.00  0.00    +0.000 HD
ENDBRANCH  33  34
ENDBRANCH  12  33
TORSDOF 7
ENDMDL
MODEL 9
REMARK VINA RESULT:      -7.8      5.722     10.877
REMARK  Name = 
REMARK  7 active torsions:
REMARK  status: ('A' for Active; 'I' for Inactive)
REMARK    1  A    between atoms: C_2  and  C_3
REMARK    2  A    between atoms: C_3  and  C_4
REMARK    3  A    between atoms: C_9  and  N_10
REMARK    4  A    between atoms: C_11  and  C_13
REMARK    5  A    between atoms: C_22  and  C_23
REMARK    6  A    between atoms: C_23  and  O_24
REMARK    7  A    between atoms: N_26  and  C_27
REMARK                            x       y       z     vdW  Elec       q    Type
REMARK                         _______ _______ _______ _____ _____    ______ ____
ROOT
ATOM      1  C   UNL     1      -2.135  10.525  18.522  0.00  0.00    +0.000 C 
ATOM      2  C   UNL     1      -0.801  10.727  17.806  0.00  0.00    +0.000 C 
ATOM      3  C   UNL     1       0.268  11.237  18.775  0.00  0.00    +0.000 C 
ATOM      4  C   UNL     1       0.732  10.282  19.814  0.00  0.00    +0.000 A 
ATOM      5  C   UNL     1       0.910   8.913  19.721  0.00  0.00    +0.000 A 
ATOM      6  C   UNL     1       1.267   8.195  20.865  0.00  0.00    +0.000 A 
ATOM      7  C   UNL     1       1.449   8.878  22.086  0.00  0.00    +0.000 A 
ATOM      8  C   UNL     1       1.314  10.278  22.153  0.00  0.00    +0.000 A 
ATOM      9  C   UNL     1       0.948  10.945  21.009  0.00  0.00    +0.000 A 
ATOM     10  O   UNL     1       0.623  12.282  20.936  0.00  0.00    +0.000 OA
ATOM     11  C   UNL     1      -0.198  12.350  19.732  0.00  0.00    +0.000 C 
ATOM     12  C   UNL     1      -1.708  12.317  20.092  0.00  0.00    +0.000 C 
ATOM     13  O   UNL     1      -2.527  11.820  19.022  0.00  0.00    +0.000 OA
ENDROOT
BRANCH   6  14
ATOM     14  N   UNL     1       1.404   6.784  20.832  0.00  0.00    +0.000 N 
ATOM     15  C   UNL     1       2.256   6.096  19.974  0.00  0.00    +0.000 C 
ATOM     16  O   UNL     1       3.110   6.643  19.267  0.00  0.00    +0.000 OA
ATOM     17  H   UNL     1       0.886   6.257  21.522  0.00  0.00    +0.000 HD
BRANCH  15  18
ATOM     18  C   UNL     1       2.175   4.571  19.962  0.00  0.00    +0.000 C 
ATOM     19  C   UNL     1       1.202   3.719  20.809  0.00  0.00    +0.000 C 
ATOM     20  C   UNL     1       1.183   2.721  19.625  0.00  0.00    +0.000 C 
ATOM     21  C   UNL     1       1.482   3.932  18.721  0.00  0.00    +0.000 C 
ENDBRANCH  15  18
ENDBRANCH   6  14
BRANCH   1  22
ATOM     22  C   UNL     1      -3.279  10.073  17.615  0.00  0.00    +0.000 C 
BRANCH  22  24
ATOM     23  O   UNL     1      -4.566  11.682  16.330  0.00  0.00    +0.000 OA
ATOM     24  C   UNL     1      -4.406  11.066  17.376  0.00  0.00    +0.000 C 
ATOM     25  N   UNL     1      -5.250  11.146  18.468  0.00  0.00    +0.000 N 
ATOM     26  H   UNL     1      -5.091  10.492  19.223  0.00  0.00    +0.000 HD
BRANCH  25  27
ATOM     27  C   UNL     1      -6.410  12.030  18.579  0.00  0.00    +0.000 C 
ATOM     28  C   UNL     1      -7.453  11.488  19.565  0.00  0.00    +0.000 C 
ATOM     29  C   UNL     1      -6.953  11.458  21.010  0.00  0.00    +0.000 C 
ATOM     30  C   UNL     1      -6.302  12.761  21.476  0.00  0.00    +0.000 C 
ATOM     31  C   UNL     1      -5.389  13.425  20.448  0.00  0.00    +0.000 C 
ATOM     32  C   UNL     1      -5.976  13.429  19.036  0.00  0.00    +0.000 C 
ENDBRANCH  25  27
ENDBRANCH  22  24
ENDBRANCH   1  22
BRANCH  12  33
ATOM     33  C   UNL     1      -2.071  11.626  21.425  0.00  0.00    +0.000 C 
BRANCH  33  34
ATOM     34  O   UNL     1      -1.852  12.491  22.542  0.00  0.00    +0.000 OA
ATOM     35  H   UNL     1      -2.542  13.175  22.524  0.00  0.00    +0.000 HD
ENDBRANCH  33  34
ENDBRANCH  12  33
TORSDOF 7
ENDMDL
