MODEL 1
REMARK VINA RESULT:      -8.0      0.000      0.000
REMARK  Name = 
REMARK  11 active torsions:
REMARK  status: ('A' for Active; 'I' for Inactive)
REMARK    1  A    between atoms: C_1  and  C_2
REMARK    2  A    between atoms: C_2  and  C_3
REMARK    3  A    between atoms: C_2  and  N_4
REMARK    4  A    between atoms: C_5  and  C_7
REMARK    5  A    between atoms: C_12  and  C_13
REMARK    6  A    between atoms: C_16  and  O_17
REMARK    7  A    between atoms: O_17  and  C_18
REMARK    8  A    between atoms: C_18  and  C_19
REMARK    9  A    between atoms: C_19  and  C_20
REMARK   10  A    between atoms: C_20  and  O_21
REMARK   11  A    between atoms: O_21  and  C_22
REMARK                            x       y       z     vdW  Elec       q    Type
REMARK                         _______ _______ _______ _____ _____    ______ ____
ROOT
ATOM      1  C   UNL     1       3.725   4.652  17.993  0.00  0.00    +0.000 A 
ATOM      2  C   UNL     1       3.426   4.092  19.245  0.00  0.00    +0.000 A 
ATOM      3  C   UNL     1       2.758   4.836  20.229  0.00  0.00    +0.000 A 
ATOM      4  C   UNL     1       2.415   6.146  19.896  0.00  0.00    +0.000 A 
ATOM      5  O   UNL     1       1.773   7.028  20.706  0.00  0.00    +0.000 OA
ATOM      6  C   UNL     1       1.624   8.199  20.008  0.00  0.00    +0.000 A 
ATOM      7  C   UNL     1       2.179   8.057  18.752  0.00  0.00    +0.000 A 
ATOM      8  C   UNL     1       2.691   6.736  18.672  0.00  0.00    +0.000 A 
ATOM      9  C   UNL     1       3.359   5.979  17.697  0.00  0.00    +0.000 A 
ENDROOT
BRANCH   6  10
ATOM     10  C   UNL     1       0.921   9.273  20.702  0.00  0.00    +0.000 A 
ATOM     11  C   UNL     1       0.045   8.978  21.750  0.00  0.00    +0.000 A 
ATOM     12  C   UNL     1      -0.674   9.986  22.392  0.00  0.00    +0.000 A 
ATOM     13  C   UNL     1      -0.536  11.315  21.999  0.00  0.00    +0.000 A 
ATOM     14  C   UNL     1       0.358  11.630  20.978  0.00  0.00    +0.000 A 
ATOM     15  C   UNL     1       1.083  10.617  20.334  0.00  0.00    +0.000 A 
BRANCH  13  16
ATOM     16  O   UNL     1      -1.225  12.371  22.549  0.00  0.00    +0.000 OA
BRANCH  16  17
ATOM     17  C   UNL     1      -2.575  12.078  22.922  0.00  0.00    +0.000 C 
BRANCH  17  18
ATOM     18  C   UNL     1      -3.562  12.812  22.031  0.00  0.00    +0.000 C 
BRANCH  18  19
ATOM     19  C   UNL     1      -3.010  13.032  20.631  0.00  0.00    +0.000 C 
BRANCH  19  20
ATOM     20  O   UNL     1      -3.961  12.501  19.704  0.00  0.00    +0.000 OA
BRANCH  20  21
ATOM     21  C   UNL     1      -3.436  11.709  18.720  0.00  0.00    +0.000 A 
ATOM     22  C   UNL     1      -4.254  11.518  17.606  0.00  0.00    +0.000 A 
ATOM     23  C   UNL     1      -3.820  10.728  16.539  0.00  0.00    +0.000 A 
ATOM     24  C   UNL     1      -2.556  10.144  16.578  0.00  0.00    +0.000 A 
ATOM     25  C   UNL     1      -1.725  10.353  17.678  0.00  0.00    +0.000 A 
ATOM     26  C   UNL     1      -2.163  11.137  18.747  0.00  0.00    +0.000 A 
ENDBRANCH  20  21
ENDBRANCH  19  20
ENDBRANCH  18  19
ENDBRANCH  17  18
ENDBRANCH  16  17
ENDBRANCH  13  16
ENDBRANCH   6  10
BRANCH   1  28
ATOM     27  N   UNL     1       4.963   4.518  15.834  0.00  0.00    +0.000 N 
ATOM     28  C   UNL     1       4.444   3.869  16.933  0.00  0.00    +0.000 C 
ATOM     29  N   UNL     1       4.560   2.594  17.116  0.00  0.00    +0.000 NA
ATOM     30  H   UNL     1       4.910   5.531  15.872  0.00  0.00    +0.000 HD
ATOM     31  H   UNL     1       5.037   2.172  16.321  0.00  0.00    +0.000 HD
BRANCH  27  33
ATOM     32  C   UNL     1       5.702   3.772  13.640  0.00  0.00    +0.000 C 
ATOM     33  C   UNL     1       6.126   4.052  15.081  0.00  0.00    +0.000 C 
ATOM     34  C   UNL     1       7.237   5.100  15.100  0.00  0.00    +0.000 C 
ENDBRANCH  27  33
ENDBRANCH   1  28
TORSDOF 9
ENDMDL
MODEL 2
REMARK VINA RESULT:      -8.0      6.772      9.963
REMARK  Name = 
REMARK  11 active torsions:
REMARK  status: ('A' for Active; 'I' for Inactive)
REMARK    1  A    between atoms: C_1  and  C_2
REMARK    2  A    between atoms: C_2  and  C_3
REMARK    3  A    between atoms: C_2  and  N_4
REMARK    4  A    between atoms: C_5  and  C_7
REMARK    5  A    between atoms: C_12  and  C_13
REMARK    6  A    between atoms: C_16  and  O_17
REMARK    7  A    between atoms: O_17  and  C_18
REMARK    8  A    between atoms: C_18  and  C_19
REMARK    9  A    between atoms: C_19  and  C_20
REMARK   10  A    between atoms: C_20  and  O_21
REMARK   11  A    between atoms: O_21  and  C_22
REMARK                            x       y       z     vdW  Elec       q    Type
REMARK                         _______ _______ _______ _____ _____    ______ ____
ROOT
ATOM      1  C   UNL     1      10.328  13.218  18.990  0.00  0.00    +0.000 A 
ATOM      2  C   UNL     1      10.817  12.474  20.076  0.00  0.00    +0.000 A 
ATOM      3  C   UNL     1      10.458  11.129  20.250  0.00  0.00    +0.000 A 
ATOM      4  C   UNL     1       9.600  10.583  19.297  0.00  0.00    +0.000 A 
ATOM      5  O   UNL     1       9.132   9.307  19.289  0.00  0.00    +0.000 OA
ATOM      6  C   UNL     1       8.322   9.169  18.191  0.00  0.00    +0.000 A 
ATOM      7  C   UNL     1       8.275  10.366  17.504  0.00  0.00    +0.000 A 
ATOM      8  C   UNL     1       9.095  11.282  18.212  0.00  0.00    +0.000 A 
ATOM      9  C   UNL     1       9.464  12.627  18.050  0.00  0.00    +0.000 A 
ENDROOT
BRANCH   6  10
ATOM     10  C   UNL     1       7.743   7.846  17.986  0.00  0.00    +0.000 A 
ATOM     11  C   UNL     1       6.759   7.652  17.013  0.00  0.00    +0.000 A 
ATOM     12  C   UNL     1       6.157   6.406  16.837  0.00  0.00    +0.000 A 
ATOM     13  C   UNL     1       6.525   5.323  17.631  0.00  0.00    +0.000 A 
ATOM     14  C   UNL     1       7.528   5.491  18.583  0.00  0.00    +0.000 A 
ATOM     15  C   UNL     1       8.135   6.743  18.760  0.00  0.00    +0.000 A 
BRANCH  13  16
ATOM     16  O   UNL     1       5.967   4.068  17.553  0.00  0.00    +0.000 OA
BRANCH  16  17
ATOM     17  C   UNL     1       4.542   4.051  17.432  0.00  0.00    +0.000 C 
BRANCH  17  18
ATOM     18  C   UNL     1       3.882   3.739  18.764  0.00  0.00    +0.000 C 
BRANCH  18  19
ATOM     19  C   UNL     1       2.701   4.657  19.043  0.00  0.00    +0.000 C 
BRANCH  19  20
ATOM     20  O   UNL     1       3.199   5.800  19.744  0.00  0.00    +0.000 OA
BRANCH  20  21
ATOM     21  C   UNL     1       2.571   6.979  19.453  0.00  0.00    +0.000 A 
ATOM     22  C   UNL     1       2.698   7.415  18.133  0.00  0.00    +0.000 A 
ATOM     23  C   UNL     1       2.098   8.607  17.722  0.00  0.00    +0.000 A 
ATOM     24  C   UNL     1       1.351   9.355  18.629  0.00  0.00    +0.000 A 
ATOM     25  C   UNL     1       1.199   8.911  19.941  0.00  0.00    +0.000 A 
ATOM     26  C   UNL     1       1.807   7.723  20.353  0.00  0.00    +0.000 A 
ENDBRANCH  20  21
ENDBRANCH  19  20
ENDBRANCH  18  19
ENDBRANCH  17  18
ENDBRANCH  16  17
ENDBRANCH  13  16
ENDBRANCH   6  10
BRANCH   1  28
ATOM     27  N   UNL     1       9.788  15.534  18.243  0.00  0.00    +0.000 N 
ATOM     28  C   UNL     1      10.699  14.659  18.794  0.00  0.00    +0.000 C 
ATOM     29  N   UNL     1      11.880  15.024  19.178  0.00  0.00    +0.000 NA
ATOM     30  H   UNL     1       8.861  15.148  18.098  0.00  0.00    +0.000 HD
ATOM     31  H   UNL     1      12.023  16.010  18.968  0.00  0.00    +0.000 HD
BRANCH  27  33
ATOM     32  C   UNL     1      10.349  17.719  17.334  0.00  0.00    +0.000 C 
ATOM     33  C   UNL     1       9.755  16.967  18.525  0.00  0.00    +0.000 C 
ATOM     34  C   UNL     1       8.322  17.436  18.771  0.00  0.00    +0.000 C 
ENDBRANCH  27  33
ENDBRANCH   1  28
TORSDOF 9
ENDMDL
MODEL 3
REMARK VINA RESULT:      -7.9      1.326      1.775
REMARK  Name = 
REMARK  11 active torsions:
REMARK  status: ('A' for Active; 'I' for Inactive)
REMARK    1  A    between atoms: C_1  and  C_2
REMARK    2  A    between atoms: C_2  and  C_3
REMARK    3  A    between atoms: C_2  and  N_4
REMARK    4  A    between atoms: C_5  and  C_7
REMARK    5  A    between atoms: C_12  and  C_13
REMARK    6  A    between atoms: C_16  and  O_17
REMARK    7  A    between atoms: O_17  and  C_18
REMARK    8  A    between atoms: C_18  and  C_19
REMARK    9  A    between atoms: C_19  and  C_20
REMARK   10  A    between atoms: C_20  and  O_21
REMARK   11  A    between atoms: O_21  and  C_22
REMARK                            x       y       z     vdW  Elec       q    Type
REMARK                         _______ _______ _______ _____ _____    ______ ____
ROOT
ATOM      1  C   UNL     1       3.306   4.380  18.493  0.00  0.00    +0.000 A 
ATOM      2  C   UNL     1       2.645   3.736  19.551  0.00  0.00    +0.000 A 
ATOM      3  C   UNL     1       1.874   4.463  20.470  0.00  0.00    +0.000 A 
ATOM      4  C   UNL     1       1.804   5.841  20.274  0.00  0.00    +0.000 A 
ATOM      5  O   UNL     1       1.117   6.720  21.052  0.00  0.00    +0.000 OA
ATOM      6  C   UNL     1       1.301   7.972  20.525  0.00  0.00    +0.000 A 
ATOM      7  C   UNL     1       2.111   7.885  19.411  0.00  0.00    +0.000 A 
ATOM      8  C   UNL     1       2.440   6.515  19.243  0.00  0.00    +0.000 A 
ATOM      9  C   UNL     1       3.208   5.774  18.331  0.00  0.00    +0.000 A 
ENDROOT
BRANCH   6  10
ATOM     10  C   UNL     1       0.610   9.061  21.207  0.00  0.00    +0.000 A 
ATOM     11  C   UNL     1       0.422   9.018  22.591  0.00  0.00    +0.000 A 
ATOM     12  C   UNL     1      -0.281  10.025  23.253  0.00  0.00    +0.000 A 
ATOM     13  C   UNL     1      -0.815  11.100  22.546  0.00  0.00    +0.000 A 
ATOM     14  C   UNL     1      -0.608  11.175  21.170  0.00  0.00    +0.000 A 
ATOM     15  C   UNL     1       0.100  10.164  20.504  0.00  0.00    +0.000 A 
BRANCH  13  16
ATOM     16  O   UNL     1      -1.548  12.120  23.105  0.00  0.00    +0.000 OA
BRANCH  16  17
ATOM     17  C   UNL     1      -2.159  13.006  22.164  0.00  0.00    +0.000 C 
BRANCH  17  18
ATOM     18  C   UNL     1      -3.484  13.535  22.688  0.00  0.00    +0.000 C 
BRANCH  18  19
ATOM     19  C   UNL     1      -4.476  13.796  21.565  0.00  0.00    +0.000 C 
BRANCH  19  20
ATOM     20  O   UNL     1      -3.958  13.185  20.381  0.00  0.00    +0.000 OA
BRANCH  20  21
ATOM     21  C   UNL     1      -4.830  12.365  19.720  0.00  0.00    +0.000 A 
ATOM     22  C   UNL     1      -6.082  12.216  20.319  0.00  0.00    +0.000 A 
ATOM     23  C   UNL     1      -7.054  11.403  19.732  0.00  0.00    +0.000 A 
ATOM     24  C   UNL     1      -6.779  10.751  18.531  0.00  0.00    +0.000 A 
ATOM     25  C   UNL     1      -5.539  10.917  17.916  0.00  0.00    +0.000 A 
ATOM     26  C   UNL     1      -4.566  11.725  18.508  0.00  0.00    +0.000 A 
ENDBRANCH  20  21
ENDBRANCH  19  20
ENDBRANCH  18  19
ENDBRANCH  17  18
ENDBRANCH  16  17
ENDBRANCH  13  16
ENDBRANCH   6  10
BRANCH   1  28
ATOM     27  N   UNL     1       4.641   4.252  16.392  0.00  0.00    +0.000 N 
ATOM     28  C   UNL     1       4.139   3.615  17.506  0.00  0.00    +0.000 C 
ATOM     29  N   UNL     1       4.367   2.368  17.764  0.00  0.00    +0.000 NA
ATOM     30  H   UNL     1       4.491   5.256  16.371  0.00  0.00    +0.000 HD
ATOM     31  H   UNL     1       4.915   1.953  17.013  0.00  0.00    +0.000 HD
BRANCH  27  33
ATOM     32  C   UNL     1       5.737   4.181  14.221  0.00  0.00    +0.000 C 
ATOM     33  C   UNL     1       5.873   3.861  15.710  0.00  0.00    +0.000 C 
ATOM     34  C   UNL     1       7.072   4.607  16.292  0.00  0.00    +0.000 C 
ENDBRANCH  27  33
ENDBRANCH   1  28
TORSDOF 9
ENDMDL
MODEL 4
REMARK VINA RESULT:      -7.7      4.344     10.526
REMARK  Name = 
REMARK  11 active torsions:
REMARK  status: ('A' for Active; 'I' for Inactive)
REMARK    1  A    between atoms: C_1  and  C_2
REMARK    2  A    between atoms: C_2  and  C_3
REMARK    3  A    between atoms: C_2  and  N_4
REMARK    4  A    between atoms: C_5  and  C_7
REMARK    5  A    between atoms: C_12  and  C_13
REMARK    6  A    between atoms: C_16  and  O_17
REMARK    7  A    between atoms: O_17  and  C_18
REMARK    8  A    between atoms: C_18  and  C_19
REMARK    9  A    between atoms: C_19  and  C_20
REMARK   10  A    between atoms: C_20  and  O_21
REMARK   11  A    between atoms: O_21  and  C_22
REMARK                            x       y       z     vdW  Elec       q    Type
REMARK                         _______ _______ _______ _____ _____    ______ ____
ROOT
ATOM      1  C   UNL     1      -2.381  12.784  21.583  0.00  0.00    +0.000 A 
ATOM      2  C   UNL     1      -1.735  12.298  22.731  0.00  0.00    +0.000 A 
ATOM      3  C   UNL     1      -0.738  11.315  22.637  0.00  0.00    +0.000 A 
ATOM      4  C   UNL     1      -0.434  10.855  21.357  0.00  0.00    +0.000 A 
ATOM      5  O   UNL     1       0.492   9.907  21.055  0.00  0.00    +0.000 OA
ATOM      6  C   UNL     1       0.487   9.742  19.693  0.00  0.00    +0.000 A 
ATOM      7  C   UNL     1      -0.449  10.588  19.133  0.00  0.00    +0.000 A 
ATOM      8  C   UNL     1      -1.048  11.308  20.200  0.00  0.00    +0.000 A 
ATOM      9  C   UNL     1      -2.042  12.292  20.309  0.00  0.00    +0.000 A 
ENDROOT
BRANCH   6  10
ATOM     10  C   UNL     1       1.446   8.780  19.162  0.00  0.00    +0.000 A 
ATOM     11  C   UNL     1       2.048   8.998  17.920  0.00  0.00    +0.000 A 
ATOM     12  C   UNL     1       2.928   8.065  17.373  0.00  0.00    +0.000 A 
ATOM     13  C   UNL     1       3.227   6.888  18.055  0.00  0.00    +0.000 A 
ATOM     14  C   UNL     1       2.662   6.670  19.310  0.00  0.00    +0.000 A 
ATOM     15  C   UNL     1       1.778   7.609  19.861  0.00  0.00    +0.000 A 
BRANCH  13  16
ATOM     16  O   UNL     1       4.056   5.897  17.583  0.00  0.00    +0.000 OA
BRANCH  16  17
ATOM     17  C   UNL     1       5.448   6.109  17.831  0.00  0.00    +0.000 C 
BRANCH  17  18
ATOM     18  C   UNL     1       6.115   4.842  18.340  0.00  0.00    +0.000 C 
BRANCH  18  19
ATOM     19  C   UNL     1       5.446   4.316  19.601  0.00  0.00    +0.000 C 
BRANCH  19  20
ATOM     20  O   UNL     1       4.854   3.054  19.281  0.00  0.00    +0.000 OA
BRANCH  20  21
ATOM     21  C   UNL     1       3.491   3.007  19.387  0.00  0.00    +0.000 A 
ATOM     22  C   UNL     1       2.983   3.223  20.668  0.00  0.00    +0.000 A 
ATOM     23  C   UNL     1       1.605   3.200  20.895  0.00  0.00    +0.000 A 
ATOM     24  C   UNL     1       0.732   2.979  19.831  0.00  0.00    +0.000 A 
ATOM     25  C   UNL     1       1.234   2.789  18.545  0.00  0.00    +0.000 A 
ATOM     26  C   UNL     1       2.612   2.805  18.322  0.00  0.00    +0.000 A 
ENDBRANCH  20  21
ENDBRANCH  19  20
ENDBRANCH  18  19
ENDBRANCH  17  18
ENDBRANCH  16  17
ENDBRANCH  13  16
ENDBRANCH   6  10
BRANCH   1  28
ATOM     27  N   UNL     1      -4.222  13.935  22.808  0.00  0.00    +0.000 N 
ATOM     28  C   UNL     1      -3.453  13.832  21.670  0.00  0.00    +0.000 C 
ATOM     29  N   UNL     1      -3.595  14.618  20.652  0.00  0.00    +0.000 NA
ATOM     30  H   UNL     1      -3.929  13.339  23.576  0.00  0.00    +0.000 HD
ATOM     31  H   UNL     1      -4.367  15.262  20.816  0.00  0.00    +0.000 HD
BRANCH  27  33
ATOM     32  C   UNL     1      -6.269  14.885  23.717  0.00  0.00    +0.000 C 
ATOM     33  C   UNL     1      -4.836  15.177  23.272  0.00  0.00    +0.000 C 
ATOM     34  C   UNL     1      -4.042  15.769  24.436  0.00  0.00    +0.000 C 
ENDBRANCH  27  33
ENDBRANCH   1  28
TORSDOF 9
ENDMDL
MODEL 5
REMARK VINA RESULT:      -7.7      4.448     10.588
REMARK  Name = 
REMARK  11 active torsions:
REMARK  status: ('A' for Active; 'I' for Inactive)
REMARK    1  A    between atoms: C_1  and  C_2
REMARK    2  A    between atoms: C_2  and  C_3
REMARK    3  A    between atoms: C_2  and  N_4
REMARK    4  A    between atoms: C_5  and  C_7
REMARK    5  A    between atoms: C_12  and  C_13
REMARK    6  A    between atoms: C_16  and  O_17
REMARK    7  A    between atoms: O_17  and  C_18
REMARK    8  A    between atoms: C_18  and  C_19
REMARK    9  A    between atoms: C_19  and  C_20
REMARK   10  A    between atoms: C_20  and  O_21
REMARK   11  A    between atoms: O_21  and  C_22
REMARK                            x       y       z     vdW  Elec       q    Type
REMARK                         _______ _______ _______ _____ _____    ______ ____
ROOT
ATOM      1  C   UNL     1      -2.254  13.023  22.640  0.00  0.00    +0.000 A 
ATOM      2  C   UNL     1      -2.743  13.141  21.330  0.00  0.00    +0.000 A 
ATOM      3  C   UNL     1      -2.195  12.384  20.283  0.00  0.00    +0.000 A 
ATOM      4  C   UNL     1      -1.152  11.522  20.616  0.00  0.00    +0.000 A 
ATOM      5  O   UNL     1      -0.486  10.711  19.751  0.00  0.00    +0.000 OA
ATOM      6  C   UNL     1       0.461  10.028  20.470  0.00  0.00    +0.000 A 
ATOM      7  C   UNL     1       0.397  10.413  21.794  0.00  0.00    +0.000 A 
ATOM      8  C   UNL     1      -0.640  11.376  21.896  0.00  0.00    +0.000 A 
ATOM      9  C   UNL     1      -1.198  12.139  22.933  0.00  0.00    +0.000 A 
ENDROOT
BRANCH   6  10
ATOM     10  C   UNL     1       1.267   9.072  19.718  0.00  0.00    +0.000 A 
ATOM     11  C   UNL     1       1.640   9.348  18.400  0.00  0.00    +0.000 A 
ATOM     12  C   UNL     1       2.367   8.424  17.650  0.00  0.00    +0.000 A 
ATOM     13  C   UNL     1       2.739   7.200  18.199  0.00  0.00    +0.000 A 
ATOM     14  C   UNL     1       2.404   6.922  19.523  0.00  0.00    +0.000 A 
ATOM     15  C   UNL     1       1.675   7.851  20.279  0.00  0.00    +0.000 A 
BRANCH  13  16
ATOM     16  O   UNL     1       3.426   6.215  17.528  0.00  0.00    +0.000 OA
BRANCH  16  17
ATOM     17  C   UNL     1       4.819   6.135  17.842  0.00  0.00    +0.000 C 
BRANCH  17  18
ATOM     18  C   UNL     1       5.453   4.905  17.216  0.00  0.00    +0.000 C 
BRANCH  18  19
ATOM     19  C   UNL     1       4.571   3.674  17.361  0.00  0.00    +0.000 C 
BRANCH  19  20
ATOM     20  O   UNL     1       4.514   3.345  18.752  0.00  0.00    +0.000 OA
BRANCH  20  21
ATOM     21  C   UNL     1       3.255   3.221  19.270  0.00  0.00    +0.000 A 
ATOM     22  C   UNL     1       2.254   2.921  18.345  0.00  0.00    +0.000 A 
ATOM     23  C   UNL     1       0.930   2.770  18.761  0.00  0.00    +0.000 A 
ATOM     24  C   UNL     1       0.608   2.900  20.110  0.00  0.00    +0.000 A 
ATOM     25  C   UNL     1       1.608   3.175  21.041  0.00  0.00    +0.000 A 
ATOM     26  C   UNL     1       2.931   3.333  20.623  0.00  0.00    +0.000 A 
ENDBRANCH  20  21
ENDBRANCH  19  20
ENDBRANCH  18  19
ENDBRANCH  17  18
ENDBRANCH  16  17
ENDBRANCH  13  16
ENDBRANCH   6  10
BRANCH   1  28
ATOM     27  N   UNL     1      -1.989  14.557  24.587  0.00  0.00    +0.000 N 
ATOM     28  C   UNL     1      -2.826  13.831  23.769  0.00  0.00    +0.000 C 
ATOM     29  N   UNL     1      -4.112  13.821  23.911  0.00  0.00    +0.000 NA
ATOM     30  H   UNL     1      -1.017  14.575  24.294  0.00  0.00    +0.000 HD
ATOM     31  H   UNL     1      -4.376  14.378  24.722  0.00  0.00    +0.000 HD
BRANCH  27  33
ATOM     32  C   UNL     1      -1.288  16.153  26.284  0.00  0.00    +0.000 C 
ATOM     33  C   UNL     1      -2.382  15.780  25.283  0.00  0.00    +0.000 C 
ATOM     34  C   UNL     1      -2.588  16.923  24.291  0.00  0.00    +0.000 C 
ENDBRANCH  27  33
ENDBRANCH   1  28
TORSDOF 9
ENDMDL
MODEL 6
REMARK VINA RESULT:      -7.7      3.997     10.051
REMARK  Name = 
REMARK  11 active torsions:
REMARK  status: ('A' for Active; 'I' for Inactive)
REMARK    1  A    between atoms: C_1  and  C_2
REMARK    2  A    between atoms: C_2  and  C_3
REMARK    3  A    between atoms: C_2  and  N_4
REMARK    4  A    between atoms: C_5  and  C_7
REMARK    5  A    between atoms: C_12  and  C_13
REMARK    6  A    between atoms: C_16  and  O_17
REMARK    7  A    between atoms: O_17  and  C_18
REMARK    8  A    between atoms: C_18  and  C_19
REMARK    9  A    between atoms: C_19  and  C_20
REMARK   10  A    between atoms: C_20  and  O_21
REMARK   11  A    between atoms: O_21  and  C_22
REMARK                            x       y       z     vdW  Elec       q    Type
REMARK                         _______ _______ _______ _____ _____    ______ ____
ROOT
ATOM      1  C   UNL     1      -1.871  11.992  20.271  0.00  0.00    +0.000 A 
ATOM      2  C   UNL     1      -1.930  12.013  18.868  0.00  0.00    +0.000 A 
ATOM      3  C   UNL     1      -1.098  11.187  18.098  0.00  0.00    +0.000 A 
ATOM      4  C   UNL     1      -0.222  10.358  18.797  0.00  0.00    +0.000 A 
ATOM      5  O   UNL     1       0.665   9.491  18.239  0.00  0.00    +0.000 OA
ATOM      6  C   UNL     1       1.333   8.867  19.261  0.00  0.00    +0.000 A 
ATOM      7  C   UNL     1       0.869   9.345  20.470  0.00  0.00    +0.000 A 
ATOM      8  C   UNL     1      -0.133  10.307  20.179  0.00  0.00    +0.000 A 
ATOM      9  C   UNL     1      -0.972  11.138  20.936  0.00  0.00    +0.000 A 
ENDROOT
BRANCH   6  10
ATOM     10  C   UNL     1       2.316   7.865  18.865  0.00  0.00    +0.000 A 
ATOM     11  C   UNL     1       2.537   6.740  19.664  0.00  0.00    +0.000 A 
ATOM     12  C   UNL     1       3.508   5.797  19.327  0.00  0.00    +0.000 A 
ATOM     13  C   UNL     1       4.284   5.957  18.182  0.00  0.00    +0.000 A 
ATOM     14  C   UNL     1       4.054   7.056  17.356  0.00  0.00    +0.000 A 
ATOM     15  C   UNL     1       3.077   8.003  17.693  0.00  0.00    +0.000 A 
BRANCH  13  16
ATOM     16  O   UNL     1       5.284   5.100  17.787  0.00  0.00    +0.000 OA
BRANCH  16  17
ATOM     17  C   UNL     1       4.896   4.135  16.806  0.00  0.00    +0.000 C 
BRANCH  17  18
ATOM     18  C   UNL     1       3.403   3.862  16.866  0.00  0.00    +0.000 C 
BRANCH  18  19
ATOM     19  C   UNL     1       3.099   2.372  16.935  0.00  0.00    +0.000 C 
BRANCH  19  20
ATOM     20  O   UNL     1       1.895   2.212  17.690  0.00  0.00    +0.000 OA
BRANCH  20  21
ATOM     21  C   UNL     1       1.999   2.503  19.022  0.00  0.00    +0.000 A 
ATOM     22  C   UNL     1       0.901   3.161  19.578  0.00  0.00    +0.000 A 
ATOM     23  C   UNL     1       0.897   3.508  20.930  0.00  0.00    +0.000 A 
ATOM     24  C   UNL     1       1.986   3.178  21.734  0.00  0.00    +0.000 A 
ATOM     25  C   UNL     1       3.073   2.498  21.189  0.00  0.00    +0.000 A 
ATOM     26  C   UNL     1       3.080   2.158  19.835  0.00  0.00    +0.000 A 
ENDBRANCH  20  21
ENDBRANCH  19  20
ENDBRANCH  18  19
ENDBRANCH  17  18
ENDBRANCH  16  17
ENDBRANCH  13  16
ENDBRANCH   6  10
BRANCH   1  28
ATOM     27  N   UNL     1      -2.923  12.603  22.447  0.00  0.00    +0.000 N 
ATOM     28  C   UNL     1      -2.751  12.875  21.107  0.00  0.00    +0.000 C 
ATOM     29  N   UNL     1      -3.306  13.885  20.519  0.00  0.00    +0.000 NA
ATOM     30  H   UNL     1      -2.338  11.856  22.808  0.00  0.00    +0.000 HD
ATOM     31  H   UNL     1      -3.898  14.388  21.178  0.00  0.00    +0.000 HD
BRANCH  27  33
ATOM     32  C   UNL     1      -4.046  12.977  24.572  0.00  0.00    +0.000 C 
ATOM     33  C   UNL     1      -3.216  13.616  23.458  0.00  0.00    +0.000 C 
ATOM     34  C   UNL     1      -1.925  14.190  24.038  0.00  0.00    +0.000 C 
ENDBRANCH  27  33
ENDBRANCH   1  28
TORSDOF 9
ENDMDL
MODEL 7
REMARK VINA RESULT:      -7.5      4.349     10.567
REMARK  Name = 
REMARK  11 active torsions:
REMARK  status: ('A' for Active; 'I' for Inactive)
REMARK    1  A    between atoms: C_1  and  C_2
REMARK    2  A    between atoms: C_2  and  C_3
REMARK    3  A    between atoms: C_2  and  N_4
REMARK    4  A    between atoms: C_5  and  C_7
REMARK    5  A    between atoms: C_12  and  C_13
REMARK    6  A    between atoms: C_16  and  O_17
REMARK    7  A    between atoms: O_17  and  C_18
REMARK    8  A    between atoms: C_18  and  C_19
REMARK    9  A    between atoms: C_19  and  C_20
REMARK   10  A    between atoms: C_20  and  O_21
REMARK   11  A    between atoms: O_21  and  C_22
REMARK                            x       y       z     vdW  Elec       q    Type
REMARK                         _______ _______ _______ _____ _____    ______ ____
ROOT
ATOM      1  C   UNL     1      -2.482  12.789  21.948  0.00  0.00    +0.000 A 
ATOM      2  C   UNL     1      -1.858  12.219  23.069  0.00  0.00    +0.000 A 
ATOM      3  C   UNL     1      -0.879  11.225  22.923  0.00  0.00    +0.000 A 
ATOM      4  C   UNL     1      -0.568  10.842  21.619  0.00  0.00    +0.000 A 
ATOM      5  O   UNL     1       0.344   9.898  21.266  0.00  0.00    +0.000 OA
ATOM      6  C   UNL     1       0.352   9.821  19.897  0.00  0.00    +0.000 A 
ATOM      7  C   UNL     1      -0.562  10.718  19.383  0.00  0.00    +0.000 A 
ATOM      8  C   UNL     1      -1.159  11.380  20.487  0.00  0.00    +0.000 A 
ATOM      9  C   UNL     1      -2.137  12.374  20.648  0.00  0.00    +0.000 A 
ENDROOT
BRANCH   6  10
ATOM     10  C   UNL     1       1.300   8.876  19.315  0.00  0.00    +0.000 A 
ATOM     11  C   UNL     1       1.668   8.986  17.972  0.00  0.00    +0.000 A 
ATOM     12  C   UNL     1       2.533   8.062  17.385  0.00  0.00    +0.000 A 
ATOM     13  C   UNL     1       3.050   7.004  18.129  0.00  0.00    +0.000 A 
ATOM     14  C   UNL     1       2.720   6.900  19.478  0.00  0.00    +0.000 A 
ATOM     15  C   UNL     1       1.852   7.829  20.069  0.00  0.00    +0.000 A 
BRANCH  13  16
ATOM     16  O   UNL     1       3.882   6.029  17.630  0.00  0.00    +0.000 OA
BRANCH  16  17
ATOM     17  C   UNL     1       5.007   5.718  18.457  0.00  0.00    +0.000 C 
BRANCH  17  18
ATOM     18  C   UNL     1       5.181   4.216  18.605  0.00  0.00    +0.000 C 
BRANCH  18  19
ATOM     19  C   UNL     1       4.545   3.454  17.453  0.00  0.00    +0.000 C 
BRANCH  19  20
ATOM     20  O   UNL     1       3.787   2.379  18.013  0.00  0.00    +0.000 OA
BRANCH  20  21
ATOM     21  C   UNL     1       2.916   2.736  19.005  0.00  0.00    +0.000 A 
ATOM     22  C   UNL     1       3.340   2.451  20.304  0.00  0.00    +0.000 A 
ATOM     23  C   UNL     1       2.533   2.773  21.397  0.00  0.00    +0.000 A 
ATOM     24  C   UNL     1       1.305   3.400  21.191  0.00  0.00    +0.000 A 
ATOM     25  C   UNL     1       0.890   3.710  19.897  0.00  0.00    +0.000 A 
ATOM     26  C   UNL     1       1.695   3.380  18.805  0.00  0.00    +0.000 A 
ENDBRANCH  20  21
ENDBRANCH  19  20
ENDBRANCH  18  19
ENDBRANCH  17  18
ENDBRANCH  16  17
ENDBRANCH  13  16
ENDBRANCH   6  10
BRANCH   1  28
ATOM     27  N   UNL     1      -3.490  14.726  23.151  0.00  0.00    +0.000 N 
ATOM     28  C   UNL     1      -3.536  13.850  22.089  0.00  0.00    +0.000 C 
ATOM     29  N   UNL     1      -4.450  13.901  21.175  0.00  0.00    +0.000 NA
ATOM     30  H   UNL     1      -2.657  14.654  23.727  0.00  0.00    +0.000 HD
ATOM     31  H   UNL     1      -5.119  14.637  21.395  0.00  0.00    +0.000 HD
BRANCH  27  33
ATOM     32  C   UNL     1      -5.010  16.260  24.270  0.00  0.00    +0.000 C 
ATOM     33  C   UNL     1      -4.024  16.086  23.116  0.00  0.00    +0.000 C 
ATOM     34  C   UNL     1      -2.898  17.111  23.237  0.00  0.00    +0.000 C 
ENDBRANCH  27  33
ENDBRANCH   1  28
TORSDOF 9
ENDMDL
MODEL 8
REMARK VINA RESULT:      -7.5      3.953     10.083
REMARK  Name = 
REMARK  11 active torsions:
REMARK  status: ('A' for Active; 'I' for Inactive)
REMARK    1  A    between atoms: C_1  and  C_2
REMARK    2  A    between atoms: C_2  and  C_3
REMARK    3  A    between atoms: C_2  and  N_4
REMARK    4  A    between atoms: C_5  and  C_7
REMARK    5  A    between atoms: C_12  and  C_13
REMARK    6  A    between atoms: C_16  and  O_17
REMARK    7  A    between atoms: O_17  and  C_18
REMARK    8  A    between atoms: C_18  and  C_19
REMARK    9  A    between atoms: C_19  and  C_20
REMARK   10  A    between atoms: C_20  and  O_21
REMARK   11  A    between atoms: O_21  and  C_22
REMARK                            x       y       z     vdW  Elec       q    Type
REMARK                         _______ _______ _______ _____ _____    ______ ____
ROOT
ATOM      1  C   UNL     1      -1.260  11.876  20.377  0.00  0.00    +0.000 A 
ATOM      2  C   UNL     1      -1.045  11.208  21.593  0.00  0.00    +0.000 A 
ATOM      3  C   UNL     1      -0.179  10.107  21.669  0.00  0.00    +0.000 A 
ATOM      4  C   UNL     1       0.445   9.721  20.484  0.00  0.00    +0.000 A 
ATOM      5  O   UNL     1       1.311   8.682  20.346  0.00  0.00    +0.000 OA
ATOM      6  C   UNL     1       1.698   8.638  19.031  0.00  0.00    +0.000 A 
ATOM      7  C   UNL     1       1.070   9.650  18.334  0.00  0.00    +0.000 A 
ATOM      8  C   UNL     1       0.260  10.352  19.264  0.00  0.00    +0.000 A 
ATOM      9  C   UNL     1      -0.609  11.453  19.204  0.00  0.00    +0.000 A 
ENDROOT
BRANCH   6  10
ATOM     10  C   UNL     1       2.663   7.600  18.683  0.00  0.00    +0.000 A 
ATOM     11  C   UNL     1       2.922   6.553  19.571  0.00  0.00    +0.000 A 
ATOM     12  C   UNL     1       3.877   5.580  19.278  0.00  0.00    +0.000 A 
ATOM     13  C   UNL     1       4.599   5.631  18.088  0.00  0.00    +0.000 A 
ATOM     14  C   UNL     1       4.329   6.650  17.176  0.00  0.00    +0.000 A 
ATOM     15  C   UNL     1       3.368   7.627  17.470  0.00  0.00    +0.000 A 
BRANCH  13  16
ATOM     16  O   UNL     1       5.580   4.738  17.727  0.00  0.00    +0.000 OA
BRANCH  16  17
ATOM     17  C   UNL     1       5.457   4.212  16.403  0.00  0.00    +0.000 C 
BRANCH  17  18
ATOM     18  C   UNL     1       4.310   3.221  16.310  0.00  0.00    +0.000 C 
BRANCH  18  19
ATOM     19  C   UNL     1       4.247   2.308  17.526  0.00  0.00    +0.000 C 
BRANCH  19  20
ATOM     20  O   UNL     1       2.873   1.988  17.754  0.00  0.00    +0.000 OA
BRANCH  20  21
ATOM     21  C   UNL     1       2.358   2.441  18.937  0.00  0.00    +0.000 A 
ATOM     22  C   UNL     1       3.194   2.301  20.046  0.00  0.00    +0.000 A 
ATOM     23  C   UNL     1       2.773   2.730  21.306  0.00  0.00    +0.000 A 
ATOM     24  C   UNL     1       1.520   3.321  21.455  0.00  0.00    +0.000 A 
ATOM     25  C   UNL     1       0.693   3.487  20.345  0.00  0.00    +0.000 A 
ATOM     26  C   UNL     1       1.111   3.050  19.087  0.00  0.00    +0.000 A 
ENDBRANCH  20  21
ENDBRANCH  19  20
ENDBRANCH  18  19
ENDBRANCH  17  18
ENDBRANCH  16  17
ENDBRANCH  13  16
ENDBRANCH   6  10
BRANCH   1  28
ATOM     27  N   UNL     1      -3.401  13.025  20.935  0.00  0.00    +0.000 N 
ATOM     28  C   UNL     1      -2.189  13.051  20.280  0.00  0.00    +0.000 C 
ATOM     29  N   UNL     1      -1.789  14.065  19.582  0.00  0.00    +0.000 NA
ATOM     30  H   UNL     1      -3.539  12.224  21.544  0.00  0.00    +0.000 HD
ATOM     31  H   UNL     1      -2.513  14.782  19.567  0.00  0.00    +0.000 HD
BRANCH  27  33
ATOM     32  C   UNL     1      -5.581  13.889  21.581  0.00  0.00    +0.000 C 
ATOM     33  C   UNL     1      -4.097  14.216  21.419  0.00  0.00    +0.000 C 
ATOM     34  C   UNL     1      -3.518  14.674  22.756  0.00  0.00    +0.000 C 
ENDBRANCH  27  33
ENDBRANCH   1  28
TORSDOF 9
ENDMDL
MODEL 9
REMARK VINA RESULT:      -7.5      1.968      2.946
REMARK  Name = 
REMARK  11 active torsions:
REMARK  status: ('A' for Active; 'I' for Inactive)
REMARK    1  A    between atoms: C_1  and  C_2
REMARK    2  A    between atoms: C_2  and  C_3
REMARK    3  A    between atoms: C_2  and  N_4
REMARK    4  A    between atoms: C_5  and  C_7
REMARK    5  A    between atoms: C_12  and  C_13
REMARK    6  A    between atoms: C_16  and  O_17
REMARK    7  A    between atoms: O_17  and  C_18
REMARK    8  A    between atoms: C_18  and  C_19
REMARK    9  A    between atoms: C_19  and  C_20
REMARK   10  A    between atoms: C_20  and  O_21
REMARK   11  A    between atoms: O_21  and  C_22
REMARK                            x       y       z     vdW  Elec       q    Type
REMARK                         _______ _______ _______ _____ _____    ______ ____
ROOT
ATOM      1  C   UNL     1       3.757   6.009  17.962  0.00  0.00    +0.000 A 
ATOM      2  C   UNL     1       3.664   7.140  17.135  0.00  0.00    +0.000 A 
ATOM      3  C   UNL     1       2.906   8.255  17.521  0.00  0.00    +0.000 A 
ATOM      4  C   UNL     1       2.260   8.176  18.753  0.00  0.00    +0.000 A 
ATOM      5  O   UNL     1       1.477   9.142  19.303  0.00  0.00    +0.000 OA
ATOM      6  C   UNL     1       1.034   8.677  20.514  0.00  0.00    +0.000 A 
ATOM      7  C   UNL     1       1.536   7.409  20.729  0.00  0.00    +0.000 A 
ATOM      8  C   UNL     1       2.326   7.079  19.598  0.00  0.00    +0.000 A 
ATOM      9  C   UNL     1       3.089   5.970  19.200  0.00  0.00    +0.000 A 
ENDROOT
BRANCH   6  10
ATOM     10  C   UNL     1       0.197   9.591  21.283  0.00  0.00    +0.000 A 
ATOM     11  C   UNL     1      -0.355  10.722  20.673  0.00  0.00    +0.000 A 
ATOM     12  C   UNL     1      -1.116  11.634  21.404  0.00  0.00    +0.000 A 
ATOM     13  C   UNL     1      -1.344  11.438  22.764  0.00  0.00    +0.000 A 
ATOM     14  C   UNL     1      -0.829  10.299  23.380  0.00  0.00    +0.000 A 
ATOM     15  C   UNL     1      -0.065   9.381  22.646  0.00  0.00    +0.000 A 
BRANCH  13  16
ATOM     16  O   UNL     1      -2.052  12.297  23.572  0.00  0.00    +0.000 OA
BRANCH  16  17
ATOM     17  C   UNL     1      -3.144  12.961  22.930  0.00  0.00    +0.000 C 
BRANCH  17  18
ATOM     18  C   UNL     1      -4.441  12.748  23.693  0.00  0.00    +0.000 C 
BRANCH  18  19
ATOM     19  C   UNL     1      -5.525  13.720  23.253  0.00  0.00    +0.000 C 
BRANCH  19  20
ATOM     20  O   UNL     1      -5.536  13.737  21.823  0.00  0.00    +0.000 OA
BRANCH  20  21
ATOM     21  C   UNL     1      -6.189  12.690  21.234  0.00  0.00    +0.000 A 
ATOM     22  C   UNL     1      -5.612  12.212  20.056  0.00  0.00    +0.000 A 
ATOM     23  C   UNL     1      -6.192  11.144  19.368  0.00  0.00    +0.000 A 
ATOM     24  C   UNL     1      -7.343  10.540  19.871  0.00  0.00    +0.000 A 
ATOM     25  C   UNL     1      -7.908  10.997  21.060  0.00  0.00    +0.000 A 
ATOM     26  C   UNL     1      -7.331  12.069  21.743  0.00  0.00    +0.000 A 
ENDBRANCH  20  21
ENDBRANCH  19  20
ENDBRANCH  18  19
ENDBRANCH  17  18
ENDBRANCH  16  17
ENDBRANCH  13  16
ENDBRANCH   6  10
BRANCH   1  28
ATOM     27  N   UNL     1       4.967   4.658  16.251  0.00  0.00    +0.000 N 
ATOM     28  C   UNL     1       4.560   4.805  17.559  0.00  0.00    +0.000 C 
ATOM     29  N   UNL     1       4.854   3.953  18.487  0.00  0.00    +0.000 NA
ATOM     30  H   UNL     1       4.774   5.454  15.652  0.00  0.00    +0.000 HD
ATOM     31  H   UNL     1       5.371   3.171  18.088  0.00  0.00    +0.000 HD
BRANCH  27  33
ATOM     32  C   UNL     1       6.198   3.843  14.318  0.00  0.00    +0.000 C 
ATOM     33  C   UNL     1       6.170   3.935  15.843  0.00  0.00    +0.000 C 
ATOM     34  C   UNL     1       7.424   4.649  16.344  0.00  0.00    +0.000 C 
ENDBRANCH  27  33
ENDBRANCH   1  28
TORSDOF 9
ENDMDL
