MODEL 1
REMARK VINA RESULT:      -7.1      0.000      0.000
REMARK  Name = 
REMARK  6 active torsions:
REMARK  status: ('A' for Active; 'I' for Inactive)
REMARK    1  A    between atoms: C_5  and  O_6
REMARK    2  A    between atoms: O_6  and  C_7
REMARK    3  A    between atoms: C_7  and  C_8
REMARK    4  A    between atoms: C_14  and  C_15
REMARK    5  A    between atoms: C_15  and  C_16
REMARK    6  A    between atoms: C_16  and  C_17
REMARK                            x       y       z     vdW  Elec       q    Type
REMARK                         _______ _______ _______ _____ _____    ______ ____
ROOT
ATOM      1 CL   UNL     1       5.521   4.779  19.823  0.00  0.00    +0.000 Cl
ATOM      2  C   UNL     1       5.692   5.177  18.161  0.00  0.00    +0.000 A 
ATOM      3  N   UNL     1       6.755   4.526  17.635  0.00  0.00    +0.000 NA
ATOM      4  C   UNL     1       6.971   4.670  16.313  0.00  0.00    +0.000 A 
ATOM      5  C   UNL     1       6.178   5.434  15.472  0.00  0.00    +0.000 A 
ATOM      6  C   UNL     1       5.107   6.110  16.051  0.00  0.00    +0.000 A 
ATOM      7  C   UNL     1       4.834   6.007  17.436  0.00  0.00    +0.000 A 
ENDROOT
BRANCH   5   8
ATOM      8  O   UNL     1       6.530   5.424  14.157  0.00  0.00    +0.000 OA
BRANCH   8   9
ATOM      9  C   UNL     1       7.145   4.240  13.648  0.00  0.00    +0.000 C 
BRANCH   9  10
ATOM     10  C   UNL     1       6.394   3.800  12.385  0.00  0.00    +0.000 C 
ATOM     11  C   UNL     1       4.881   3.829  12.551  0.00  0.00    +0.000 C 
ATOM     12  C   UNL     1       4.407   2.950  11.411  0.00  0.00    +0.000 C 
ATOM     13  C   UNL     1       5.529   1.940  11.215  0.00  0.00    +0.000 C 
ATOM     14  N   UNL     1       6.663   2.401  12.023  0.00  0.00    +0.000 NA
ATOM     15  H   UNL     1       7.531   2.325  11.494  0.00  0.00    +0.000 HD
ENDBRANCH   9  10
ENDBRANCH   8   9
ENDBRANCH   5   8
BRANCH   7  16
ATOM     16  C   UNL     1       3.594   6.717  17.945  0.00  0.00    +0.000 C 
BRANCH  16  17
ATOM     17  C   UNL     1       2.226   6.042  17.766  0.00  0.00    +0.000 C 
BRANCH  17  18
ATOM     18  C   UNL     1       2.082   4.609  18.236  0.00  0.00    +0.000 A 
ATOM     19  C   UNL     1       2.352   3.486  17.452  0.00  0.00    +0.000 A 
ATOM     20  C   UNL     1       2.225   2.226  18.025  0.00  0.00    +0.000 A 
ATOM     21  N   UNL     1       1.856   2.010  19.305  0.00  0.00    +0.000 NA
ATOM     22  C   UNL     1       1.601   3.104  20.050  0.00  0.00    +0.000 A 
ATOM     23  C   UNL     1       1.697   4.399  19.567  0.00  0.00    +0.000 A 
ENDBRANCH  17  18
ENDBRANCH  16  17
ENDBRANCH   7  16
TORSDOF 6
ENDMDL
MODEL 2
REMARK VINA RESULT:      -7.0      3.712      7.396
REMARK  Name = 
REMARK  6 active torsions:
REMARK  status: ('A' for Active; 'I' for Inactive)
REMARK    1  A    between atoms: C_5  and  O_6
REMARK    2  A    between atoms: O_6  and  C_7
REMARK    3  A    between atoms: C_7  and  C_8
REMARK    4  A    between atoms: C_14  and  C_15
REMARK    5  A    between atoms: C_15  and  C_16
REMARK    6  A    between atoms: C_16  and  C_17
REMARK                            x       y       z     vdW  Elec       q    Type
REMARK                         _______ _______ _______ _____ _____    ______ ____
ROOT
ATOM      1 CL   UNL     1       1.815   2.661  20.341  0.00  0.00    +0.000 Cl
ATOM      2  C   UNL     1       1.929   4.274  19.762  0.00  0.00    +0.000 A 
ATOM      3  N   UNL     1       1.631   5.145  20.753  0.00  0.00    +0.000 NA
ATOM      4  C   UNL     1       1.759   6.458  20.476  0.00  0.00    +0.000 A 
ATOM      5  C   UNL     1       2.172   6.960  19.254  0.00  0.00    +0.000 A 
ATOM      6  C   UNL     1       2.447   6.036  18.248  0.00  0.00    +0.000 A 
ATOM      7  C   UNL     1       2.322   4.644  18.474  0.00  0.00    +0.000 A 
ENDROOT
BRANCH   5   8
ATOM      8  O   UNL     1       2.281   8.315  19.177  0.00  0.00    +0.000 OA
BRANCH   8   9
ATOM      9  C   UNL     1       1.826   8.944  17.978  0.00  0.00    +0.000 C 
BRANCH   9  10
ATOM     10  C   UNL     1       0.898  10.106  18.356  0.00  0.00    +0.000 C 
ATOM     11  C   UNL     1       0.595  10.165  19.847  0.00  0.00    +0.000 C 
ATOM     12  C   UNL     1      -0.643  11.040  19.897  0.00  0.00    +0.000 C 
ATOM     13  C   UNL     1      -1.358  10.766  18.582  0.00  0.00    +0.000 C 
ATOM     14  N   UNL     1      -0.435   9.988  17.749  0.00  0.00    +0.000 NA
ATOM     15  H   UNL     1      -0.430  10.345  16.794  0.00  0.00    +0.000 HD
ENDBRANCH   9  10
ENDBRANCH   8   9
ENDBRANCH   5   8
BRANCH   7  16
ATOM     16  C   UNL     1       2.727   3.726  17.336  0.00  0.00    +0.000 C 
BRANCH  16  17
ATOM     17  C   UNL     1       4.138   3.118  17.339  0.00  0.00    +0.000 C 
BRANCH  17  18
ATOM     18  C   UNL     1       5.260   3.942  16.743  0.00  0.00    +0.000 A 
ATOM     19  C   UNL     1       5.463   4.131  15.374  0.00  0.00    +0.000 A 
ATOM     20  C   UNL     1       6.506   4.953  14.962  0.00  0.00    +0.000 A 
ATOM     21  N   UNL     1       7.346   5.591  15.804  0.00  0.00    +0.000 NA
ATOM     22  C   UNL     1       7.136   5.401  17.121  0.00  0.00    +0.000 A 
ATOM     23  C   UNL     1       6.126   4.598  17.628  0.00  0.00    +0.000 A 
ENDBRANCH  17  18
ENDBRANCH  16  17
ENDBRANCH   7  16
TORSDOF 6
ENDMDL
MODEL 3
REMARK VINA RESULT:      -6.9      3.087      5.526
REMARK  Name = 
REMARK  6 active torsions:
REMARK  status: ('A' for Active; 'I' for Inactive)
REMARK    1  A    between atoms: C_5  and  O_6
REMARK    2  A    between atoms: O_6  and  C_7
REMARK    3  A    between atoms: C_7  and  C_8
REMARK    4  A    between atoms: C_14  and  C_15
REMARK    5  A    between atoms: C_15  and  C_16
REMARK    6  A    between atoms: C_16  and  C_17
REMARK                            x       y       z     vdW  Elec       q    Type
REMARK                         _______ _______ _______ _____ _____    ______ ____
ROOT
ATOM      1 CL   UNL     1       1.571   2.410  21.323  0.00  0.00    +0.000 Cl
ATOM      2  C   UNL     1       2.359   3.086  19.954  0.00  0.00    +0.000 A 
ATOM      3  N   UNL     1       2.993   2.115  19.257  0.00  0.00    +0.000 NA
ATOM      4  C   UNL     1       3.590   2.477  18.104  0.00  0.00    +0.000 A 
ATOM      5  C   UNL     1       3.591   3.765  17.598  0.00  0.00    +0.000 A 
ATOM      6  C   UNL     1       2.950   4.745  18.353  0.00  0.00    +0.000 A 
ATOM      7  C   UNL     1       2.313   4.430  19.577  0.00  0.00    +0.000 A 
ENDROOT
BRANCH   5   8
ATOM      8  O   UNL     1       4.211   3.928  16.396  0.00  0.00    +0.000 OA
BRANCH   8   9
ATOM      9  C   UNL     1       5.639   3.960  16.392  0.00  0.00    +0.000 C 
BRANCH   9  10
ATOM     10  C   UNL     1       6.110   4.988  17.429  0.00  0.00    +0.000 C 
ATOM     11  C   UNL     1       6.855   6.161  16.809  0.00  0.00    +0.000 C 
ATOM     12  C   UNL     1       7.590   6.750  17.998  0.00  0.00    +0.000 C 
ATOM     13  C   UNL     1       7.859   5.561  18.908  0.00  0.00    +0.000 C 
ATOM     14  N   UNL     1       7.088   4.433  18.374  0.00  0.00    +0.000 NA
ATOM     15  H   UNL     1       6.619   3.934  19.130  0.00  0.00    +0.000 HD
ENDBRANCH   9  10
ENDBRANCH   8   9
ENDBRANCH   5   8
BRANCH   7  16
ATOM     16  C   UNL     1       1.574   5.557  20.275  0.00  0.00    +0.000 C 
BRANCH  16  17
ATOM     17  C   UNL     1       2.293   6.897  20.486  0.00  0.00    +0.000 C 
BRANCH  17  18
ATOM     18  C   UNL     1       1.698   8.125  19.829  0.00  0.00    +0.000 A 
ATOM     19  C   UNL     1       0.848   9.032  20.466  0.00  0.00    +0.000 A 
ATOM     20  C   UNL     1       0.411  10.147  19.760  0.00  0.00    +0.000 A 
ATOM     21  N   UNL     1       0.758  10.419  18.484  0.00  0.00    +0.000 NA
ATOM     22  C   UNL     1       1.580   9.536  17.884  0.00  0.00    +0.000 A 
ATOM     23  C   UNL     1       2.065   8.396  18.504  0.00  0.00    +0.000 A 
ENDBRANCH  17  18
ENDBRANCH  16  17
ENDBRANCH   7  16
TORSDOF 6
ENDMDL
MODEL 4
REMARK VINA RESULT:      -6.8      3.089      5.164
REMARK  Name = 
REMARK  6 active torsions:
REMARK  status: ('A' for Active; 'I' for Inactive)
REMARK    1  A    between atoms: C_5  and  O_6
REMARK    2  A    between atoms: O_6  and  C_7
REMARK    3  A    between atoms: C_7  and  C_8
REMARK    4  A    between atoms: C_14  and  C_15
REMARK    5  A    between atoms: C_15  and  C_16
REMARK    6  A    between atoms: C_16  and  C_17
REMARK                            x       y       z     vdW  Elec       q    Type
REMARK                         _______ _______ _______ _____ _____    ______ ____
ROOT
ATOM      1 CL   UNL     1       0.342   2.475  19.133  0.00  0.00    +0.000 Cl
ATOM      2  C   UNL     1       1.957   3.046  19.266  0.00  0.00    +0.000 A 
ATOM      3  N   UNL     1       2.811   2.154  18.713  0.00  0.00    +0.000 NA
ATOM      4  C   UNL     1       4.113   2.501  18.664  0.00  0.00    +0.000 A 
ATOM      5  C   UNL     1       4.619   3.699  19.138  0.00  0.00    +0.000 A 
ATOM      6  C   UNL     1       3.716   4.583  19.723  0.00  0.00    +0.000 A 
ATOM      7  C   UNL     1       2.338   4.273  19.814  0.00  0.00    +0.000 A 
ENDROOT
BRANCH   5   8
ATOM      8  O   UNL     1       5.956   3.887  18.962  0.00  0.00    +0.000 OA
BRANCH   8   9
ATOM      9  C   UNL     1       6.424   5.233  18.866  0.00  0.00    +0.000 C 
BRANCH   9  10
ATOM     10  C   UNL     1       6.538   5.608  17.382  0.00  0.00    +0.000 C 
ATOM     11  C   UNL     1       5.210   5.522  16.642  0.00  0.00    +0.000 C 
ATOM     12  C   UNL     1       5.645   5.471  15.191  0.00  0.00    +0.000 C 
ATOM     13  C   UNL     1       6.998   4.775  15.221  0.00  0.00    +0.000 C 
ATOM     14  N   UNL     1       7.400   4.687  16.629  0.00  0.00    +0.000 NA
ATOM     15  H   UNL     1       8.381   4.941  16.735  0.00  0.00    +0.000 HD
ENDBRANCH   9  10
ENDBRANCH   8   9
ENDBRANCH   5   8
BRANCH   7  16
ATOM     16  C   UNL     1       1.431   5.343  20.393  0.00  0.00    +0.000 C 
BRANCH  16  17
ATOM     17  C   UNL     1       2.040   6.696  20.790  0.00  0.00    +0.000 C 
BRANCH  17  18
ATOM     18  C   UNL     1       1.686   7.902  19.945  0.00  0.00    +0.000 A 
ATOM     19  C   UNL     1       0.891   8.966  20.376  0.00  0.00    +0.000 A 
ATOM     20  C   UNL     1       0.684  10.037  19.514  0.00  0.00    +0.000 A 
ATOM     21  N   UNL     1       1.207  10.120  18.272  0.00  0.00    +0.000 NA
ATOM     22  C   UNL     1       1.973   9.087  17.871  0.00  0.00    +0.000 A 
ATOM     23  C   UNL     1       2.234   7.976  18.657  0.00  0.00    +0.000 A 
ENDBRANCH  17  18
ENDBRANCH  16  17
ENDBRANCH   7  16
TORSDOF 6
ENDMDL
MODEL 5
REMARK VINA RESULT:      -6.7      4.323      6.235
REMARK  Name = 
REMARK  6 active torsions:
REMARK  status: ('A' for Active; 'I' for Inactive)
REMARK    1  A    between atoms: C_5  and  O_6
REMARK    2  A    between atoms: O_6  and  C_7
REMARK    3  A    between atoms: C_7  and  C_8
REMARK    4  A    between atoms: C_14  and  C_15
REMARK    5  A    between atoms: C_15  and  C_16
REMARK    6  A    between atoms: C_16  and  C_17
REMARK                            x       y       z     vdW  Elec       q    Type
REMARK                         _______ _______ _______ _____ _____    ______ ____
ROOT
ATOM      1 CL   UNL     1       1.480   8.219  21.218  0.00  0.00    +0.000 Cl
ATOM      2  C   UNL     1       1.984   7.098  20.019  0.00  0.00    +0.000 A 
ATOM      3  N   UNL     1       1.957   5.841  20.519  0.00  0.00    +0.000 NA
ATOM      4  C   UNL     1       2.247   4.836  19.669  0.00  0.00    +0.000 A 
ATOM      5  C   UNL     1       2.565   5.012  18.333  0.00  0.00    +0.000 A 
ATOM      6  C   UNL     1       2.608   6.321  17.857  0.00  0.00    +0.000 A 
ATOM      7  C   UNL     1       2.323   7.420  18.703  0.00  0.00    +0.000 A 
ENDROOT
BRANCH   5   8
ATOM      8  O   UNL     1       2.786   3.872  17.621  0.00  0.00    +0.000 OA
BRANCH   8   9
ATOM      9  C   UNL     1       4.047   3.224  17.794  0.00  0.00    +0.000 C 
BRANCH   9  10
ATOM     10  C   UNL     1       5.159   4.195  17.378  0.00  0.00    +0.000 C 
ATOM     11  C   UNL     1       5.672   3.945  15.967  0.00  0.00    +0.000 C 
ATOM     12  C   UNL     1       7.006   4.666  15.968  0.00  0.00    +0.000 C 
ATOM     13  C   UNL     1       7.490   4.571  17.407  0.00  0.00    +0.000 C 
ATOM     14  N   UNL     1       6.368   4.059  18.201  0.00  0.00    +0.000 NA
ATOM     15  H   UNL     1       6.277   4.586  19.069  0.00  0.00    +0.000 HD
ENDBRANCH   9  10
ENDBRANCH   8   9
ENDBRANCH   5   8
BRANCH   7  16
ATOM     16  C   UNL     1       2.316   8.795  18.061  0.00  0.00    +0.000 C 
BRANCH  16  17
ATOM     17  C   UNL     1       0.968   9.468  17.765  0.00  0.00    +0.000 C 
BRANCH  17  18
ATOM     18  C   UNL     1       0.490  10.538  18.724  0.00  0.00    +0.000 A 
ATOM     19  C   UNL     1       1.309  11.518  19.290  0.00  0.00    +0.000 A 
ATOM     20  C   UNL     1       0.731  12.473  20.119  0.00  0.00    +0.000 A 
ATOM     21  N   UNL     1      -0.584  12.520  20.418  0.00  0.00    +0.000 NA
ATOM     22  C   UNL     1      -1.361  11.570  19.863  0.00  0.00    +0.000 A 
ATOM     23  C   UNL     1      -0.877  10.576  19.027  0.00  0.00    +0.000 A 
ENDBRANCH  17  18
ENDBRANCH  16  17
ENDBRANCH   7  16
TORSDOF 6
ENDMDL
MODEL 6
REMARK VINA RESULT:      -6.6      1.927      6.675
REMARK  Name = 
REMARK  6 active torsions:
REMARK  status: ('A' for Active; 'I' for Inactive)
REMARK    1  A    between atoms: C_5  and  O_6
REMARK    2  A    between atoms: O_6  and  C_7
REMARK    3  A    between atoms: C_7  and  C_8
REMARK    4  A    between atoms: C_14  and  C_15
REMARK    5  A    between atoms: C_15  and  C_16
REMARK    6  A    between atoms: C_16  and  C_17
REMARK                            x       y       z     vdW  Elec       q    Type
REMARK                         _______ _______ _______ _____ _____    ______ ____
ROOT
ATOM      1 CL   UNL     1       7.366   6.569  17.689  0.00  0.00    +0.000 Cl
ATOM      2  C   UNL     1       6.301   5.226  17.578  0.00  0.00    +0.000 A 
ATOM      3  N   UNL     1       6.083   4.704  18.807  0.00  0.00    +0.000 NA
ATOM      4  C   UNL     1       5.198   3.692  18.896  0.00  0.00    +0.000 A 
ATOM      5  C   UNL     1       4.508   3.163  17.819  0.00  0.00    +0.000 A 
ATOM      6  C   UNL     1       4.775   3.706  16.564  0.00  0.00    +0.000 A 
ATOM      7  C   UNL     1       5.701   4.764  16.404  0.00  0.00    +0.000 A 
ENDROOT
BRANCH   5   8
ATOM      8  O   UNL     1       3.623   2.170  18.112  0.00  0.00    +0.000 OA
BRANCH   8   9
ATOM      9  C   UNL     1       2.272   2.343  17.682  0.00  0.00    +0.000 C 
BRANCH   9  10
ATOM     10  C   UNL     1       1.420   2.746  18.893  0.00  0.00    +0.000 C 
ATOM     11  C   UNL     1       1.453   4.241  19.175  0.00  0.00    +0.000 C 
ATOM     12  C   UNL     1       0.961   4.317  20.607  0.00  0.00    +0.000 C 
ATOM     13  C   UNL     1       1.421   3.012  21.239  0.00  0.00    +0.000 C 
ATOM     14  N   UNL     1       1.905   2.158  20.149  0.00  0.00    +0.000 NA
ATOM     15  H   UNL     1       1.559   1.206  20.261  0.00  0.00    +0.000 HD
ENDBRANCH   9  10
ENDBRANCH   8   9
ENDBRANCH   5   8
BRANCH   7  16
ATOM     16  C   UNL     1       5.853   5.337  15.007  0.00  0.00    +0.000 C 
BRANCH  16  17
ATOM     17  C   UNL     1       6.839   4.671  14.035  0.00  0.00    +0.000 C 
BRANCH  17  18
ATOM     18  C   UNL     1       6.264   3.798  12.939  0.00  0.00    +0.000 A 
ATOM     19  C   UNL     1       6.995   2.858  12.210  0.00  0.00    +0.000 A 
ATOM     20  C   UNL     1       6.332   2.086  11.263  0.00  0.00    +0.000 A 
ATOM     21  N   UNL     1       5.012   2.183  10.996  0.00  0.00    +0.000 NA
ATOM     22  C   UNL     1       4.320   3.093  11.710  0.00  0.00    +0.000 A 
ATOM     23  C   UNL     1       4.893   3.909  12.672  0.00  0.00    +0.000 A 
ENDBRANCH  17  18
ENDBRANCH  16  17
ENDBRANCH   7  16
TORSDOF 6
ENDMDL
MODEL 7
REMARK VINA RESULT:      -6.6      4.138      8.400
REMARK  Name = 
REMARK  6 active torsions:
REMARK  status: ('A' for Active; 'I' for Inactive)
REMARK    1  A    between atoms: C_5  and  O_6
REMARK    2  A    between atoms: O_6  and  C_7
REMARK    3  A    between atoms: C_7  and  C_8
REMARK    4  A    between atoms: C_14  and  C_15
REMARK    5  A    between atoms: C_15  and  C_16
REMARK    6  A    between atoms: C_16  and  C_17
REMARK                            x       y       z     vdW  Elec       q    Type
REMARK                         _______ _______ _______ _____ _____    ______ ____
ROOT
ATOM      1 CL   UNL     1       1.794   2.074  19.705  0.00  0.00    +0.000 Cl
ATOM      2  C   UNL     1       1.834   3.788  19.611  0.00  0.00    +0.000 A 
ATOM      3  N   UNL     1       1.404   4.327  20.776  0.00  0.00    +0.000 NA
ATOM      4  C   UNL     1       1.458   5.669  20.888  0.00  0.00    +0.000 A 
ATOM      5  C   UNL     1       1.923   6.516  19.897  0.00  0.00    +0.000 A 
ATOM      6  C   UNL     1       2.335   5.930  18.702  0.00  0.00    +0.000 A 
ATOM      7  C   UNL     1       2.293   4.528  18.519  0.00  0.00    +0.000 A 
ENDROOT
BRANCH   5   8
ATOM      8  O   UNL     1       1.940   7.841  20.211  0.00  0.00    +0.000 OA
BRANCH   8   9
ATOM      9  C   UNL     1       1.620   8.204  21.555  0.00  0.00    +0.000 C 
BRANCH   9  10
ATOM     10  C   UNL     1       0.411   9.148  21.533  0.00  0.00    +0.000 C 
ATOM     11  C   UNL     1       0.758  10.548  21.046  0.00  0.00    +0.000 C 
ATOM     12  C   UNL     1      -0.416  11.370  21.543  0.00  0.00    +0.000 C 
ATOM     13  C   UNL     1      -0.862  10.667  22.816  0.00  0.00    +0.000 C 
ATOM     14  N   UNL     1      -0.145   9.389  22.871  0.00  0.00    +0.000 NA
ATOM     15  H   UNL     1      -0.779   8.637  23.140  0.00  0.00    +0.000 HD
ENDBRANCH   9  10
ENDBRANCH   8   9
ENDBRANCH   5   8
BRANCH   7  16
ATOM     16  C   UNL     1       2.845   3.990  17.211  0.00  0.00    +0.000 C 
BRANCH  16  17
ATOM     17  C   UNL     1       4.260   3.391  17.194  0.00  0.00    +0.000 C 
BRANCH  17  18
ATOM     18  C   UNL     1       5.382   4.254  16.655  0.00  0.00    +0.000 A 
ATOM     19  C   UNL     1       6.042   5.244  17.387  0.00  0.00    +0.000 A 
ATOM     20  C   UNL     1       7.090   5.930  16.785  0.00  0.00    +0.000 A 
ATOM     21  N   UNL     1       7.522   5.703  15.527  0.00  0.00    +0.000 NA
ATOM     22  C   UNL     1       6.877   4.743  14.835  0.00  0.00    +0.000 A 
ATOM     23  C   UNL     1       5.820   4.008  15.347  0.00  0.00    +0.000 A 
ENDBRANCH  17  18
ENDBRANCH  16  17
ENDBRANCH   7  16
TORSDOF 6
ENDMDL
MODEL 8
REMARK VINA RESULT:      -6.6      4.280      7.887
REMARK  Name = 
REMARK  6 active torsions:
REMARK  status: ('A' for Active; 'I' for Inactive)
REMARK    1  A    between atoms: C_5  and  O_6
REMARK    2  A    between atoms: O_6  and  C_7
REMARK    3  A    between atoms: C_7  and  C_8
REMARK    4  A    between atoms: C_14  and  C_15
REMARK    5  A    between atoms: C_15  and  C_16
REMARK    6  A    between atoms: C_16  and  C_17
REMARK                            x       y       z     vdW  Elec       q    Type
REMARK                         _______ _______ _______ _____ _____    ______ ____
ROOT
ATOM      1 CL   UNL     1       2.174   4.026  21.139  0.00  0.00    +0.000 Cl
ATOM      2  C   UNL     1       2.146   5.400  20.111  0.00  0.00    +0.000 A 
ATOM      3  N   UNL     1       1.793   6.500  20.815  0.00  0.00    +0.000 NA
ATOM      4  C   UNL     1       1.808   7.679  20.162  0.00  0.00    +0.000 A 
ATOM      5  C   UNL     1       2.160   7.828  18.832  0.00  0.00    +0.000 A 
ATOM      6  C   UNL     1       2.494   6.673  18.129  0.00  0.00    +0.000 A 
ATOM      7  C   UNL     1       2.487   5.404  18.756  0.00  0.00    +0.000 A 
ENDROOT
BRANCH   5   8
ATOM      8  O   UNL     1       2.156   9.105  18.358  0.00  0.00    +0.000 OA
BRANCH   8   9
ATOM      9  C   UNL     1       0.900   9.654  17.956  0.00  0.00    +0.000 C 
BRANCH   9  10
ATOM     10  C   UNL     1       0.571  10.845  18.865  0.00  0.00    +0.000 C 
ATOM     11  C   UNL     1      -0.711  10.652  19.661  0.00  0.00    +0.000 C 
ATOM     12  C   UNL     1      -1.053  12.067  20.085  0.00  0.00    +0.000 C 
ATOM     13  C   UNL     1      -0.508  12.943  18.966  0.00  0.00    +0.000 C 
ATOM     14  N   UNL     1       0.313  12.080  18.111  0.00  0.00    +0.000 NA
ATOM     15  H   UNL     1       1.187  12.546  17.869  0.00  0.00    +0.000 HD
ENDBRANCH   9  10
ENDBRANCH   8   9
ENDBRANCH   5   8
BRANCH   7  16
ATOM     16  C   UNL     1       2.949   4.224  17.921  0.00  0.00    +0.000 C 
BRANCH  16  17
ATOM     17  C   UNL     1       4.403   3.745  18.054  0.00  0.00    +0.000 C 
BRANCH  17  18
ATOM     18  C   UNL     1       5.466   4.507  17.291  0.00  0.00    +0.000 A 
ATOM     19  C   UNL     1       6.162   5.610  17.789  0.00  0.00    +0.000 A 
ATOM     20  C   UNL     1       7.151   6.188  17.000  0.00  0.00    +0.000 A 
ATOM     21  N   UNL     1       7.489   5.749  15.769  0.00  0.00    +0.000 NA
ATOM     22  C   UNL     1       6.810   4.682  15.303  0.00  0.00    +0.000 A 
ATOM     23  C   UNL     1       5.808   4.042  16.014  0.00  0.00    +0.000 A 
ENDBRANCH  17  18
ENDBRANCH  16  17
ENDBRANCH   7  16
TORSDOF 6
ENDMDL
MODEL 9
REMARK VINA RESULT:      -6.6      3.692      5.540
REMARK  Name = 
REMARK  6 active torsions:
REMARK  status: ('A' for Active; 'I' for Inactive)
REMARK    1  A    between atoms: C_5  and  O_6
REMARK    2  A    between atoms: O_6  and  C_7
REMARK    3  A    between atoms: C_7  and  C_8
REMARK    4  A    between atoms: C_14  and  C_15
REMARK    5  A    between atoms: C_15  and  C_16
REMARK    6  A    between atoms: C_16  and  C_17
REMARK                            x       y       z     vdW  Elec       q    Type
REMARK                         _______ _______ _______ _____ _____    ______ ____
ROOT
ATOM      1 CL   UNL     1       1.075   4.271  19.767  0.00  0.00    +0.000 Cl
ATOM      2  C   UNL     1       2.368   4.661  18.705  0.00  0.00    +0.000 A 
ATOM      3  N   UNL     1       2.927   3.528  18.220  0.00  0.00    +0.000 NA
ATOM      4  C   UNL     1       3.905   3.670  17.304  0.00  0.00    +0.000 A 
ATOM      5  C   UNL     1       4.363   4.890  16.835  0.00  0.00    +0.000 A 
ATOM      6  C   UNL     1       3.782   6.036  17.373  0.00  0.00    +0.000 A 
ATOM      7  C   UNL     1       2.758   5.953  18.347  0.00  0.00    +0.000 A 
ENDROOT
BRANCH   5   8
ATOM      8  O   UNL     1       5.329   4.831  15.877  0.00  0.00    +0.000 OA
BRANCH   8   9
ATOM      9  C   UNL     1       6.546   4.161  16.210  0.00  0.00    +0.000 C 
BRANCH   9  10
ATOM     10  C   UNL     1       7.486   5.163  16.894  0.00  0.00    +0.000 C 
ATOM     11  C   UNL     1       7.304   5.214  18.404  0.00  0.00    +0.000 C 
ATOM     12  C   UNL     1       7.956   6.534  18.770  0.00  0.00    +0.000 C 
ATOM     13  C   UNL     1       7.741   7.417  17.549  0.00  0.00    +0.000 C 
ATOM     14  N   UNL     1       7.234   6.550  16.480  0.00  0.00    +0.000 NA
ATOM     15  H   UNL     1       7.706   6.757  15.601  0.00  0.00    +0.000 HD
ENDBRANCH   9  10
ENDBRANCH   8   9
ENDBRANCH   5   8
BRANCH   7  16
ATOM     16  C   UNL     1       2.138   7.261  18.802  0.00  0.00    +0.000 C 
BRANCH  16  17
ATOM     17  C   UNL     1       2.009   7.536  20.308  0.00  0.00    +0.000 C 
BRANCH  17  18
ATOM     18  C   UNL     1       1.135   8.695  20.739  0.00  0.00    +0.000 A 
ATOM     19  C   UNL     1       0.574   9.631  19.868  0.00  0.00    +0.000 A 
ATOM     20  C   UNL     1      -0.252  10.619  20.392  0.00  0.00    +0.000 A 
ATOM     21  N   UNL     1      -0.554  10.737  21.702  0.00  0.00    +0.000 NA
ATOM     22  C   UNL     1      -0.007   9.824  22.530  0.00  0.00    +0.000 A 
ATOM     23  C   UNL     1       0.829   8.806  22.102  0.00  0.00    +0.000 A 
ENDBRANCH  17  18
ENDBRANCH  16  17
ENDBRANCH   7  16
TORSDOF 6
ENDMDL
