MODEL 1
REMARK VINA RESULT:      -7.0      0.000      0.000
REMARK  Name = 
REMARK  9 active torsions:
REMARK  status: ('A' for Active; 'I' for Inactive)
REMARK    1  A    between atoms: C_1  and  C_2
REMARK    2  A    between atoms: C_6  and  C_7
REMARK    3  A    between atoms: C_7  and  C_8
REMARK    4  A    between atoms: C_7  and  C_9
REMARK    5  A    between atoms: C_7  and  C_10
REMARK    6  A    between atoms: C_11  and  O_12
REMARK    7  A    between atoms: O_12  and  C_13
REMARK    8  A    between atoms: C_13  and  C_14
REMARK    9  A    between atoms: C_14  and  N_15
REMARK                            x       y       z     vdW  Elec       q    Type
REMARK                         _______ _______ _______ _____ _____    ______ ____
ROOT
ATOM      1  C   UNL     1       3.108   7.870  17.639  0.00  0.00    +0.000 C 
ATOM      2  C   UNL     1       2.601   6.994  18.753  0.00  0.00    +0.000 A 
ATOM      3  C   UNL     1       2.003   7.693  19.818  0.00  0.00    +0.000 A 
ATOM      4  C   UNL     1       1.436   7.023  20.885  0.00  0.00    +0.000 A 
ATOM      5  C   UNL     1       1.458   5.635  20.913  0.00  0.00    +0.000 A 
ATOM      6  C   UNL     1       2.045   4.866  19.881  0.00  0.00    +0.000 A 
ATOM      7  C   UNL     1       2.640   5.573  18.784  0.00  0.00    +0.000 A 
ENDROOT
BRANCH   6   8
ATOM      8  C   UNL     1       1.995   3.314  19.990  0.00  0.00    +0.000 C 
ATOM      9  C   UNL     1       1.325   2.806  21.302  0.00  0.00    +0.000 C 
ATOM     10  C   UNL     1       1.165   2.709  18.838  0.00  0.00    +0.000 C 
ATOM     11  C   UNL     1       3.413   2.705  19.990  0.00  0.00    +0.000 C 
ENDBRANCH   6   8
BRANCH   7  12
ATOM     12  O   UNL     1       3.126   4.783  17.763  0.00  0.00    +0.000 OA
BRANCH  12  13
ATOM     13  C   UNL     1       4.513   4.864  17.433  0.00  0.00    +0.000 C 
BRANCH  13  14
ATOM     14  C   UNL     1       4.875   3.820  16.379  0.00  0.00    +0.000 C 
BRANCH  14  15
ATOM     15  N   UNL     1       5.868   4.328  15.451  0.00  0.00    +0.000 N 
ATOM     16  C   UNL     1       5.955   4.038  14.118  0.00  0.00    +0.000 A 
ATOM     17  C   UNL     1       7.081   4.699  13.686  0.00  0.00    +0.000 A 
ATOM     18  N   UNL     1       7.673   5.379  14.719  0.00  0.00    +0.000 NA
ATOM     19  C   UNL     1       6.916   5.145  15.766  0.00  0.00    +0.000 A 
ENDBRANCH  14  15
ENDBRANCH  13  14
ENDBRANCH  12  13
ENDBRANCH   7  12
TORSDOF 5
ENDMDL
MODEL 2
REMARK VINA RESULT:      -6.8      1.669      2.331
REMARK  Name = 
REMARK  9 active torsions:
REMARK  status: ('A' for Active; 'I' for Inactive)
REMARK    1  A    between atoms: C_1  and  C_2
REMARK    2  A    between atoms: C_6  and  C_7
REMARK    3  A    between atoms: C_7  and  C_8
REMARK    4  A    between atoms: C_7  and  C_9
REMARK    5  A    between atoms: C_7  and  C_10
REMARK    6  A    between atoms: C_11  and  O_12
REMARK    7  A    between atoms: O_12  and  C_13
REMARK    8  A    between atoms: C_13  and  C_14
REMARK    9  A    between atoms: C_14  and  N_15
REMARK                            x       y       z     vdW  Elec       q    Type
REMARK                         _______ _______ _______ _____ _____    ______ ____
ROOT
ATOM      1  C   UNL     1       3.049   7.752  17.482  0.00  0.00    +0.000 C 
ATOM      2  C   UNL     1       2.600   6.878  18.622  0.00  0.00    +0.000 A 
ATOM      3  C   UNL     1       2.098   7.579  19.733  0.00  0.00    +0.000 A 
ATOM      4  C   UNL     1       1.591   6.913  20.832  0.00  0.00    +0.000 A 
ATOM      5  C   UNL     1       1.578   5.525  20.845  0.00  0.00    +0.000 A 
ATOM      6  C   UNL     1       2.068   4.752  19.767  0.00  0.00    +0.000 A 
ATOM      7  C   UNL     1       2.601   5.455  18.637  0.00  0.00    +0.000 A 
ENDROOT
BRANCH   6   8
ATOM      8  C   UNL     1       1.983   3.201  19.865  0.00  0.00    +0.000 C 
ATOM      9  C   UNL     1       1.186   2.547  18.697  0.00  0.00    +0.000 C 
ATOM     10  C   UNL     1       3.391   2.570  19.811  0.00  0.00    +0.000 C 
ATOM     11  C   UNL     1       1.259   2.758  21.154  0.00  0.00    +0.000 C 
ENDBRANCH   6   8
BRANCH   7  12
ATOM     12  O   UNL     1       2.992   4.665  17.575  0.00  0.00    +0.000 OA
BRANCH  12  13
ATOM     13  C   UNL     1       4.281   4.876  16.999  0.00  0.00    +0.000 C 
BRANCH  13  14
ATOM     14  C   UNL     1       5.375   4.672  18.045  0.00  0.00    +0.000 C 
BRANCH  14  15
ATOM     15  N   UNL     1       6.385   5.710  17.962  0.00  0.00    +0.000 N 
ATOM     16  C   UNL     1       7.392   5.935  18.859  0.00  0.00    +0.000 A 
ATOM     17  C   UNL     1       8.043   7.050  18.388  0.00  0.00    +0.000 A 
ATOM     18  N   UNL     1       7.459   7.502  17.232  0.00  0.00    +0.000 NA
ATOM     19  C   UNL     1       6.470   6.670  16.995  0.00  0.00    +0.000 A 
ENDBRANCH  14  15
ENDBRANCH  13  14
ENDBRANCH  12  13
ENDBRANCH   7  12
TORSDOF 5
ENDMDL
MODEL 3
REMARK VINA RESULT:      -6.7      1.528      2.288
REMARK  Name = 
REMARK  9 active torsions:
REMARK  status: ('A' for Active; 'I' for Inactive)
REMARK    1  A    between atoms: C_1  and  C_2
REMARK    2  A    between atoms: C_6  and  C_7
REMARK    3  A    between atoms: C_7  and  C_8
REMARK    4  A    between atoms: C_7  and  C_9
REMARK    5  A    between atoms: C_7  and  C_10
REMARK    6  A    between atoms: C_11  and  O_12
REMARK    7  A    between atoms: O_12  and  C_13
REMARK    8  A    between atoms: C_13  and  C_14
REMARK    9  A    between atoms: C_14  and  N_15
REMARK                            x       y       z     vdW  Elec       q    Type
REMARK                         _______ _______ _______ _____ _____    ______ ____
ROOT
ATOM      1  C   UNL     1       3.302   7.276  17.256  0.00  0.00    +0.000 C 
ATOM      2  C   UNL     1       2.781   6.512  18.444  0.00  0.00    +0.000 A 
ATOM      3  C   UNL     1       2.249   7.317  19.468  0.00  0.00    +0.000 A 
ATOM      4  C   UNL     1       1.677   6.758  20.595  0.00  0.00    +0.000 A 
ATOM      5  C   UNL     1       1.629   5.377  20.724  0.00  0.00    +0.000 A 
ATOM      6  C   UNL     1       2.147   4.504  19.739  0.00  0.00    +0.000 A 
ATOM      7  C   UNL     1       2.747   5.096  18.579  0.00  0.00    +0.000 A 
ENDROOT
BRANCH   6   8
ATOM      8  C   UNL     1       2.019   2.969  19.964  0.00  0.00    +0.000 C 
ATOM      9  C   UNL     1       3.385   2.221  19.929  0.00  0.00    +0.000 C 
ATOM     10  C   UNL     1       1.414   2.666  21.351  0.00  0.00    +0.000 C 
ATOM     11  C   UNL     1       1.162   2.309  18.862  0.00  0.00    +0.000 C 
ENDBRANCH   6   8
BRANCH   7  12
ATOM     12  O   UNL     1       3.164   4.210  17.608  0.00  0.00    +0.000 OA
BRANCH  12  13
ATOM     13  C   UNL     1       4.476   4.354  17.064  0.00  0.00    +0.000 C 
BRANCH  13  14
ATOM     14  C   UNL     1       5.522   4.342  18.178  0.00  0.00    +0.000 C 
BRANCH  14  15
ATOM     15  N   UNL     1       6.512   5.385  17.984  0.00  0.00    +0.000 N 
ATOM     16  C   UNL     1       7.319   5.925  18.946  0.00  0.00    +0.000 A 
ATOM     17  C   UNL     1       8.031   6.907  18.299  0.00  0.00    +0.000 A 
ATOM     18  N   UNL     1       7.678   6.972  16.976  0.00  0.00    +0.000 NA
ATOM     19  C   UNL     1       6.770   6.038  16.813  0.00  0.00    +0.000 A 
ENDBRANCH  14  15
ENDBRANCH  13  14
ENDBRANCH  12  13
ENDBRANCH   7  12
TORSDOF 5
ENDMDL
MODEL 4
REMARK VINA RESULT:      -6.7      0.326      1.054
REMARK  Name = 
REMARK  9 active torsions:
REMARK  status: ('A' for Active; 'I' for Inactive)
REMARK    1  A    between atoms: C_1  and  C_2
REMARK    2  A    between atoms: C_6  and  C_7
REMARK    3  A    between atoms: C_7  and  C_8
REMARK    4  A    between atoms: C_7  and  C_9
REMARK    5  A    between atoms: C_7  and  C_10
REMARK    6  A    between atoms: C_11  and  O_12
REMARK    7  A    between atoms: O_12  and  C_13
REMARK    8  A    between atoms: C_13  and  C_14
REMARK    9  A    between atoms: C_14  and  N_15
REMARK                            x       y       z     vdW  Elec       q    Type
REMARK                         _______ _______ _______ _____ _____    ______ ____
ROOT
ATOM      1  C   UNL     1       3.354   7.445  17.329  0.00  0.00    +0.000 C 
ATOM      2  C   UNL     1       2.812   6.693  18.515  0.00  0.00    +0.000 A 
ATOM      3  C   UNL     1       2.241   7.506  19.510  0.00  0.00    +0.000 A 
ATOM      4  C   UNL     1       1.647   6.957  20.631  0.00  0.00    +0.000 A 
ATOM      5  C   UNL     1       1.615   5.577  20.782  0.00  0.00    +0.000 A 
ATOM      6  C   UNL     1       2.172   4.696  19.825  0.00  0.00    +0.000 A 
ATOM      7  C   UNL     1       2.794   5.279  18.672  0.00  0.00    +0.000 A 
ENDROOT
BRANCH   6   8
ATOM      8  C   UNL     1       2.060   3.164  20.072  0.00  0.00    +0.000 C 
ATOM      9  C   UNL     1       1.310   2.405  18.937  0.00  0.00    +0.000 C 
ATOM     10  C   UNL     1       3.460   2.517  20.150  0.00  0.00    +0.000 C 
ATOM     11  C   UNL     1       1.270   2.858  21.362  0.00  0.00    +0.000 C 
ENDBRANCH   6   8
BRANCH   7  12
ATOM     12  O   UNL     1       3.250   4.383  17.727  0.00  0.00    +0.000 OA
BRANCH  12  13
ATOM     13  C   UNL     1       4.618   4.450  17.321  0.00  0.00    +0.000 C 
BRANCH  13  14
ATOM     14  C   UNL     1       4.820   3.711  15.999  0.00  0.00    +0.000 C 
BRANCH  14  15
ATOM     15  N   UNL     1       5.891   4.306  15.221  0.00  0.00    +0.000 N 
ATOM     16  C   UNL     1       6.141   4.096  13.893  0.00  0.00    +0.000 A 
ATOM     17  C   UNL     1       7.280   4.818  13.630  0.00  0.00    +0.000 A 
ATOM     18  N   UNL     1       7.723   5.458  14.759  0.00  0.00    +0.000 NA
ATOM     19  C   UNL     1       6.862   5.139  15.698  0.00  0.00    +0.000 A 
ENDBRANCH  14  15
ENDBRANCH  13  14
ENDBRANCH  12  13
ENDBRANCH   7  12
TORSDOF 5
ENDMDL
MODEL 5
REMARK VINA RESULT:      -6.6      1.668      2.045
REMARK  Name = 
REMARK  9 active torsions:
REMARK  status: ('A' for Active; 'I' for Inactive)
REMARK    1  A    between atoms: C_1  and  C_2
REMARK    2  A    between atoms: C_6  and  C_7
REMARK    3  A    between atoms: C_7  and  C_8
REMARK    4  A    between atoms: C_7  and  C_9
REMARK    5  A    between atoms: C_7  and  C_10
REMARK    6  A    between atoms: C_11  and  O_12
REMARK    7  A    between atoms: O_12  and  C_13
REMARK    8  A    between atoms: C_13  and  C_14
REMARK    9  A    between atoms: C_14  and  N_15
REMARK                            x       y       z     vdW  Elec       q    Type
REMARK                         _______ _______ _______ _____ _____    ______ ____
ROOT
ATOM      1  C   UNL     1       3.261   7.643  17.531  0.00  0.00    +0.000 C 
ATOM      2  C   UNL     1       2.724   6.827  18.677  0.00  0.00    +0.000 A 
ATOM      3  C   UNL     1       2.191   7.586  19.734  0.00  0.00    +0.000 A 
ATOM      4  C   UNL     1       1.606   6.979  20.829  0.00  0.00    +0.000 A 
ATOM      5  C   UNL     1       1.543   5.593  20.890  0.00  0.00    +0.000 A 
ATOM      6  C   UNL     1       2.060   4.765  19.867  0.00  0.00    +0.000 A 
ATOM      7  C   UNL     1       2.675   5.407  18.742  0.00  0.00    +0.000 A 
ENDROOT
BRANCH   6   8
ATOM      8  C   UNL     1       1.917   3.222  20.016  0.00  0.00    +0.000 C 
ATOM      9  C   UNL     1       1.383   2.780  21.411  0.00  0.00    +0.000 C 
ATOM     10  C   UNL     1       0.910   2.663  18.989  0.00  0.00    +0.000 C 
ATOM     11  C   UNL     1       3.279   2.513  19.854  0.00  0.00    +0.000 C 
ENDBRANCH   6   8
BRANCH   7  12
ATOM     12  O   UNL     1       3.092   4.565  17.732  0.00  0.00    +0.000 OA
BRANCH  12  13
ATOM     13  C   UNL     1       4.289   4.883  17.022  0.00  0.00    +0.000 C 
BRANCH  13  14
ATOM     14  C   UNL     1       5.516   4.446  17.820  0.00  0.00    +0.000 C 
BRANCH  14  15
ATOM     15  N   UNL     1       6.467   5.533  17.964  0.00  0.00    +0.000 N 
ATOM     16  C   UNL     1       6.728   6.509  17.042  0.00  0.00    +0.000 A 
ATOM     17  C   UNL     1       7.734   7.262  17.600  0.00  0.00    +0.000 A 
ATOM     18  N   UNL     1       8.084   6.769  18.831  0.00  0.00    +0.000 NA
ATOM     19  C   UNL     1       7.299   5.735  19.027  0.00  0.00    +0.000 A 
ENDBRANCH  14  15
ENDBRANCH  13  14
ENDBRANCH  12  13
ENDBRANCH   7  12
TORSDOF 5
ENDMDL
MODEL 6
REMARK VINA RESULT:      -6.4      2.758      4.933
REMARK  Name = 
REMARK  9 active torsions:
REMARK  status: ('A' for Active; 'I' for Inactive)
REMARK    1  A    between atoms: C_1  and  C_2
REMARK    2  A    between atoms: C_6  and  C_7
REMARK    3  A    between atoms: C_7  and  C_8
REMARK    4  A    between atoms: C_7  and  C_9
REMARK    5  A    between atoms: C_7  and  C_10
REMARK    6  A    between atoms: C_11  and  O_12
REMARK    7  A    between atoms: O_12  and  C_13
REMARK    8  A    between atoms: C_13  and  C_14
REMARK    9  A    between atoms: C_14  and  N_15
REMARK                            x       y       z     vdW  Elec       q    Type
REMARK                         _______ _______ _______ _____ _____    ______ ____
ROOT
ATOM      1  C   UNL     1       0.861   8.123  21.340  0.00  0.00    +0.000 C 
ATOM      2  C   UNL     1       1.573   8.058  20.015  0.00  0.00    +0.000 A 
ATOM      3  C   UNL     1       1.412   9.200  19.210  0.00  0.00    +0.000 A 
ATOM      4  C   UNL     1       2.054   9.315  17.992  0.00  0.00    +0.000 A 
ATOM      5  C   UNL     1       2.872   8.284  17.549  0.00  0.00    +0.000 A 
ATOM      6  C   UNL     1       3.079   7.104  18.302  0.00  0.00    +0.000 A 
ATOM      7  C   UNL     1       2.398   6.993  19.559  0.00  0.00    +0.000 A 
ENDROOT
BRANCH   6   8
ATOM      8  C   UNL     1       4.036   6.017  17.733  0.00  0.00    +0.000 C 
ATOM      9  C   UNL     1       4.814   6.478  16.464  0.00  0.00    +0.000 C 
ATOM     10  C   UNL     1       5.116   5.639  18.769  0.00  0.00    +0.000 C 
ATOM     11  C   UNL     1       3.259   4.755  17.301  0.00  0.00    +0.000 C 
ENDBRANCH   6   8
BRANCH   7  12
ATOM     12  O   UNL     1       2.692   5.864  20.296  0.00  0.00    +0.000 OA
BRANCH  12  13
ATOM     13  C   UNL     1       1.620   5.019  20.716  0.00  0.00    +0.000 C 
BRANCH  13  14
ATOM     14  C   UNL     1       2.164   3.747  21.365  0.00  0.00    +0.000 C 
BRANCH  14  15
ATOM     15  N   UNL     1       2.670   2.821  20.369  0.00  0.00    +0.000 N 
ATOM     16  C   UNL     1       3.977   2.460  20.187  0.00  0.00    +0.000 A 
ATOM     17  C   UNL     1       3.963   1.621  19.099  0.00  0.00    +0.000 A 
ATOM     18  N   UNL     1       2.687   1.464  18.621  0.00  0.00    +0.000 NA
ATOM     19  C   UNL     1       1.930   2.190  19.411  0.00  0.00    +0.000 A 
ENDBRANCH  14  15
ENDBRANCH  13  14
ENDBRANCH  12  13
ENDBRANCH   7  12
TORSDOF 5
ENDMDL
MODEL 7
REMARK VINA RESULT:      -6.3      3.396      6.461
REMARK  Name = 
REMARK  9 active torsions:
REMARK  status: ('A' for Active; 'I' for Inactive)
REMARK    1  A    between atoms: C_1  and  C_2
REMARK    2  A    between atoms: C_6  and  C_7
REMARK    3  A    between atoms: C_7  and  C_8
REMARK    4  A    between atoms: C_7  and  C_9
REMARK    5  A    between atoms: C_7  and  C_10
REMARK    6  A    between atoms: C_11  and  O_12
REMARK    7  A    between atoms: O_12  and  C_13
REMARK    8  A    between atoms: C_13  and  C_14
REMARK    9  A    between atoms: C_14  and  N_15
REMARK                            x       y       z     vdW  Elec       q    Type
REMARK                         _______ _______ _______ _____ _____    ______ ____
ROOT
ATOM      1  C   UNL     1       0.930   3.706  20.576  0.00  0.00    +0.000 C 
ATOM      2  C   UNL     1       1.967   3.542  19.497  0.00  0.00    +0.000 A 
ATOM      3  C   UNL     1       1.796   2.402  18.691  0.00  0.00    +0.000 A 
ATOM      4  C   UNL     1       2.632   2.148  17.621  0.00  0.00    +0.000 A 
ATOM      5  C   UNL     1       3.665   3.031  17.335  0.00  0.00    +0.000 A 
ATOM      6  C   UNL     1       3.901   4.196  18.102  0.00  0.00    +0.000 A 
ATOM      7  C   UNL     1       3.033   4.442  19.216  0.00  0.00    +0.000 A 
ENDROOT
BRANCH   6   8
ATOM      8  C   UNL     1       5.067   5.138  17.684  0.00  0.00    +0.000 C 
ATOM      9  C   UNL     1       6.056   4.490  16.670  0.00  0.00    +0.000 C 
ATOM     10  C   UNL     1       4.527   6.404  16.987  0.00  0.00    +0.000 C 
ATOM     11  C   UNL     1       5.930   5.538  18.900  0.00  0.00    +0.000 C 
ENDBRANCH   6   8
BRANCH   7  12
ATOM     12  O   UNL     1       3.248   5.629  19.886  0.00  0.00    +0.000 OA
BRANCH  12  13
ATOM     13  C   UNL     1       2.364   6.724  19.644  0.00  0.00    +0.000 C 
BRANCH  13  14
ATOM     14  C   UNL     1       1.611   7.096  20.920  0.00  0.00    +0.000 C 
BRANCH  14  15
ATOM     15  N   UNL     1       1.278   8.509  20.943  0.00  0.00    +0.000 N 
ATOM     16  C   UNL     1       1.029   9.300  19.857  0.00  0.00    +0.000 A 
ATOM     17  C   UNL     1       0.826  10.557  20.375  0.00  0.00    +0.000 A 
ATOM     18  N   UNL     1       0.944  10.545  21.741  0.00  0.00    +0.000 NA
ATOM     19  C   UNL     1       1.206   9.297  22.056  0.00  0.00    +0.000 A 
ENDBRANCH  14  15
ENDBRANCH  13  14
ENDBRANCH  12  13
ENDBRANCH   7  12
TORSDOF 5
ENDMDL
MODEL 8
REMARK VINA RESULT:      -6.3      2.631      5.643
REMARK  Name = 
REMARK  9 active torsions:
REMARK  status: ('A' for Active; 'I' for Inactive)
REMARK    1  A    between atoms: C_1  and  C_2
REMARK    2  A    between atoms: C_6  and  C_7
REMARK    3  A    between atoms: C_7  and  C_8
REMARK    4  A    between atoms: C_7  and  C_9
REMARK    5  A    between atoms: C_7  and  C_10
REMARK    6  A    between atoms: C_11  and  O_12
REMARK    7  A    between atoms: O_12  and  C_13
REMARK    8  A    between atoms: C_13  and  C_14
REMARK    9  A    between atoms: C_14  and  N_15
REMARK                            x       y       z     vdW  Elec       q    Type
REMARK                         _______ _______ _______ _____ _____    ______ ____
ROOT
ATOM      1  C   UNL     1       5.886   3.364  15.216  0.00  0.00    +0.000 C 
ATOM      2  C   UNL     1       5.510   4.590  16.006  0.00  0.00    +0.000 A 
ATOM      3  C   UNL     1       6.351   5.698  15.799  0.00  0.00    +0.000 A 
ATOM      4  C   UNL     1       6.099   6.913  16.407  0.00  0.00    +0.000 A 
ATOM      5  C   UNL     1       4.998   7.045  17.242  0.00  0.00    +0.000 A 
ATOM      6  C   UNL     1       4.110   5.974  17.500  0.00  0.00    +0.000 A 
ATOM      7  C   UNL     1       4.389   4.716  16.872  0.00  0.00    +0.000 A 
ENDROOT
BRANCH   6   8
ATOM      8  C   UNL     1       2.887   6.230  18.429  0.00  0.00    +0.000 C 
ATOM      9  C   UNL     1       1.600   5.474  17.984  0.00  0.00    +0.000 C 
ATOM     10  C   UNL     1       3.178   5.746  19.865  0.00  0.00    +0.000 C 
ATOM     11  C   UNL     1       2.499   7.724  18.448  0.00  0.00    +0.000 C 
ENDBRANCH   6   8
BRANCH   7  12
ATOM     12  O   UNL     1       3.453   3.725  17.086  0.00  0.00    +0.000 OA
BRANCH  12  13
ATOM     13  C   UNL     1       3.822   2.589  17.869  0.00  0.00    +0.000 C 
BRANCH  13  14
ATOM     14  C   UNL     1       2.579   1.874  18.395  0.00  0.00    +0.000 C 
BRANCH  14  15
ATOM     15  N   UNL     1       2.302   2.242  19.771  0.00  0.00    +0.000 N 
ATOM     16  C   UNL     1       1.107   2.681  20.268  0.00  0.00    +0.000 A 
ATOM     17  C   UNL     1       1.354   2.957  21.592  0.00  0.00    +0.000 A 
ATOM     18  N   UNL     1       2.663   2.695  21.907  0.00  0.00    +0.000 NA
ATOM     19  C   UNL     1       3.206   2.257  20.795  0.00  0.00    +0.000 A 
ENDBRANCH  14  15
ENDBRANCH  13  14
ENDBRANCH  12  13
ENDBRANCH   7  12
TORSDOF 5
ENDMDL
MODEL 9
REMARK VINA RESULT:      -6.2      1.167      1.837
REMARK  Name = 
REMARK  9 active torsions:
REMARK  status: ('A' for Active; 'I' for Inactive)
REMARK    1  A    between atoms: C_1  and  C_2
REMARK    2  A    between atoms: C_6  and  C_7
REMARK    3  A    between atoms: C_7  and  C_8
REMARK    4  A    between atoms: C_7  and  C_9
REMARK    5  A    between atoms: C_7  and  C_10
REMARK    6  A    between atoms: C_11  and  O_12
REMARK    7  A    between atoms: O_12  and  C_13
REMARK    8  A    between atoms: C_13  and  C_14
REMARK    9  A    between atoms: C_14  and  N_15
REMARK                            x       y       z     vdW  Elec       q    Type
REMARK                         _______ _______ _______ _____ _____    ______ ____
ROOT
ATOM      1  C   UNL     1       3.816   7.252  17.658  0.00  0.00    +0.000 C 
ATOM      2  C   UNL     1       3.107   6.497  18.751  0.00  0.00    +0.000 A 
ATOM      3  C   UNL     1       2.204   7.269  19.503  0.00  0.00    +0.000 A 
ATOM      4  C   UNL     1       1.433   6.702  20.500  0.00  0.00    +0.000 A 
ATOM      5  C   UNL     1       1.554   5.345  20.770  0.00  0.00    +0.000 A 
ATOM      6  C   UNL     1       2.443   4.507  20.059  0.00  0.00    +0.000 A 
ATOM      7  C   UNL     1       3.244   5.109  19.034  0.00  0.00    +0.000 A 
ENDROOT
BRANCH   6   8
ATOM      8  C   UNL     1       2.485   2.993  20.417  0.00  0.00    +0.000 C 
ATOM      9  C   UNL     1       3.928   2.412  20.492  0.00  0.00    +0.000 C 
ATOM     10  C   UNL     1       1.863   2.741  21.807  0.00  0.00    +0.000 C 
ATOM     11  C   UNL     1       1.755   2.144  19.355  0.00  0.00    +0.000 C 
ENDBRANCH   6   8
BRANCH   7  12
ATOM     12  O   UNL     1       4.036   4.241  18.311  0.00  0.00    +0.000 OA
BRANCH  12  13
ATOM     13  C   UNL     1       3.734   4.021  16.933  0.00  0.00    +0.000 C 
BRANCH  13  14
ATOM     14  C   UNL     1       5.014   3.764  16.139  0.00  0.00    +0.000 C 
BRANCH  14  15
ATOM     15  N   UNL     1       6.074   4.672  16.538  0.00  0.00    +0.000 N 
ATOM     16  C   UNL     1       6.775   4.633  17.711  0.00  0.00    +0.000 A 
ATOM     17  C   UNL     1       7.616   5.720  17.655  0.00  0.00    +0.000 A 
ATOM     18  N   UNL     1       7.442   6.409  16.483  0.00  0.00    +0.000 NA
ATOM     19  C   UNL     1       6.516   5.750  15.826  0.00  0.00    +0.000 A 
ENDBRANCH  14  15
ENDBRANCH  13  14
ENDBRANCH  12  13
ENDBRANCH   7  12
TORSDOF 5
ENDMDL
