MODEL 1
REMARK VINA RESULT:      -5.4      0.000      0.000
REMARK  Name = 
REMARK  3 active torsions:
REMARK  status: ('A' for Active; 'I' for Inactive)
REMARK    1  A    between atoms: C_2  and  S_3
REMARK    2  A    between atoms: S_3  and  C_4
REMARK    3  A    between atoms: C_4  and  C_5
REMARK                            x       y       z     vdW  Elec       q    Type
REMARK                         _______ _______ _______ _____ _____    ______ ____
ROOT
ATOM      1  C   UNL     1       4.184   3.188  18.241  0.00  0.00    +0.000 C 
ATOM      2  O   UNL     1       3.750   3.632  17.183  0.00  0.00    +0.000 OA
ATOM      3  N   UNL     1       5.276   3.654  18.939  0.00  0.00    +0.000 N 
ATOM      4  C   UNL     1       6.062   4.730  18.602  0.00  0.00    +0.000 A 
ATOM      5  N   UNL     1       7.161   5.024  19.261  0.00  0.00    +0.000 NA
ATOM      6  N   UNL     1       7.798   6.137  18.748  0.00  0.00    +0.000 NA
ATOM      7  C   UNL     1       7.133   6.648  17.735  0.00  0.00    +0.000 A 
ATOM      8  S   UNL     1       5.687   5.819  17.344  0.00  0.00    +0.000 S 
ATOM      9  H   UNL     1       5.646   3.139  19.729  0.00  0.00    +0.000 HD
ENDROOT
BRANCH   1  10
ATOM     10  C   UNL     1       3.513   1.994  18.906  0.00  0.00    +0.000 C 
BRANCH  10  11
ATOM     11  S   UNL     1       1.754   2.326  19.212  0.00  0.00    +0.000 S 
BRANCH  11  13
ATOM     12  N   UNL     1       2.014   2.831  21.999  0.00  0.00    +0.000 NA
ATOM     13  C   UNL     1       1.867   2.650  20.863  0.00  0.00    +0.000 C 
ENDBRANCH  11  13
ENDBRANCH  10  11
ENDBRANCH   1  10
TORSDOF 3
ENDMDL
MODEL 2
REMARK VINA RESULT:      -5.3      1.546      1.632
REMARK  Name = 
REMARK  3 active torsions:
REMARK  status: ('A' for Active; 'I' for Inactive)
REMARK    1  A    between atoms: C_2  and  S_3
REMARK    2  A    between atoms: S_3  and  C_4
REMARK    3  A    between atoms: C_4  and  C_5
REMARK                            x       y       z     vdW  Elec       q    Type
REMARK                         _______ _______ _______ _____ _____    ______ ____
ROOT
ATOM      1  C   UNL     1       3.148   4.278  18.321  0.00  0.00    +0.000 C 
ATOM      2  O   UNL     1       3.238   3.807  17.192  0.00  0.00    +0.000 OA
ATOM      3  N   UNL     1       4.184   4.739  19.102  0.00  0.00    +0.000 N 
ATOM      4  C   UNL     1       5.511   4.794  18.747  0.00  0.00    +0.000 A 
ATOM      5  N   UNL     1       6.448   5.132  19.606  0.00  0.00    +0.000 NA
ATOM      6  N   UNL     1       7.709   5.113  19.040  0.00  0.00    +0.000 NA
ATOM      7  C   UNL     1       7.660   4.784  17.768  0.00  0.00    +0.000 A 
ATOM      8  S   UNL     1       6.083   4.486  17.171  0.00  0.00    +0.000 S 
ATOM      9  H   UNL     1       4.035   4.979  20.074  0.00  0.00    +0.000 HD
ENDROOT
BRANCH   1  10
ATOM     10  C   UNL     1       1.790   4.385  19.003  0.00  0.00    +0.000 C 
BRANCH  10  11
ATOM     11  S   UNL     1       1.970   4.956  20.717  0.00  0.00    +0.000 S 
BRANCH  11  13
ATOM     12  N   UNL     1       1.717   2.461  22.060  0.00  0.00    +0.000 NA
ATOM     13  C   UNL     1       1.835   3.455  21.473  0.00  0.00    +0.000 C 
ENDBRANCH  11  13
ENDBRANCH  10  11
ENDBRANCH   1  10
TORSDOF 3
ENDMDL
MODEL 3
REMARK VINA RESULT:      -5.2      1.696      1.768
REMARK  Name = 
REMARK  3 active torsions:
REMARK  status: ('A' for Active; 'I' for Inactive)
REMARK    1  A    between atoms: C_2  and  S_3
REMARK    2  A    between atoms: S_3  and  C_4
REMARK    3  A    between atoms: C_4  and  C_5
REMARK                            x       y       z     vdW  Elec       q    Type
REMARK                         _______ _______ _______ _____ _____    ______ ____
ROOT
ATOM      1  C   UNL     1       3.427   4.621  18.452  0.00  0.00    +0.000 C 
ATOM      2  O   UNL     1       2.907   4.385  17.365  0.00  0.00    +0.000 OA
ATOM      3  N   UNL     1       4.776   4.709  18.713  0.00  0.00    +0.000 N 
ATOM      4  C   UNL     1       5.794   4.590  17.797  0.00  0.00    +0.000 A 
ATOM      5  N   UNL     1       7.058   4.563  18.160  0.00  0.00    +0.000 NA
ATOM      6  N   UNL     1       7.910   4.429  17.081  0.00  0.00    +0.000 NA
ATOM      7  C   UNL     1       7.247   4.386  15.946  0.00  0.00    +0.000 A 
ATOM      8  S   UNL     1       5.547   4.515  16.111  0.00  0.00    +0.000 S 
ATOM      9  H   UNL     1       5.118   4.766  19.664  0.00  0.00    +0.000 HD
ENDROOT
BRANCH   1  10
ATOM     10  C   UNL     1       2.562   4.832  19.687  0.00  0.00    +0.000 C 
BRANCH  10  11
ATOM     11  S   UNL     1       1.162   3.676  19.704  0.00  0.00    +0.000 S 
BRANCH  11  13
ATOM     12  N   UNL     1       1.643   2.412  22.206  0.00  0.00    +0.000 NA
ATOM     13  C   UNL     1       1.494   2.938  21.184  0.00  0.00    +0.000 C 
ENDBRANCH  11  13
ENDBRANCH  10  11
ENDBRANCH   1  10
TORSDOF 3
ENDMDL
MODEL 4
REMARK VINA RESULT:      -5.1      1.963      5.204
REMARK  Name = 
REMARK  3 active torsions:
REMARK  status: ('A' for Active; 'I' for Inactive)
REMARK    1  A    between atoms: C_2  and  S_3
REMARK    2  A    between atoms: S_3  and  C_4
REMARK    3  A    between atoms: C_4  and  C_5
REMARK                            x       y       z     vdW  Elec       q    Type
REMARK                         _______ _______ _______ _____ _____    ______ ____
ROOT
ATOM      1  C   UNL     1       5.023   4.584  17.157  0.00  0.00    +0.000 C 
ATOM      2  O   UNL     1       4.292   5.544  16.933  0.00  0.00    +0.000 OA
ATOM      3  N   UNL     1       4.653   3.393  17.742  0.00  0.00    +0.000 N 
ATOM      4  C   UNL     1       3.388   3.041  18.149  0.00  0.00    +0.000 A 
ATOM      5  N   UNL     1       3.154   1.931  18.814  0.00  0.00    +0.000 NA
ATOM      6  N   UNL     1       1.817   1.781  19.129  0.00  0.00    +0.000 NA
ATOM      7  C   UNL     1       1.098   2.779  18.663  0.00  0.00    +0.000 A 
ATOM      8  S   UNL     1       1.993   3.959  17.804  0.00  0.00    +0.000 S 
ATOM      9  H   UNL     1       5.350   2.711  18.017  0.00  0.00    +0.000 HD
ENDROOT
BRANCH   1  10
ATOM     10  C   UNL     1       6.501   4.641  16.796  0.00  0.00    +0.000 C 
BRANCH  10  11
ATOM     11  S   UNL     1       7.248   6.194  17.368  0.00  0.00    +0.000 S 
BRANCH  11  13
ATOM     12  N   UNL     1       7.597   5.392  20.075  0.00  0.00    +0.000 NA
ATOM     13  C   UNL     1       7.454   5.765  18.986  0.00  0.00    +0.000 C 
ENDBRANCH  11  13
ENDBRANCH  10  11
ENDBRANCH   1  10
TORSDOF 3
ENDMDL
MODEL 5
REMARK VINA RESULT:      -5.1      2.354      2.476
REMARK  Name = 
REMARK  3 active torsions:
REMARK  status: ('A' for Active; 'I' for Inactive)
REMARK    1  A    between atoms: C_2  and  S_3
REMARK    2  A    between atoms: S_3  and  C_4
REMARK    3  A    between atoms: C_4  and  C_5
REMARK                            x       y       z     vdW  Elec       q    Type
REMARK                         _______ _______ _______ _____ _____    ______ ____
ROOT
ATOM      1  C   UNL     1       4.412   4.369  17.968  0.00  0.00    +0.000 C 
ATOM      2  O   UNL     1       3.859   3.500  17.301  0.00  0.00    +0.000 OA
ATOM      3  N   UNL     1       5.495   5.130  17.586  0.00  0.00    +0.000 N 
ATOM      4  C   UNL     1       6.134   5.087  16.370  0.00  0.00    +0.000 A 
ATOM      5  N   UNL     1       7.239   5.762  16.140  0.00  0.00    +0.000 NA
ATOM      6  N   UNL     1       7.715   5.567  14.857  0.00  0.00    +0.000 NA
ATOM      7  C   UNL     1       6.928   4.770  14.168  0.00  0.00    +0.000 A 
ATOM      8  S   UNL     1       5.555   4.211  15.026  0.00  0.00    +0.000 S 
ATOM      9  H   UNL     1       5.974   5.723  18.252  0.00  0.00    +0.000 HD
ENDROOT
BRANCH   1  10
ATOM     10  C   UNL     1       3.923   4.687  19.374  0.00  0.00    +0.000 C 
BRANCH  10  11
ATOM     11  S   UNL     1       2.179   4.223  19.574  0.00  0.00    +0.000 S 
BRANCH  11  13
ATOM     12  N   UNL     1       2.294   3.095  22.183  0.00  0.00    +0.000 NA
ATOM     13  C   UNL     1       2.294   3.565  21.123  0.00  0.00    +0.000 C 
ENDBRANCH  11  13
ENDBRANCH  10  11
ENDBRANCH   1  10
TORSDOF 3
ENDMDL
MODEL 6
REMARK VINA RESULT:      -5.1      1.343      1.343
REMARK  Name = 
REMARK  3 active torsions:
REMARK  status: ('A' for Active; 'I' for Inactive)
REMARK    1  A    between atoms: C_2  and  S_3
REMARK    2  A    between atoms: S_3  and  C_4
REMARK    3  A    between atoms: C_4  and  C_5
REMARK                            x       y       z     vdW  Elec       q    Type
REMARK                         _______ _______ _______ _____ _____    ______ ____
ROOT
ATOM      1  C   UNL     1       4.459   3.397  18.557  0.00  0.00    +0.000 C 
ATOM      2  O   UNL     1       4.004   3.728  17.466  0.00  0.00    +0.000 OA
ATOM      3  N   UNL     1       5.543   3.956  19.196  0.00  0.00    +0.000 N 
ATOM      4  C   UNL     1       6.296   5.016  18.751  0.00  0.00    +0.000 A 
ATOM      5  N   UNL     1       7.391   5.401  19.368  0.00  0.00    +0.000 NA
ATOM      6  N   UNL     1       7.993   6.478  18.747  0.00  0.00    +0.000 NA
ATOM      7  C   UNL     1       7.305   6.874  17.698  0.00  0.00    +0.000 A 
ATOM      8  S   UNL     1       5.879   5.973  17.402  0.00  0.00    +0.000 S 
ATOM      9  H   UNL     1       5.935   3.527  20.026  0.00  0.00    +0.000 HD
ENDROOT
BRANCH   1  10
ATOM     10  C   UNL     1       3.828   2.252  19.337  0.00  0.00    +0.000 C 
BRANCH  10  11
ATOM     11  S   UNL     1       2.460   2.849  20.371  0.00  0.00    +0.000 S 
BRANCH  11  13
ATOM     12  N   UNL     1       0.351   2.321  18.537  0.00  0.00    +0.000 NA
ATOM     13  C   UNL     1       1.200   2.495  19.307  0.00  0.00    +0.000 C 
ENDBRANCH  11  13
ENDBRANCH  10  11
ENDBRANCH   1  10
TORSDOF 3
ENDMDL
MODEL 7
REMARK VINA RESULT:      -5.1      2.520      5.655
REMARK  Name = 
REMARK  3 active torsions:
REMARK  status: ('A' for Active; 'I' for Inactive)
REMARK    1  A    between atoms: C_2  and  S_3
REMARK    2  A    between atoms: S_3  and  C_4
REMARK    3  A    between atoms: C_4  and  C_5
REMARK                            x       y       z     vdW  Elec       q    Type
REMARK                         _______ _______ _______ _____ _____    ______ ____
ROOT
ATOM      1  C   UNL     1       4.443   5.591  18.095  0.00  0.00    +0.000 C 
ATOM      2  O   UNL     1       4.844   5.501  19.252  0.00  0.00    +0.000 OA
ATOM      3  N   UNL     1       3.358   4.941  17.551  0.00  0.00    +0.000 N 
ATOM      4  C   UNL     1       2.495   4.100  18.212  0.00  0.00    +0.000 A 
ATOM      5  N   UNL     1       1.560   3.424  17.580  0.00  0.00    +0.000 NA
ATOM      6  N   UNL     1       0.815   2.636  18.435  0.00  0.00    +0.000 NA
ATOM      7  C   UNL     1       1.208   2.774  19.683  0.00  0.00    +0.000 A 
ATOM      8  S   UNL     1       2.501   3.875  19.902  0.00  0.00    +0.000 S 
ATOM      9  H   UNL     1       3.185   4.964  16.554  0.00  0.00    +0.000 HD
ENDROOT
BRANCH   1  10
ATOM     10  C   UNL     1       5.174   6.477  17.096  0.00  0.00    +0.000 C 
BRANCH  10  11
ATOM     11  S   UNL     1       5.880   5.487  15.747  0.00  0.00    +0.000 S 
BRANCH  11  13
ATOM     12  N   UNL     1       8.003   4.245  17.175  0.00  0.00    +0.000 NA
ATOM     13  C   UNL     1       7.109   4.743  16.630  0.00  0.00    +0.000 C 
ENDBRANCH  11  13
ENDBRANCH  10  11
ENDBRANCH   1  10
TORSDOF 3
ENDMDL
MODEL 8
REMARK VINA RESULT:      -5.1      1.850      1.875
REMARK  Name = 
REMARK  3 active torsions:
REMARK  status: ('A' for Active; 'I' for Inactive)
REMARK    1  A    between atoms: C_2  and  S_3
REMARK    2  A    between atoms: S_3  and  C_4
REMARK    3  A    between atoms: C_4  and  C_5
REMARK                            x       y       z     vdW  Elec       q    Type
REMARK                         _______ _______ _______ _____ _____    ______ ____
ROOT
ATOM      1  C   UNL     1       4.143   2.977  18.687  0.00  0.00    +0.000 C 
ATOM      2  O   UNL     1       4.931   3.015  19.627  0.00  0.00    +0.000 OA
ATOM      3  N   UNL     1       4.190   3.749  17.547  0.00  0.00    +0.000 N 
ATOM      4  C   UNL     1       5.152   4.679  17.231  0.00  0.00    +0.000 A 
ATOM      5  N   UNL     1       5.046   5.460  16.179  0.00  0.00    +0.000 NA
ATOM      6  N   UNL     1       6.118   6.323  16.056  0.00  0.00    +0.000 NA
ATOM      7  C   UNL     1       6.999   6.135  17.014  0.00  0.00    +0.000 A 
ATOM      8  S   UNL     1       6.591   4.893  18.120  0.00  0.00    +0.000 S 
ATOM      9  H   UNL     1       3.421   3.751  16.889  0.00  0.00    +0.000 HD
ENDROOT
BRANCH   1  10
ATOM     10  C   UNL     1       2.960   2.019  18.713  0.00  0.00    +0.000 C 
BRANCH  10  11
ATOM     11  S   UNL     1       1.439   2.882  19.201  0.00  0.00    +0.000 S 
BRANCH  11  13
ATOM     12  N   UNL     1       1.644   2.605  22.025  0.00  0.00    +0.000 NA
ATOM     13  C   UNL     1       1.608   2.717  20.871  0.00  0.00    +0.000 C 
ENDBRANCH  11  13
ENDBRANCH  10  11
ENDBRANCH   1  10
TORSDOF 3
ENDMDL
MODEL 9
REMARK VINA RESULT:      -5.0      2.189      5.540
REMARK  Name = 
REMARK  3 active torsions:
REMARK  status: ('A' for Active; 'I' for Inactive)
REMARK    1  A    between atoms: C_2  and  S_3
REMARK    2  A    between atoms: S_3  and  C_4
REMARK    3  A    between atoms: C_4  and  C_5
REMARK                            x       y       z     vdW  Elec       q    Type
REMARK                         _______ _______ _______ _____ _____    ______ ____
ROOT
ATOM      1  C   UNL     1       3.630   4.020  17.656  0.00  0.00    +0.000 C 
ATOM      2  O   UNL     1       2.620   4.695  17.480  0.00  0.00    +0.000 OA
ATOM      3  N   UNL     1       3.932   3.273  18.773  0.00  0.00    +0.000 N 
ATOM      4  C   UNL     1       3.141   3.111  19.885  0.00  0.00    +0.000 A 
ATOM      5  N   UNL     1       3.567   2.481  20.957  0.00  0.00    +0.000 NA
ATOM      6  N   UNL     1       2.613   2.442  21.956  0.00  0.00    +0.000 NA
ATOM      7  C   UNL     1       1.496   3.026  21.578  0.00  0.00    +0.000 A 
ATOM      8  S   UNL     1       1.527   3.652  19.985  0.00  0.00    +0.000 S 
ATOM      9  H   UNL     1       4.850   2.862  18.891  0.00  0.00    +0.000 HD
ENDROOT
BRANCH   1  10
ATOM     10  C   UNL     1       4.713   3.964  16.586  0.00  0.00    +0.000 C 
BRANCH  10  11
ATOM     11  S   UNL     1       6.270   4.665  17.203  0.00  0.00    +0.000 S 
BRANCH  11  13
ATOM     12  N   UNL     1       7.509   5.293  14.721  0.00  0.00    +0.000 NA
ATOM     13  C   UNL     1       6.962   5.031  15.710  0.00  0.00    +0.000 C 
ENDBRANCH  11  13
ENDBRANCH  10  11
ENDBRANCH   1  10
TORSDOF 3
ENDMDL
