MODEL 1
REMARK VINA RESULT:      -8.6      0.000      0.000
REMARK  Name = 
REMARK  5 active torsions:
REMARK  status: ('A' for Active; 'I' for Inactive)
REMARK    1  A    between atoms: S_2  and  C_4
REMARK    2  A    between atoms: S_2  and  N_10
REMARK    3  A    between atoms: N_13  and  C_14
REMARK    4  A    between atoms: C_14  and  C_15
REMARK    5  A    between atoms: C_18  and  C_19
REMARK                            x       y       z     vdW  Elec       q    Type
REMARK                         _______ _______ _______ _____ _____    ______ ____
ROOT
ATOM      1  N   UNL     1       3.625   5.514  17.278  0.00  0.00    +0.000 NA
ATOM      2  C   UNL     1       4.728   6.274  16.639  0.00  0.00    +0.000 C 
ATOM      3  C   UNL     1       5.957   6.366  17.552  0.00  0.00    +0.000 C 
ATOM      4  N   UNL     1       6.474   5.077  18.058  0.00  0.00    +0.000 NA
ATOM      5  C   UNL     1       5.408   4.131  18.439  0.00  0.00    +0.000 C 
ATOM      6  C   UNL     1       4.123   4.126  17.573  0.00  0.00    +0.000 C 
ENDROOT
BRANCH   1   8
ATOM      7  O   UNL     1       1.755   7.098  18.083  0.00  0.00    +0.000 OA
ATOM      8  S   UNL     1       2.804   6.245  18.593  0.00  0.00    +0.000 S 
ATOM      9  O   UNL     1       3.827   6.807  19.455  0.00  0.00    +0.000 OA
BRANCH   8  10
ATOM     10  C   UNL     1       2.008   4.924  19.498  0.00  0.00    +0.000 A 
ATOM     11  C   UNL     1       1.265   3.964  18.805  0.00  0.00    +0.000 A 
ATOM     12  C   UNL     1       0.887   2.780  19.447  0.00  0.00    +0.000 A 
ATOM     13  C   UNL     1       1.232   2.563  20.782  0.00  0.00    +0.000 A 
ATOM     14  C   UNL     1       1.936   3.537  21.488  0.00  0.00    +0.000 A 
ATOM     15  C   UNL     1       2.337   4.715  20.848  0.00  0.00    +0.000 A 
ENDBRANCH   8  10
ENDBRANCH   1   8
BRANCH   4  16
ATOM     16  C   UNL     1       7.516   4.494  17.196  0.00  0.00    +0.000 C 
BRANCH  16  17
ATOM     17  C   UNL     1       7.255   4.762  15.744  0.00  0.00    +0.000 A 
ATOM     18  N   UNL     1       7.793   5.673  14.964  0.00  0.00    +0.000 NA
ATOM     19  N   UNL     1       7.412   5.355  13.676  0.00  0.00    +0.000 NA
ATOM     20  C   UNL     1       6.663   4.271  13.758  0.00  0.00    +0.000 A 
ATOM     21  O   UNL     1       6.498   3.846  15.052  0.00  0.00    +0.000 OA
BRANCH  20  22
ATOM     22  C   UNL     1       6.007   3.509  12.702  0.00  0.00    +0.000 A 
ATOM     23  C   UNL     1       4.728   3.893  12.271  0.00  0.00    +0.000 A 
ATOM     24  C   UNL     1       4.038   3.145  11.313  0.00  0.00    +0.000 A 
ATOM     25  C   UNL     1       4.624   2.006  10.768  0.00  0.00    +0.000 A 
ATOM     26  C   UNL     1       5.907   1.630  11.158  0.00  0.00    +0.000 A 
ATOM     27  C   UNL     1       6.599   2.381  12.115  0.00  0.00    +0.000 A 
ENDBRANCH  20  22
ENDBRANCH  16  17
ENDBRANCH   4  16
TORSDOF 5
ENDMDL
MODEL 2
REMARK VINA RESULT:      -8.4      2.030      2.870
REMARK  Name = 
REMARK  5 active torsions:
REMARK  status: ('A' for Active; 'I' for Inactive)
REMARK    1  A    between atoms: S_2  and  C_4
REMARK    2  A    between atoms: S_2  and  N_10
REMARK    3  A    between atoms: N_13  and  C_14
REMARK    4  A    between atoms: C_14  and  C_15
REMARK    5  A    between atoms: C_18  and  C_19
REMARK                            x       y       z     vdW  Elec       q    Type
REMARK                         _______ _______ _______ _____ _____    ______ ____
ROOT
ATOM      1  N   UNL     1       3.728   5.723  17.530  0.00  0.00    +0.000 NA
ATOM      2  C   UNL     1       4.964   6.545  17.531  0.00  0.00    +0.000 C 
ATOM      3  C   UNL     1       6.008   5.997  18.512  0.00  0.00    +0.000 C 
ATOM      4  N   UNL     1       6.363   4.573  18.337  0.00  0.00    +0.000 NA
ATOM      5  C   UNL     1       5.202   3.718  18.027  0.00  0.00    +0.000 C 
ATOM      6  C   UNL     1       4.097   4.323  17.124  0.00  0.00    +0.000 C 
ENDROOT
BRANCH   1   8
ATOM      7  O   UNL     1       3.498   5.492  20.089  0.00  0.00    +0.000 OA
ATOM      8  S   UNL     1       2.717   5.794  18.912  0.00  0.00    +0.000 S 
ATOM      9  O   UNL     1       1.545   4.992  18.606  0.00  0.00    +0.000 OA
BRANCH   8  10
ATOM     10  C   UNL     1       2.177   7.492  19.066  0.00  0.00    +0.000 A 
ATOM     11  C   UNL     1       2.009   8.268  17.916  0.00  0.00    +0.000 A 
ATOM     12  C   UNL     1       1.319   9.483  17.991  0.00  0.00    +0.000 A 
ATOM     13  C   UNL     1       0.815   9.931  19.213  0.00  0.00    +0.000 A 
ATOM     14  C   UNL     1       1.019   9.180  20.370  0.00  0.00    +0.000 A 
ATOM     15  C   UNL     1       1.690   7.953  20.300  0.00  0.00    +0.000 A 
ENDBRANCH   8  10
ENDBRANCH   1   8
BRANCH   4  16
ATOM     16  C   UNL     1       7.516   4.370  17.444  0.00  0.00    +0.000 C 
BRANCH  16  17
ATOM     17  C   UNL     1       7.190   4.718  16.023  0.00  0.00    +0.000 A 
ATOM     18  N   UNL     1       7.609   5.738  15.307  0.00  0.00    +0.000 NA
ATOM     19  N   UNL     1       7.229   5.479  14.005  0.00  0.00    +0.000 NA
ATOM     20  C   UNL     1       6.601   4.318  14.016  0.00  0.00    +0.000 A 
ATOM     21  O   UNL     1       6.516   3.782  15.275  0.00  0.00    +0.000 OA
BRANCH  20  22
ATOM     22  C   UNL     1       6.002   3.573  12.915  0.00  0.00    +0.000 A 
ATOM     23  C   UNL     1       6.776   2.629  12.223  0.00  0.00    +0.000 A 
ATOM     24  C   UNL     1       6.261   1.948  11.117  0.00  0.00    +0.000 A 
ATOM     25  C   UNL     1       4.957   2.197  10.694  0.00  0.00    +0.000 A 
ATOM     26  C   UNL     1       4.163   3.105  11.390  0.00  0.00    +0.000 A 
ATOM     27  C   UNL     1       4.679   3.785  12.499  0.00  0.00    +0.000 A 
ENDBRANCH  20  22
ENDBRANCH  16  17
ENDBRANCH   4  16
TORSDOF 5
ENDMDL
MODEL 3
REMARK VINA RESULT:      -8.2      3.004      8.278
REMARK  Name = 
REMARK  5 active torsions:
REMARK  status: ('A' for Active; 'I' for Inactive)
REMARK    1  A    between atoms: S_2  and  C_4
REMARK    2  A    between atoms: S_2  and  N_10
REMARK    3  A    between atoms: N_13  and  C_14
REMARK    4  A    between atoms: C_14  and  C_15
REMARK    5  A    between atoms: C_18  and  C_19
REMARK                            x       y       z     vdW  Elec       q    Type
REMARK                         _______ _______ _______ _____ _____    ______ ____
ROOT
ATOM      1  N   UNL     1       6.701   4.039  15.716  0.00  0.00    +0.000 NA
ATOM      2  C   UNL     1       7.340   4.527  16.963  0.00  0.00    +0.000 C 
ATOM      3  C   UNL     1       6.561   5.695  17.580  0.00  0.00    +0.000 C 
ATOM      4  N   UNL     1       5.125   5.444  17.828  0.00  0.00    +0.000 NA
ATOM      5  C   UNL     1       4.473   4.682  16.746  0.00  0.00    +0.000 C 
ATOM      6  C   UNL     1       5.310   3.578  16.053  0.00  0.00    +0.000 C 
ENDROOT
BRANCH   1   8
ATOM      7  O   UNL     1       8.141   5.469  14.123  0.00  0.00    +0.000 OA
ATOM      8  S   UNL     1       6.775   5.044  14.330  0.00  0.00    +0.000 S 
ATOM      9  O   UNL     1       5.732   6.041  14.488  0.00  0.00    +0.000 OA
BRANCH   8  10
ATOM     10  C   UNL     1       6.330   4.022  12.931  0.00  0.00    +0.000 A 
ATOM     11  C   UNL     1       7.303   3.223  12.324  0.00  0.00    +0.000 A 
ATOM     12  C   UNL     1       6.920   2.215  11.434  0.00  0.00    +0.000 A 
ATOM     13  C   UNL     1       5.571   2.016  11.135  0.00  0.00    +0.000 A 
ATOM     14  C   UNL     1       4.601   2.840  11.706  0.00  0.00    +0.000 A 
ATOM     15  C   UNL     1       4.975   3.837  12.614  0.00  0.00    +0.000 A 
ENDBRANCH   8  10
ENDBRANCH   1   8
BRANCH   4  16
ATOM     16  C   UNL     1       4.854   4.924  19.178  0.00  0.00    +0.000 C 
BRANCH  16  17
ATOM     17  C   UNL     1       3.529   5.392  19.702  0.00  0.00    +0.000 A 
ATOM     18  N   UNL     1       2.692   4.769  20.501  0.00  0.00    +0.000 NA
ATOM     19  N   UNL     1       1.749   5.703  20.879  0.00  0.00    +0.000 NA
ATOM     20  C   UNL     1       2.074   6.835  20.282  0.00  0.00    +0.000 A 
ATOM     21  O   UNL     1       3.188   6.707  19.493  0.00  0.00    +0.000 OA
BRANCH  20  22
ATOM     22  C   UNL     1       1.424   8.139  20.339  0.00  0.00    +0.000 A 
ATOM     23  C   UNL     1       0.796   8.542  21.529  0.00  0.00    +0.000 A 
ATOM     24  C   UNL     1       0.101   9.751  21.600  0.00  0.00    +0.000 A 
ATOM     25  C   UNL     1       0.032  10.580  20.482  0.00  0.00    +0.000 A 
ATOM     26  C   UNL     1       0.679  10.212  19.305  0.00  0.00    +0.000 A 
ATOM     27  C   UNL     1       1.377   9.002  19.234  0.00  0.00    +0.000 A 
ENDBRANCH  20  22
ENDBRANCH  16  17
ENDBRANCH   4  16
TORSDOF 5
ENDMDL
MODEL 4
REMARK VINA RESULT:      -8.2      4.230      6.938
REMARK  Name = 
REMARK  5 active torsions:
REMARK  status: ('A' for Active; 'I' for Inactive)
REMARK    1  A    between atoms: S_2  and  C_4
REMARK    2  A    between atoms: S_2  and  N_10
REMARK    3  A    between atoms: N_13  and  C_14
REMARK    4  A    between atoms: C_14  and  C_15
REMARK    5  A    between atoms: C_18  and  C_19
REMARK                            x       y       z     vdW  Elec       q    Type
REMARK                         _______ _______ _______ _____ _____    ______ ____
ROOT
ATOM      1  N   UNL     1       4.728   3.602  17.614  0.00  0.00    +0.000 NA
ATOM      2  C   UNL     1       5.550   4.242  16.557  0.00  0.00    +0.000 C 
ATOM      3  C   UNL     1       5.623   5.764  16.738  0.00  0.00    +0.000 C 
ATOM      4  N   UNL     1       6.079   6.227  18.066  0.00  0.00    +0.000 NA
ATOM      5  C   UNL     1       5.531   5.430  19.180  0.00  0.00    +0.000 C 
ATOM      6  C   UNL     1       5.357   3.908  18.945  0.00  0.00    +0.000 C 
ENDROOT
BRANCH   1   8
ATOM      7  O   UNL     1       2.449   3.024  16.553  0.00  0.00    +0.000 OA
ATOM      8  S   UNL     1       3.034   3.858  17.578  0.00  0.00    +0.000 S 
ATOM      9  O   UNL     1       2.836   5.296  17.530  0.00  0.00    +0.000 OA
BRANCH   8  10
ATOM     10  C   UNL     1       2.395   3.282  19.146  0.00  0.00    +0.000 A 
ATOM     11  C   UNL     1       3.173   2.432  19.936  0.00  0.00    +0.000 A 
ATOM     12  C   UNL     1       2.824   2.210  21.272  0.00  0.00    +0.000 A 
ATOM     13  C   UNL     1       1.690   2.820  21.813  0.00  0.00    +0.000 A 
ATOM     14  C   UNL     1       0.888   3.634  21.016  0.00  0.00    +0.000 A 
ATOM     15  C   UNL     1       1.243   3.878  19.683  0.00  0.00    +0.000 A 
ENDBRANCH   8  10
ENDBRANCH   1   8
BRANCH   4  16
ATOM     16  C   UNL     1       7.534   6.437  18.136  0.00  0.00    +0.000 C 
BRANCH  16  17
ATOM     17  C   UNL     1       7.901   7.878  17.940  0.00  0.00    +0.000 A 
ATOM     18  N   UNL     1       7.309   8.785  17.195  0.00  0.00    +0.000 NA
ATOM     19  N   UNL     1       7.870   9.997  17.543  0.00  0.00    +0.000 NA
ATOM     20  C   UNL     1       8.769   9.747  18.477  0.00  0.00    +0.000 A 
ATOM     21  O   UNL     1       8.861   8.410  18.767  0.00  0.00    +0.000 OA
BRANCH  20  22
ATOM     22  C   UNL     1       9.645  10.663  19.197  0.00  0.00    +0.000 A 
ATOM     23  C   UNL     1       9.308  11.050  20.504  0.00  0.00    +0.000 A 
ATOM     24  C   UNL     1      10.082  11.983  21.199  0.00  0.00    +0.000 A 
ATOM     25  C   UNL     1      11.210  12.535  20.598  0.00  0.00    +0.000 A 
ATOM     26  C   UNL     1      11.579  12.136  19.315  0.00  0.00    +0.000 A 
ATOM     27  C   UNL     1      10.805  11.200  18.620  0.00  0.00    +0.000 A 
ENDBRANCH  20  22
ENDBRANCH  16  17
ENDBRANCH   4  16
TORSDOF 5
ENDMDL
MODEL 5
REMARK VINA RESULT:      -8.1      0.225      1.324
REMARK  Name = 
REMARK  5 active torsions:
REMARK  status: ('A' for Active; 'I' for Inactive)
REMARK    1  A    between atoms: S_2  and  C_4
REMARK    2  A    between atoms: S_2  and  N_10
REMARK    3  A    between atoms: N_13  and  C_14
REMARK    4  A    between atoms: C_14  and  C_15
REMARK    5  A    between atoms: C_18  and  C_19
REMARK                            x       y       z     vdW  Elec       q    Type
REMARK                         _______ _______ _______ _____ _____    ______ ____
ROOT
ATOM      1  N   UNL     1       3.703   5.562  17.221  0.00  0.00    +0.000 NA
ATOM      2  C   UNL     1       4.848   6.382  16.755  0.00  0.00    +0.000 C 
ATOM      3  C   UNL     1       6.032   6.308  17.729  0.00  0.00    +0.000 C 
ATOM      4  N   UNL     1       6.502   4.946  18.058  0.00  0.00    +0.000 NA
ATOM      5  C   UNL     1       5.403   3.979  18.242  0.00  0.00    +0.000 C 
ATOM      6  C   UNL     1       4.162   4.134  17.327  0.00  0.00    +0.000 C 
ENDROOT
BRANCH   1   8
ATOM      7  O   UNL     1       1.636   6.793  18.152  0.00  0.00    +0.000 OA
ATOM      8  S   UNL     1       2.830   6.107  18.591  0.00  0.00    +0.000 S 
ATOM      9  O   UNL     1       3.783   6.801  19.437  0.00  0.00    +0.000 OA
BRANCH   8  10
ATOM     10  C   UNL     1       2.297   4.645  19.474  0.00  0.00    +0.000 A 
ATOM     11  C   UNL     1       2.769   4.412  20.768  0.00  0.00    +0.000 A 
ATOM     12  C   UNL     1       2.149   3.450  21.572  0.00  0.00    +0.000 A 
ATOM     13  C   UNL     1       1.072   2.709  21.079  0.00  0.00    +0.000 A 
ATOM     14  C   UNL     1       0.627   2.910  19.774  0.00  0.00    +0.000 A 
ATOM     15  C   UNL     1       1.228   3.886  18.970  0.00  0.00    +0.000 A 
ENDBRANCH   8  10
ENDBRANCH   1   8
BRANCH   4  16
ATOM     16  C   UNL     1       7.576   4.474  17.168  0.00  0.00    +0.000 C 
BRANCH  16  17
ATOM     17  C   UNL     1       7.264   4.741  15.726  0.00  0.00    +0.000 A 
ATOM     18  N   UNL     1       7.791   5.638  14.922  0.00  0.00    +0.000 NA
ATOM     19  N   UNL     1       7.353   5.323  13.651  0.00  0.00    +0.000 NA
ATOM     20  C   UNL     1       6.586   4.255  13.767  0.00  0.00    +0.000 A 
ATOM     21  O   UNL     1       6.464   3.839  15.067  0.00  0.00    +0.000 OA
BRANCH  20  22
ATOM     22  C   UNL     1       5.875   3.502  12.740  0.00  0.00    +0.000 A 
ATOM     23  C   UNL     1       6.519   2.426  12.108  0.00  0.00    +0.000 A 
ATOM     24  C   UNL     1       5.898   1.728  11.069  0.00  0.00    +0.000 A 
ATOM     25  C   UNL     1       4.619   2.092  10.654  0.00  0.00    +0.000 A 
ATOM     26  C   UNL     1       3.952   3.133  11.294  0.00  0.00    +0.000 A 
ATOM     27  C   UNL     1       4.573   3.831  12.336  0.00  0.00    +0.000 A 
ENDBRANCH  20  22
ENDBRANCH  16  17
ENDBRANCH   4  16
TORSDOF 5
ENDMDL
MODEL 6
REMARK VINA RESULT:      -7.9      6.329      8.338
REMARK  Name = 
REMARK  5 active torsions:
REMARK  status: ('A' for Active; 'I' for Inactive)
REMARK    1  A    between atoms: S_2  and  C_4
REMARK    2  A    between atoms: S_2  and  N_10
REMARK    3  A    between atoms: N_13  and  C_14
REMARK    4  A    between atoms: C_14  and  C_15
REMARK    5  A    between atoms: C_18  and  C_19
REMARK                            x       y       z     vdW  Elec       q    Type
REMARK                         _______ _______ _______ _____ _____    ______ ____
ROOT
ATOM      1  N   UNL     1      -0.893  10.890  20.612  0.00  0.00    +0.000 NA
ATOM      2  C   UNL     1      -0.596  11.518  19.301  0.00  0.00    +0.000 C 
ATOM      3  C   UNL     1       0.903  11.473  18.977  0.00  0.00    +0.000 C 
ATOM      4  N   UNL     1       1.528  10.134  19.035  0.00  0.00    +0.000 NA
ATOM      5  C   UNL     1       1.047   9.316  20.164  0.00  0.00    +0.000 C 
ATOM      6  C   UNL     1      -0.446   9.455  20.555  0.00  0.00    +0.000 C 
ENDROOT
BRANCH   1   8
ATOM      7  O   UNL     1       0.645  12.662  21.684  0.00  0.00    +0.000 OA
ATOM      8  S   UNL     1      -0.388  11.712  22.028  0.00  0.00    +0.000 S 
ATOM      9  O   UNL     1      -0.117  10.689  23.023  0.00  0.00    +0.000 OA
BRANCH   8  10
ATOM     10  C   UNL     1      -1.794  12.656  22.602  0.00  0.00    +0.000 A 
ATOM     11  C   UNL     1      -2.779  12.029  23.370  0.00  0.00    +0.000 A 
ATOM     12  C   UNL     1      -3.718  12.800  24.063  0.00  0.00    +0.000 A 
ATOM     13  C   UNL     1      -3.686  14.193  23.974  0.00  0.00    +0.000 A 
ATOM     14  C   UNL     1      -2.732  14.820  23.174  0.00  0.00    +0.000 A 
ATOM     15  C   UNL     1      -1.776  14.056  22.494  0.00  0.00    +0.000 A 
ENDBRANCH   8  10
ENDBRANCH   1   8
BRANCH   4  16
ATOM     16  C   UNL     1       1.519   9.436  17.739  0.00  0.00    +0.000 C 
BRANCH  16  17
ATOM     17  C   UNL     1       2.298   8.156  17.789  0.00  0.00    +0.000 A 
ATOM     18  N   UNL     1       3.601   7.984  17.819  0.00  0.00    +0.000 NA
ATOM     19  N   UNL     1       3.810   6.650  18.107  0.00  0.00    +0.000 NA
ATOM     20  C   UNL     1       2.617   6.097  18.231  0.00  0.00    +0.000 A 
ATOM     21  O   UNL     1       1.601   6.993  18.019  0.00  0.00    +0.000 OA
BRANCH  20  22
ATOM     22  C   UNL     1       2.257   4.718  18.538  0.00  0.00    +0.000 A 
ATOM     23  C   UNL     1       2.586   3.703  17.626  0.00  0.00    +0.000 A 
ATOM     24  C   UNL     1       2.194   2.381  17.850  0.00  0.00    +0.000 A 
ATOM     25  C   UNL     1       1.473   2.055  18.997  0.00  0.00    +0.000 A 
ATOM     26  C   UNL     1       1.169   3.043  19.930  0.00  0.00    +0.000 A 
ATOM     27  C   UNL     1       1.564   4.367  19.706  0.00  0.00    +0.000 A 
ENDBRANCH  20  22
ENDBRANCH  16  17
ENDBRANCH   4  16
TORSDOF 5
ENDMDL
MODEL 7
REMARK VINA RESULT:      -7.8      4.426      6.909
REMARK  Name = 
REMARK  5 active torsions:
REMARK  status: ('A' for Active; 'I' for Inactive)
REMARK    1  A    between atoms: S_2  and  C_4
REMARK    2  A    between atoms: S_2  and  N_10
REMARK    3  A    between atoms: N_13  and  C_14
REMARK    4  A    between atoms: C_14  and  C_15
REMARK    5  A    between atoms: C_18  and  C_19
REMARK                            x       y       z     vdW  Elec       q    Type
REMARK                         _______ _______ _______ _____ _____    ______ ____
ROOT
ATOM      1  N   UNL     1       4.243   4.696  17.258  0.00  0.00    +0.000 NA
ATOM      2  C   UNL     1       4.256   6.011  17.946  0.00  0.00    +0.000 C 
ATOM      3  C   UNL     1       5.641   6.338  18.518  0.00  0.00    +0.000 C 
ATOM      4  N   UNL     1       6.760   6.275  17.555  0.00  0.00    +0.000 NA
ATOM      5  C   UNL     1       6.658   5.140  16.617  0.00  0.00    +0.000 C 
ATOM      6  C   UNL     1       5.239   4.747  16.133  0.00  0.00    +0.000 C 
ENDROOT
BRANCH   1   8
ATOM      7  O   UNL     1       5.599   3.329  18.975  0.00  0.00    +0.000 OA
ATOM      8  S   UNL     1       4.366   3.285  18.223  0.00  0.00    +0.000 S 
ATOM      9  O   UNL     1       4.105   2.160  17.342  0.00  0.00    +0.000 OA
BRANCH   8  10
ATOM     10  C   UNL     1       3.029   3.356  19.409  0.00  0.00    +0.000 A 
ATOM     11  C   UNL     1       1.713   3.481  18.957  0.00  0.00    +0.000 A 
ATOM     12  C   UNL     1       0.650   3.247  19.836  0.00  0.00    +0.000 A 
ATOM     13  C   UNL     1       0.900   2.908  21.167  0.00  0.00    +0.000 A 
ATOM     14  C   UNL     1       2.211   2.826  21.631  0.00  0.00    +0.000 A 
ATOM     15  C   UNL     1       3.281   3.037  20.753  0.00  0.00    +0.000 A 
ENDBRANCH   8  10
ENDBRANCH   1   8
BRANCH   4  16
ATOM     16  C   UNL     1       7.039   7.567  16.907  0.00  0.00    +0.000 C 
BRANCH  16  17
ATOM     17  C   UNL     1       7.830   8.479  17.797  0.00  0.00    +0.000 A 
ATOM     18  N   UNL     1       8.524   8.182  18.873  0.00  0.00    +0.000 NA
ATOM     19  N   UNL     1       9.257   9.310  19.183  0.00  0.00    +0.000 NA
ATOM     20  C   UNL     1       8.958  10.220  18.275  0.00  0.00    +0.000 A 
ATOM     21  O   UNL     1       8.034   9.769  17.368  0.00  0.00    +0.000 OA
BRANCH  20  22
ATOM     22  C   UNL     1       9.450  11.585  18.126  0.00  0.00    +0.000 A 
ATOM     23  C   UNL     1       8.530  12.640  18.025  0.00  0.00    +0.000 A 
ATOM     24  C   UNL     1       8.961  13.951  17.808  0.00  0.00    +0.000 A 
ATOM     25  C   UNL     1      10.322  14.225  17.696  0.00  0.00    +0.000 A 
ATOM     26  C   UNL     1      11.251  13.196  17.829  0.00  0.00    +0.000 A 
ATOM     27  C   UNL     1      10.819  11.883  18.049  0.00  0.00    +0.000 A 
ENDBRANCH  20  22
ENDBRANCH  16  17
ENDBRANCH   4  16
TORSDOF 5
ENDMDL
MODEL 8
REMARK VINA RESULT:      -7.8      3.890      9.147
REMARK  Name = 
REMARK  5 active torsions:
REMARK  status: ('A' for Active; 'I' for Inactive)
REMARK    1  A    between atoms: S_2  and  C_4
REMARK    2  A    between atoms: S_2  and  N_10
REMARK    3  A    between atoms: N_13  and  C_14
REMARK    4  A    between atoms: C_14  and  C_15
REMARK    5  A    between atoms: C_18  and  C_19
REMARK                            x       y       z     vdW  Elec       q    Type
REMARK                         _______ _______ _______ _____ _____    ______ ____
ROOT
ATOM      1  N   UNL     1       4.929   4.975  16.434  0.00  0.00    +0.000 NA
ATOM      2  C   UNL     1       4.457   4.117  17.549  0.00  0.00    +0.000 C 
ATOM      3  C   UNL     1       4.726   4.763  18.914  0.00  0.00    +0.000 C 
ATOM      4  N   UNL     1       4.197   6.132  19.088  0.00  0.00    +0.000 NA
ATOM      5  C   UNL     1       4.360   6.975  17.888  0.00  0.00    +0.000 C 
ATOM      6  C   UNL     1       4.196   6.286  16.510  0.00  0.00    +0.000 C 
ENDROOT
BRANCH   1   8
ATOM      7  O   UNL     1       7.307   4.201  17.065  0.00  0.00    +0.000 OA
ATOM      8  S   UNL     1       6.619   5.143  16.211  0.00  0.00    +0.000 S 
ATOM      9  O   UNL     1       6.911   6.560  16.328  0.00  0.00    +0.000 OA
BRANCH   8  10
ATOM     10  C   UNL     1       6.964   4.664  14.523  0.00  0.00    +0.000 A 
ATOM     11  C   UNL     1       6.188   3.673  13.915  0.00  0.00    +0.000 A 
ATOM     12  C   UNL     1       6.248   3.494  12.529  0.00  0.00    +0.000 A 
ATOM     13  C   UNL     1       7.094   4.289  11.754  0.00  0.00    +0.000 A 
ATOM     14  C   UNL     1       7.902   5.248  12.362  0.00  0.00    +0.000 A 
ATOM     15  C   UNL     1       7.832   5.448  13.746  0.00  0.00    +0.000 A 
ENDBRANCH   8  10
ENDBRANCH   1   8
BRANCH   4  16
ATOM     16  C   UNL     1       2.843   6.160  19.663  0.00  0.00    +0.000 C 
BRANCH  16  17
ATOM     17  C   UNL     1       2.227   7.525  19.579  0.00  0.00    +0.000 A 
ATOM     18  N   UNL     1       2.005   8.264  18.516  0.00  0.00    +0.000 NA
ATOM     19  N   UNL     1       1.207   9.311  18.932  0.00  0.00    +0.000 NA
ATOM     20  C   UNL     1       0.998   9.140  20.224  0.00  0.00    +0.000 A 
ATOM     21  O   UNL     1       1.638   8.030  20.714  0.00  0.00    +0.000 OA
BRANCH  20  22
ATOM     22  C   UNL     1       0.222   9.946  21.158  0.00  0.00    +0.000 A 
ATOM     23  C   UNL     1      -0.068   9.434  22.433  0.00  0.00    +0.000 A 
ATOM     24  C   UNL     1      -0.871  10.145  23.328  0.00  0.00    +0.000 A 
ATOM     25  C   UNL     1      -1.388  11.386  22.962  0.00  0.00    +0.000 A 
ATOM     26  C   UNL     1      -1.082  11.925  21.715  0.00  0.00    +0.000 A 
ATOM     27  C   UNL     1      -0.276  11.213  20.819  0.00  0.00    +0.000 A 
ENDBRANCH  20  22
ENDBRANCH  16  17
ENDBRANCH   4  16
TORSDOF 5
ENDMDL
MODEL 9
REMARK VINA RESULT:      -7.7      4.892      8.377
REMARK  Name = 
REMARK  5 active torsions:
REMARK  status: ('A' for Active; 'I' for Inactive)
REMARK    1  A    between atoms: S_2  and  C_4
REMARK    2  A    between atoms: S_2  and  N_10
REMARK    3  A    between atoms: N_13  and  C_14
REMARK    4  A    between atoms: C_14  and  C_15
REMARK    5  A    between atoms: C_18  and  C_19
REMARK                            x       y       z     vdW  Elec       q    Type
REMARK                         _______ _______ _______ _____ _____    ______ ____
ROOT
ATOM      1  N   UNL     1       4.275   5.521  19.112  0.00  0.00    +0.000 NA
ATOM      2  C   UNL     1       4.900   6.664  18.401  0.00  0.00    +0.000 C 
ATOM      3  C   UNL     1       3.969   7.240  17.326  0.00  0.00    +0.000 C 
ATOM      4  N   UNL     1       2.619   7.625  17.789  0.00  0.00    +0.000 NA
ATOM      5  C   UNL     1       2.041   6.670  18.754  0.00  0.00    +0.000 C 
ATOM      6  C   UNL     1       3.012   6.009  19.765  0.00  0.00    +0.000 C 
ENDROOT
BRANCH   1   8
ATOM      7  O   UNL     1       2.761   4.014  17.666  0.00  0.00    +0.000 OA
ATOM      8  S   UNL     1       4.081   4.051  18.252  0.00  0.00    +0.000 S 
ATOM      9  O   UNL     1       4.495   2.990  19.152  0.00  0.00    +0.000 OA
BRANCH   8  10
ATOM     10  C   UNL     1       5.251   4.091  16.899  0.00  0.00    +0.000 A 
ATOM     11  C   UNL     1       4.781   4.135  15.584  0.00  0.00    +0.000 A 
ATOM     12  C   UNL     1       5.657   4.458  14.542  0.00  0.00    +0.000 A 
ATOM     13  C   UNL     1       7.002   4.717  14.810  0.00  0.00    +0.000 A 
ATOM     14  C   UNL     1       7.483   4.632  16.116  0.00  0.00    +0.000 A 
ATOM     15  C   UNL     1       6.609   4.330  17.166  0.00  0.00    +0.000 A 
ENDBRANCH   8  10
ENDBRANCH   1   8
BRANCH   4  16
ATOM     16  C   UNL     1       2.532   9.032  18.209  0.00  0.00    +0.000 C 
BRANCH  16  17
ATOM     17  C   UNL     1       1.152   9.394  18.672  0.00  0.00    +0.000 A 
ATOM     18  N   UNL     1       0.744   9.703  19.882  0.00  0.00    +0.000 NA
ATOM     19  N   UNL     1      -0.541  10.189  19.745  0.00  0.00    +0.000 NA
ATOM     20  C   UNL     1      -0.830  10.141  18.458  0.00  0.00    +0.000 A 
ATOM     21  O   UNL     1       0.196   9.622  17.711  0.00  0.00    +0.000 OA
BRANCH  20  22
ATOM     22  C   UNL     1      -2.047  10.539  17.760  0.00  0.00    +0.000 A 
ATOM     23  C   UNL     1      -2.985  11.348  18.422  0.00  0.00    +0.000 A 
ATOM     24  C   UNL     1      -4.196  11.689  17.814  0.00  0.00    +0.000 A 
ATOM     25  C   UNL     1      -4.481  11.231  16.530  0.00  0.00    +0.000 A 
ATOM     26  C   UNL     1      -3.547  10.458  15.845  0.00  0.00    +0.000 A 
ATOM     27  C   UNL     1      -2.333  10.118  16.453  0.00  0.00    +0.000 A 
ENDBRANCH  20  22
ENDBRANCH  16  17
ENDBRANCH   4  16
TORSDOF 5
ENDMDL
