MODEL 1
REMARK VINA RESULT:      -6.9      0.000      0.000
REMARK  Name = 
REMARK  7 active torsions:
REMARK  status: ('A' for Active; 'I' for Inactive)
REMARK    1  A    between atoms: C_1  and  C_2
REMARK    2  A    between atoms: C_2  and  C_3
REMARK    3  A    between atoms: C_2  and  N_4
REMARK    4  A    between atoms: C_8  and  C_10
REMARK    5  A    between atoms: C_10  and  C_11
REMARK    6  A    between atoms: C_11  and  C_12
REMARK    7  A    between atoms: C_12  and  C_14
REMARK                            x       y       z     vdW  Elec       q    Type
REMARK                         _______ _______ _______ _____ _____    ______ ____
ROOT
ATOM      1  N   UNL     1       1.977   4.254  18.730  0.00  0.00    +0.000 NA
ATOM      2  C   UNL     1       2.654   5.214  19.641  0.00  0.00    +0.000 C 
ATOM      3  C   UNL     1       4.121   4.877  19.976  0.00  0.00    +0.000 C 
ATOM      4  N   UNL     1       4.919   4.638  18.772  0.00  0.00    +0.000 N 
ATOM      5  C   UNL     1       6.270   4.952  18.799  0.00  0.00    +0.000 C 
ATOM      6  O   UNL     1       6.809   5.463  19.782  0.00  0.00    +0.000 OA
ATOM      7  C   UNL     1       4.292   3.761  17.776  0.00  0.00    +0.000 C 
ATOM      8  C   UNL     1       2.820   4.133  17.518  0.00  0.00    +0.000 C 
ENDROOT
BRANCH   1  10
ATOM      9  C   UNL     1       1.104   3.228  20.811  0.00  0.00    +0.000 C 
ATOM     10  C   UNL     1       1.633   2.972  19.386  0.00  0.00    +0.000 C 
ATOM     11  C   UNL     1       0.536   2.174  18.657  0.00  0.00    +0.000 C 
ENDBRANCH   1  10
BRANCH   5  12
ATOM     12  C   UNL     1       7.052   4.670  17.533  0.00  0.00    +0.000 C 
BRANCH  12  13
ATOM     13  C   UNL     1       7.212   5.921  16.677  0.00  0.00    +0.000 C 
BRANCH  13  14
ATOM     14  C   UNL     1       6.157   5.987  15.593  0.00  0.00    +0.000 C 
ATOM     15  O   UNL     1       5.224   6.788  15.632  0.00  0.00    +0.000 OA
BRANCH  14  16
ATOM     16  C   UNL     1       6.260   5.040  14.443  0.00  0.00    +0.000 A 
ATOM     17  C   UNL     1       5.283   4.069  14.188  0.00  0.00    +0.000 A 
ATOM     18  C   UNL     1       5.423   3.197  13.104  0.00  0.00    +0.000 A 
ATOM     19  C   UNL     1       6.538   3.292  12.272  0.00  0.00    +0.000 A 
ATOM     20 CL   UNL     1       6.707   2.218  10.943  0.00  0.00    +0.000 Cl
ATOM     21  C   UNL     1       7.514   4.259  12.513  0.00  0.00    +0.000 A 
ATOM     22  C   UNL     1       7.375   5.131  13.597  0.00  0.00    +0.000 A 
ENDBRANCH  14  16
ENDBRANCH  13  14
ENDBRANCH  12  13
ENDBRANCH   5  12
TORSDOF 5
ENDMDL
MODEL 2
REMARK VINA RESULT:      -6.9      1.425      2.129
REMARK  Name = 
REMARK  7 active torsions:
REMARK  status: ('A' for Active; 'I' for Inactive)
REMARK    1  A    between atoms: C_1  and  C_2
REMARK    2  A    between atoms: C_2  and  C_3
REMARK    3  A    between atoms: C_2  and  N_4
REMARK    4  A    between atoms: C_8  and  C_10
REMARK    5  A    between atoms: C_10  and  C_11
REMARK    6  A    between atoms: C_11  and  C_12
REMARK    7  A    between atoms: C_12  and  C_14
REMARK                            x       y       z     vdW  Elec       q    Type
REMARK                         _______ _______ _______ _____ _____    ______ ____
ROOT
ATOM      1  N   UNL     1       2.996   3.077  19.322  0.00  0.00    +0.000 NA
ATOM      2  C   UNL     1       2.584   3.720  18.047  0.00  0.00    +0.000 C 
ATOM      3  C   UNL     1       2.932   5.219  17.926  0.00  0.00    +0.000 C 
ATOM      4  N   UNL     1       4.341   5.481  18.220  0.00  0.00    +0.000 N 
ATOM      5  C   UNL     1       4.964   6.545  17.583  0.00  0.00    +0.000 C 
ATOM      6  O   UNL     1       4.386   7.244  16.749  0.00  0.00    +0.000 OA
ATOM      7  C   UNL     1       4.858   4.820  19.424  0.00  0.00    +0.000 C 
ATOM      8  C   UNL     1       4.443   3.338  19.496  0.00  0.00    +0.000 C 
ENDROOT
BRANCH   1  10
ATOM      9  C   UNL     1       0.657   3.396  20.080  0.00  0.00    +0.000 C 
ATOM     10  C   UNL     1       2.146   3.465  20.471  0.00  0.00    +0.000 C 
ATOM     11  C   UNL     1       2.310   2.555  21.703  0.00  0.00    +0.000 C 
ENDBRANCH   1  10
BRANCH   5  12
ATOM     12  C   UNL     1       6.417   6.783  17.935  0.00  0.00    +0.000 C 
BRANCH  12  13
ATOM     13  C   UNL     1       7.334   6.544  16.741  0.00  0.00    +0.000 C 
BRANCH  13  14
ATOM     14  C   UNL     1       7.439   5.070  16.411  0.00  0.00    +0.000 C 
ATOM     15  O   UNL     1       8.055   4.280  17.124  0.00  0.00    +0.000 OA
BRANCH  14  16
ATOM     16  C   UNL     1       6.771   4.570  15.172  0.00  0.00    +0.000 A 
ATOM     17  C   UNL     1       5.514   3.950  15.204  0.00  0.00    +0.000 A 
ATOM     18  C   UNL     1       4.928   3.489  14.020  0.00  0.00    +0.000 A 
ATOM     19  C   UNL     1       5.593   3.646  12.805  0.00  0.00    +0.000 A 
ATOM     20 CL   UNL     1       4.869   3.079  11.355  0.00  0.00    +0.000 Cl
ATOM     21  C   UNL     1       6.841   4.268  12.762  0.00  0.00    +0.000 A 
ATOM     22  C   UNL     1       7.428   4.729  13.944  0.00  0.00    +0.000 A 
ENDBRANCH  14  16
ENDBRANCH  13  14
ENDBRANCH  12  13
ENDBRANCH   5  12
TORSDOF 5
ENDMDL
MODEL 3
REMARK VINA RESULT:      -6.4      5.147      6.702
REMARK  Name = 
REMARK  7 active torsions:
REMARK  status: ('A' for Active; 'I' for Inactive)
REMARK    1  A    between atoms: C_1  and  C_2
REMARK    2  A    between atoms: C_2  and  C_3
REMARK    3  A    between atoms: C_2  and  N_4
REMARK    4  A    between atoms: C_8  and  C_10
REMARK    5  A    between atoms: C_10  and  C_11
REMARK    6  A    between atoms: C_11  and  C_12
REMARK    7  A    between atoms: C_12  and  C_14
REMARK                            x       y       z     vdW  Elec       q    Type
REMARK                         _______ _______ _______ _____ _____    ______ ____
ROOT
ATOM      1  N   UNL     1       3.944   3.894  18.483  0.00  0.00    +0.000 NA
ATOM      2  C   UNL     1       4.754   3.632  17.264  0.00  0.00    +0.000 C 
ATOM      3  C   UNL     1       5.354   4.886  16.594  0.00  0.00    +0.000 C 
ATOM      4  N   UNL     1       6.087   5.720  17.547  0.00  0.00    +0.000 N 
ATOM      5  C   UNL     1       7.164   6.463  17.085  0.00  0.00    +0.000 C 
ATOM      6  O   UNL     1       7.550   6.410  15.917  0.00  0.00    +0.000 OA
ATOM      7  C   UNL     1       5.394   5.967  18.817  0.00  0.00    +0.000 C 
ATOM      8  C   UNL     1       4.791   4.680  19.409  0.00  0.00    +0.000 C 
ENDROOT
BRANCH   1  10
ATOM      9  C   UNL     1       1.582   3.376  17.938  0.00  0.00    +0.000 C 
ATOM     10  C   UNL     1       2.620   4.488  18.186  0.00  0.00    +0.000 C 
ATOM     11  C   UNL     1       2.057   5.355  19.328  0.00  0.00    +0.000 C 
ENDBRANCH   1  10
BRANCH   5  12
ATOM     12  C   UNL     1       7.878   7.322  18.109  0.00  0.00    +0.000 C 
BRANCH  12  13
ATOM     13  C   UNL     1       8.055   8.754  17.620  0.00  0.00    +0.000 C 
BRANCH  13  14
ATOM     14  C   UNL     1       8.826   9.589  18.622  0.00  0.00    +0.000 C 
ATOM     15  O   UNL     1       9.028   9.209  19.774  0.00  0.00    +0.000 OA
BRANCH  14  16
ATOM     16  C   UNL     1       9.351  10.916  18.185  0.00  0.00    +0.000 A 
ATOM     17  C   UNL     1       8.501  11.978  17.847  0.00  0.00    +0.000 A 
ATOM     18  C   UNL     1       9.036  13.203  17.436  0.00  0.00    +0.000 A 
ATOM     19  C   UNL     1      10.418  13.372  17.361  0.00  0.00    +0.000 A 
ATOM     20 CL   UNL     1      11.070  14.877  16.855  0.00  0.00    +0.000 Cl
ATOM     21  C   UNL     1      11.273  12.323  17.702  0.00  0.00    +0.000 A 
ATOM     22  C   UNL     1      10.740  11.098  18.113  0.00  0.00    +0.000 A 
ENDBRANCH  14  16
ENDBRANCH  13  14
ENDBRANCH  12  13
ENDBRANCH   5  12
TORSDOF 5
ENDMDL
MODEL 4
REMARK VINA RESULT:      -6.3      1.499      2.181
REMARK  Name = 
REMARK  7 active torsions:
REMARK  status: ('A' for Active; 'I' for Inactive)
REMARK    1  A    between atoms: C_1  and  C_2
REMARK    2  A    between atoms: C_2  and  C_3
REMARK    3  A    between atoms: C_2  and  N_4
REMARK    4  A    between atoms: C_8  and  C_10
REMARK    5  A    between atoms: C_10  and  C_11
REMARK    6  A    between atoms: C_11  and  C_12
REMARK    7  A    between atoms: C_12  and  C_14
REMARK                            x       y       z     vdW  Elec       q    Type
REMARK                         _______ _______ _______ _____ _____    ______ ____
ROOT
ATOM      1  N   UNL     1       2.781   2.199  19.165  0.00  0.00    +0.000 NA
ATOM      2  C   UNL     1       2.511   2.961  17.917  0.00  0.00    +0.000 C 
ATOM      3  C   UNL     1       2.770   4.479  18.007  0.00  0.00    +0.000 C 
ATOM      4  N   UNL     1       4.102   4.779  18.531  0.00  0.00    +0.000 N 
ATOM      5  C   UNL     1       4.736   5.939  18.108  0.00  0.00    +0.000 C 
ATOM      6  O   UNL     1       4.237   6.697  17.276  0.00  0.00    +0.000 OA
ATOM      7  C   UNL     1       4.487   4.013  19.723  0.00  0.00    +0.000 C 
ATOM      8  C   UNL     1       4.168   2.513  19.578  0.00  0.00    +0.000 C 
ENDROOT
BRANCH   1  10
ATOM      9  C   UNL     1       2.421   2.611  21.583  0.00  0.00    +0.000 C 
ATOM     10  C   UNL     1       1.752   2.411  20.210  0.00  0.00    +0.000 C 
ATOM     11  C   UNL     1       0.873   3.653  19.974  0.00  0.00    +0.000 C 
ENDBRANCH   1  10
BRANCH   5  12
ATOM     12  C   UNL     1       6.106   6.210  18.695  0.00  0.00    +0.000 C 
BRANCH  12  13
ATOM     13  C   UNL     1       7.176   6.300  17.613  0.00  0.00    +0.000 C 
BRANCH  13  14
ATOM     14  C   UNL     1       7.520   4.932  17.061  0.00  0.00    +0.000 C 
ATOM     15  O   UNL     1       8.286   4.164  17.642  0.00  0.00    +0.000 OA
BRANCH  14  16
ATOM     16  C   UNL     1       6.907   4.514  15.766  0.00  0.00    +0.000 A 
ATOM     17  C   UNL     1       5.793   3.664  15.710  0.00  0.00    +0.000 A 
ATOM     18  C   UNL     1       5.255   3.292  14.474  0.00  0.00    +0.000 A 
ATOM     19  C   UNL     1       5.826   3.764  13.293  0.00  0.00    +0.000 A 
ATOM     20 CL   UNL     1       5.162   3.302  11.779  0.00  0.00    +0.000 Cl
ATOM     21  C   UNL     1       6.930   4.615  13.338  0.00  0.00    +0.000 A 
ATOM     22  C   UNL     1       7.470   4.988  14.573  0.00  0.00    +0.000 A 
ENDBRANCH  14  16
ENDBRANCH  13  14
ENDBRANCH  12  13
ENDBRANCH   5  12
TORSDOF 5
ENDMDL
MODEL 5
REMARK VINA RESULT:      -6.3      1.498      2.265
REMARK  Name = 
REMARK  7 active torsions:
REMARK  status: ('A' for Active; 'I' for Inactive)
REMARK    1  A    between atoms: C_1  and  C_2
REMARK    2  A    between atoms: C_2  and  C_3
REMARK    3  A    between atoms: C_2  and  N_4
REMARK    4  A    between atoms: C_8  and  C_10
REMARK    5  A    between atoms: C_10  and  C_11
REMARK    6  A    between atoms: C_11  and  C_12
REMARK    7  A    between atoms: C_12  and  C_14
REMARK                            x       y       z     vdW  Elec       q    Type
REMARK                         _______ _______ _______ _____ _____    ______ ____
ROOT
ATOM      1  N   UNL     1       2.240   2.632  18.893  0.00  0.00    +0.000 NA
ATOM      2  C   UNL     1       1.897   3.689  17.905  0.00  0.00    +0.000 C 
ATOM      3  C   UNL     1       2.475   5.086  18.212  0.00  0.00    +0.000 C 
ATOM      4  N   UNL     1       3.916   5.042  18.458  0.00  0.00    +0.000 N 
ATOM      5  C   UNL     1       4.681   6.150  18.121  0.00  0.00    +0.000 C 
ATOM      6  O   UNL     1       4.197   7.146  17.583  0.00  0.00    +0.000 OA
ATOM      7  C   UNL     1       4.359   3.975  19.364  0.00  0.00    +0.000 C 
ATOM      8  C   UNL     1       3.715   2.619  19.022  0.00  0.00    +0.000 C 
ENDROOT
BRANCH   1  10
ATOM      9  C   UNL     1       2.466   2.626  21.362  0.00  0.00    +0.000 C 
ATOM     10  C   UNL     1       1.500   2.766  20.170  0.00  0.00    +0.000 C 
ATOM     11  C   UNL     1       0.798   4.126  20.342  0.00  0.00    +0.000 C 
ENDBRANCH   1  10
BRANCH   5  12
ATOM     12  C   UNL     1       6.165   6.058  18.412  0.00  0.00    +0.000 C 
BRANCH  12  13
ATOM     13  C   UNL     1       7.001   6.270  17.156  0.00  0.00    +0.000 C 
BRANCH  13  14
ATOM     14  C   UNL     1       7.403   4.950  16.531  0.00  0.00    +0.000 C 
ATOM     15  O   UNL     1       8.261   4.223  17.028  0.00  0.00    +0.000 OA
BRANCH  14  16
ATOM     16  C   UNL     1       6.730   4.529  15.266  0.00  0.00    +0.000 A 
ATOM     17  C   UNL     1       7.390   4.548  14.030  0.00  0.00    +0.000 A 
ATOM     18  C   UNL     1       6.719   4.152  12.868  0.00  0.00    +0.000 A 
ATOM     19  C   UNL     1       5.390   3.737  12.937  0.00  0.00    +0.000 A 
ATOM     20 CL   UNL     1       4.571   3.253  11.508  0.00  0.00    +0.000 Cl
ATOM     21  C   UNL     1       4.726   3.708  14.163  0.00  0.00    +0.000 A 
ATOM     22  C   UNL     1       5.395   4.103  15.326  0.00  0.00    +0.000 A 
ENDBRANCH  14  16
ENDBRANCH  13  14
ENDBRANCH  12  13
ENDBRANCH   5  12
TORSDOF 5
ENDMDL
MODEL 6
REMARK VINA RESULT:      -6.2      4.334      6.226
REMARK  Name = 
REMARK  7 active torsions:
REMARK  status: ('A' for Active; 'I' for Inactive)
REMARK    1  A    between atoms: C_1  and  C_2
REMARK    2  A    between atoms: C_2  and  C_3
REMARK    3  A    between atoms: C_2  and  N_4
REMARK    4  A    between atoms: C_8  and  C_10
REMARK    5  A    between atoms: C_10  and  C_11
REMARK    6  A    between atoms: C_11  and  C_12
REMARK    7  A    between atoms: C_12  and  C_14
REMARK                            x       y       z     vdW  Elec       q    Type
REMARK                         _______ _______ _______ _____ _____    ______ ____
ROOT
ATOM      1  N   UNL     1      -0.534  10.390  20.524  0.00  0.00    +0.000 NA
ATOM      2  C   UNL     1      -0.078  10.102  19.138  0.00  0.00    +0.000 C 
ATOM      3  C   UNL     1       1.321   9.461  19.028  0.00  0.00    +0.000 C 
ATOM      4  N   UNL     1       1.453   8.282  19.884  0.00  0.00    +0.000 N 
ATOM      5  C   UNL     1       2.302   7.261  19.481  0.00  0.00    +0.000 C 
ATOM      6  O   UNL     1       2.911   7.294  18.410  0.00  0.00    +0.000 OA
ATOM      7  C   UNL     1       0.954   8.449  21.254  0.00  0.00    +0.000 C 
ATOM      8  C   UNL     1      -0.429   9.127  21.289  0.00  0.00    +0.000 C 
ENDROOT
BRANCH   1  10
ATOM      9  C   UNL     1       0.246  12.708  20.117  0.00  0.00    +0.000 C 
ATOM     10  C   UNL     1       0.153  11.553  21.133  0.00  0.00    +0.000 C 
ATOM     11  C   UNL     1      -0.568  12.124  22.368  0.00  0.00    +0.000 C 
ENDBRANCH   1  10
BRANCH   5  12
ATOM     12  C   UNL     1       2.415   6.071  20.411  0.00  0.00    +0.000 C 
BRANCH  12  13
ATOM     13  C   UNL     1       1.943   4.785  19.743  0.00  0.00    +0.000 C 
BRANCH  13  14
ATOM     14  C   UNL     1       3.076   3.791  19.594  0.00  0.00    +0.000 C 
ATOM     15  O   UNL     1       3.186   2.808  20.325  0.00  0.00    +0.000 OA
BRANCH  14  16
ATOM     16  C   UNL     1       4.090   4.026  18.524  0.00  0.00    +0.000 A 
ATOM     17  C   UNL     1       3.787   3.870  17.164  0.00  0.00    +0.000 A 
ATOM     18  C   UNL     1       4.770   4.093  16.195  0.00  0.00    +0.000 A 
ATOM     19  C   UNL     1       6.056   4.470  16.578  0.00  0.00    +0.000 A 
ATOM     20 CL   UNL     1       7.259   4.740  15.384  0.00  0.00    +0.000 Cl
ATOM     21  C   UNL     1       6.367   4.633  17.928  0.00  0.00    +0.000 A 
ATOM     22  C   UNL     1       5.385   4.411  18.899  0.00  0.00    +0.000 A 
ENDBRANCH  14  16
ENDBRANCH  13  14
ENDBRANCH  12  13
ENDBRANCH   5  12
TORSDOF 5
ENDMDL
MODEL 7
REMARK VINA RESULT:      -6.1      4.309      6.201
REMARK  Name = 
REMARK  7 active torsions:
REMARK  status: ('A' for Active; 'I' for Inactive)
REMARK    1  A    between atoms: C_1  and  C_2
REMARK    2  A    between atoms: C_2  and  C_3
REMARK    3  A    between atoms: C_2  and  N_4
REMARK    4  A    between atoms: C_8  and  C_10
REMARK    5  A    between atoms: C_10  and  C_11
REMARK    6  A    between atoms: C_11  and  C_12
REMARK    7  A    between atoms: C_12  and  C_14
REMARK                            x       y       z     vdW  Elec       q    Type
REMARK                         _______ _______ _______ _____ _____    ______ ____
ROOT
ATOM      1  N   UNL     1      -0.594  10.297  20.614  0.00  0.00    +0.000 NA
ATOM      2  C   UNL     1      -0.252  10.019  19.194  0.00  0.00    +0.000 C 
ATOM      3  C   UNL     1       1.171   9.471  18.957  0.00  0.00    +0.000 C 
ATOM      4  N   UNL     1       1.465   8.318  19.808  0.00  0.00    +0.000 N 
ATOM      5  C   UNL     1       2.340   7.350  19.335  0.00  0.00    +0.000 C 
ATOM      6  O   UNL     1       2.841   7.408  18.211  0.00  0.00    +0.000 OA
ATOM      7  C   UNL     1       1.086   8.473  21.218  0.00  0.00    +0.000 C 
ATOM      8  C   UNL     1      -0.330   9.056  21.378  0.00  0.00    +0.000 C 
ENDROOT
BRANCH   1  10
ATOM      9  C   UNL     1      -0.017  12.656  20.113  0.00  0.00    +0.000 C 
ATOM     10  C   UNL     1       0.066  11.513  21.144  0.00  0.00    +0.000 C 
ATOM     11  C   UNL     1      -0.572  12.053  22.437  0.00  0.00    +0.000 C 
ENDBRANCH   1  10
BRANCH   5  12
ATOM     12  C   UNL     1       2.622   6.186  20.261  0.00  0.00    +0.000 C 
BRANCH  12  13
ATOM     13  C   UNL     1       2.105   4.871  19.689  0.00  0.00    +0.000 C 
BRANCH  13  14
ATOM     14  C   UNL     1       3.225   3.866  19.517  0.00  0.00    +0.000 C 
ATOM     15  O   UNL     1       3.321   2.864  20.224  0.00  0.00    +0.000 OA
BRANCH  14  16
ATOM     16  C   UNL     1       4.243   4.111  18.453  0.00  0.00    +0.000 A 
ATOM     17  C   UNL     1       5.533   4.570  18.749  0.00  0.00    +0.000 A 
ATOM     18  C   UNL     1       6.454   4.794  17.720  0.00  0.00    +0.000 A 
ATOM     19  C   UNL     1       6.089   4.561  16.395  0.00  0.00    +0.000 A 
ATOM     20 CL   UNL     1       7.222   4.838  15.135  0.00  0.00    +0.000 Cl
ATOM     21  C   UNL     1       4.809   4.098  16.090  0.00  0.00    +0.000 A 
ATOM     22  C   UNL     1       3.888   3.874  17.117  0.00  0.00    +0.000 A 
ENDBRANCH  14  16
ENDBRANCH  13  14
ENDBRANCH  12  13
ENDBRANCH   5  12
TORSDOF 5
ENDMDL
MODEL 8
REMARK VINA RESULT:      -6.1      3.811      6.623
REMARK  Name = 
REMARK  7 active torsions:
REMARK  status: ('A' for Active; 'I' for Inactive)
REMARK    1  A    between atoms: C_1  and  C_2
REMARK    2  A    between atoms: C_2  and  C_3
REMARK    3  A    between atoms: C_2  and  N_4
REMARK    4  A    between atoms: C_8  and  C_10
REMARK    5  A    between atoms: C_10  and  C_11
REMARK    6  A    between atoms: C_11  and  C_12
REMARK    7  A    between atoms: C_12  and  C_14
REMARK                            x       y       z     vdW  Elec       q    Type
REMARK                         _______ _______ _______ _____ _____    ______ ____
ROOT
ATOM      1  N   UNL     1       6.953   5.461  17.467  0.00  0.00    +0.000 NA
ATOM      2  C   UNL     1       7.042   4.996  18.877  0.00  0.00    +0.000 C 
ATOM      3  C   UNL     1       5.712   4.515  19.493  0.00  0.00    +0.000 C 
ATOM      4  N   UNL     1       5.044   3.522  18.651  0.00  0.00    +0.000 N 
ATOM      5  C   UNL     1       4.258   2.555  19.262  0.00  0.00    +0.000 C 
ATOM      6  O   UNL     1       4.141   2.477  20.486  0.00  0.00    +0.000 OA
ATOM      7  C   UNL     1       4.979   3.861  17.224  0.00  0.00    +0.000 C 
ATOM      8  C   UNL     1       6.330   4.368  16.686  0.00  0.00    +0.000 C 
ENDROOT
BRANCH   1  10
ATOM      9  C   UNL     1       7.360   7.900  17.291  0.00  0.00    +0.000 C 
ATOM     10  C   UNL     1       6.299   6.783  17.330  0.00  0.00    +0.000 C 
ATOM     11  C   UNL     1       5.467   6.934  16.043  0.00  0.00    +0.000 C 
ENDBRANCH   1  10
BRANCH   5  12
ATOM     12  C   UNL     1       3.576   1.563  18.343  0.00  0.00    +0.000 C 
BRANCH  12  13
ATOM     13  C   UNL     1       2.446   2.210  17.552  0.00  0.00    +0.000 C 
BRANCH  13  14
ATOM     14  C   UNL     1       1.364   2.743  18.469  0.00  0.00    +0.000 C 
ATOM     15  O   UNL     1       0.377   2.077  18.775  0.00  0.00    +0.000 OA
BRANCH  14  16
ATOM     16  C   UNL     1       1.511   4.127  19.011  0.00  0.00    +0.000 A 
ATOM     17  C   UNL     1       1.244   4.432  20.353  0.00  0.00    +0.000 A 
ATOM     18  C   UNL     1       1.388   5.744  20.817  0.00  0.00    +0.000 A 
ATOM     19  C   UNL     1       1.798   6.752  19.945  0.00  0.00    +0.000 A 
ATOM     20 CL   UNL     1       1.971   8.361  20.519  0.00  0.00    +0.000 Cl
ATOM     21  C   UNL     1       2.072   6.457  18.609  0.00  0.00    +0.000 A 
ATOM     22  C   UNL     1       1.929   5.146  18.144  0.00  0.00    +0.000 A 
ENDBRANCH  14  16
ENDBRANCH  13  14
ENDBRANCH  12  13
ENDBRANCH   5  12
TORSDOF 5
ENDMDL
MODEL 9
REMARK VINA RESULT:      -6.1      5.116      6.705
REMARK  Name = 
REMARK  7 active torsions:
REMARK  status: ('A' for Active; 'I' for Inactive)
REMARK    1  A    between atoms: C_1  and  C_2
REMARK    2  A    between atoms: C_2  and  C_3
REMARK    3  A    between atoms: C_2  and  N_4
REMARK    4  A    between atoms: C_8  and  C_10
REMARK    5  A    between atoms: C_10  and  C_11
REMARK    6  A    between atoms: C_11  and  C_12
REMARK    7  A    between atoms: C_12  and  C_14
REMARK                            x       y       z     vdW  Elec       q    Type
REMARK                         _______ _______ _______ _____ _____    ______ ____
ROOT
ATOM      1  N   UNL     1       4.146   3.438  18.708  0.00  0.00    +0.000 NA
ATOM      2  C   UNL     1       4.296   3.704  17.253  0.00  0.00    +0.000 C 
ATOM      3  C   UNL     1       4.524   5.183  16.877  0.00  0.00    +0.000 C 
ATOM      4  N   UNL     1       5.620   5.781  17.639  0.00  0.00    +0.000 N 
ATOM      5  C   UNL     1       6.365   6.791  17.048  0.00  0.00    +0.000 C 
ATOM      6  O   UNL     1       6.164   7.169  15.893  0.00  0.00    +0.000 OA
ATOM      7  C   UNL     1       5.598   5.504  19.080  0.00  0.00    +0.000 C 
ATOM      8  C   UNL     1       5.330   4.017  19.382  0.00  0.00    +0.000 C 
ENDROOT
BRANCH   1  10
ATOM      9  C   UNL     1       1.689   3.248  18.438  0.00  0.00    +0.000 C 
ATOM     10  C   UNL     1       2.838   3.878  19.248  0.00  0.00    +0.000 C 
ATOM     11  C   UNL     1       2.604   3.472  20.715  0.00  0.00    +0.000 C 
ENDBRANCH   1  10
BRANCH   5  12
ATOM     12  C   UNL     1       7.477   7.387  17.886  0.00  0.00    +0.000 C 
BRANCH  12  13
ATOM     13  C   UNL     1       7.835   8.796  17.431  0.00  0.00    +0.000 C 
BRANCH  13  14
ATOM     14  C   UNL     1       8.735   9.489  18.433  0.00  0.00    +0.000 C 
ATOM     15  O   UNL     1       9.058   8.963  19.497  0.00  0.00    +0.000 OA
BRANCH  14  16
ATOM     16  C   UNL     1       9.239  10.857  18.109  0.00  0.00    +0.000 A 
ATOM     17  C   UNL     1      10.586  11.102  17.809  0.00  0.00    +0.000 A 
ATOM     18  C   UNL     1      11.015  12.401  17.519  0.00  0.00    +0.000 A 
ATOM     19  C   UNL     1      10.104  13.456  17.528  0.00  0.00    +0.000 A 
ATOM     20 CL   UNL     1      10.638  15.049  17.172  0.00  0.00    +0.000 Cl
ATOM     21  C   UNL     1       8.761  13.221  17.820  0.00  0.00    +0.000 A 
ATOM     22  C   UNL     1       8.329  11.924  18.110  0.00  0.00    +0.000 A 
ENDBRANCH  14  16
ENDBRANCH  13  14
ENDBRANCH  12  13
ENDBRANCH   5  12
TORSDOF 5
ENDMDL
