MODEL 1
REMARK VINA RESULT:      -8.2      0.000      0.000
REMARK  Name = 
REMARK  11 active torsions:
REMARK  status: ('A' for Active; 'I' for Inactive)
REMARK    1  A    between atoms: C_1  and  O_2
REMARK    2  A    between atoms: O_2  and  C_3
REMARK    3  A    between atoms: C_6  and  C_7
REMARK    4  A    between atoms: C_7  and  C_8
REMARK    5  A    between atoms: N_10  and  C_11
REMARK    6  A    between atoms: C_11  and  C_12
REMARK    7  A    between atoms: N_20  and  C_21
REMARK    8  A    between atoms: C_21  and  C_22
REMARK    9  A    between atoms: C_25  and  C_26
REMARK   10  A    between atoms: C_30  and  O_31
REMARK   11  A    between atoms: O_31  and  C_32
REMARK                            x       y       z     vdW  Elec       q    Type
REMARK                         _______ _______ _______ _____ _____    ______ ____
ROOT
ATOM      1  C   UNL     1       2.520   6.234  18.990  0.00  0.00    +0.000 A 
ATOM      2  N   UNL     1       1.420   5.671  19.474  0.00  0.00    +0.000 NA
ATOM      3  C   UNL     1       1.832   4.498  20.058  0.00  0.00    +0.000 A 
ATOM      4  C   UNL     1       1.126   3.509  20.756  0.00  0.00    +0.000 A 
ATOM      5  C   UNL     1       1.856   2.428  21.254  0.00  0.00    +0.000 A 
ATOM      6  C   UNL     1       3.233   2.371  21.024  0.00  0.00    +0.000 A 
ATOM      7  N   UNL     1       3.953   3.291  20.342  0.00  0.00    +0.000 NA
ATOM      8  C   UNL     1       3.199   4.319  19.902  0.00  0.00    +0.000 A 
ATOM      9  N   UNL     1       3.621   5.421  19.203  0.00  0.00    +0.000 N 
ENDROOT
BRANCH   1  10
ATOM     10  C   UNL     1       2.620   7.594  18.377  0.00  0.00    +0.000 C 
BRANCH  10  13
ATOM     11  C   UNL     1       1.599   9.791  18.503  0.00  0.00    +0.000 C 
ATOM     12  O   UNL     1       2.063  10.083  17.397  0.00  0.00    +0.000 OA
ATOM     13  N   UNL     1       1.810   8.561  19.085  0.00  0.00    +0.000 N 
ATOM     14  H   UNL     1       1.708   8.442  20.090  0.00  0.00    +0.000 HD
BRANCH  11  15
ATOM     15  C   UNL     1       0.711  10.754  19.264  0.00  0.00    +0.000 C 
BRANCH  15  19
ATOM     16  C   UNL     1      -3.452  10.901  18.058  0.00  0.00    +0.000 A 
ATOM     17  C   UNL     1      -2.540  10.071  17.382  0.00  0.00    +0.000 A 
ATOM     18  C   UNL     1      -1.190  10.022  17.751  0.00  0.00    +0.000 A 
ATOM     19  C   UNL     1      -0.709  10.841  18.772  0.00  0.00    +0.000 A 
ATOM     20  C   UNL     1      -1.608  11.710  19.402  0.00  0.00    +0.000 A 
ATOM     21  C   UNL     1      -2.969  11.762  19.054  0.00  0.00    +0.000 A 
BRANCH  16  23
ATOM     22  C   UNL     1      -5.252  11.942  16.913  0.00  0.00    +0.000 C 
ATOM     23  O   UNL     1      -4.790  10.890  17.762  0.00  0.00    +0.000 OA
ENDBRANCH  16  23
BRANCH  21  24
ATOM     24  O   UNL     1      -3.635  12.678  19.822  0.00  0.00    +0.000 OA
ATOM     25  C   UNL     1      -2.948  13.393  20.833  0.00  0.00    +0.000 C 
ENDBRANCH  21  24
ENDBRANCH  15  19
ENDBRANCH  11  15
ENDBRANCH  10  13
ENDBRANCH   1  10
BRANCH   9  26
ATOM     26  C   UNL     1       4.968   5.591  18.681  0.00  0.00    +0.000 C 
BRANCH  26  27
ATOM     27  C   UNL     1       5.140   5.134  17.253  0.00  0.00    +0.000 A 
ATOM     28  C   UNL     1       5.309   6.062  16.215  0.00  0.00    +0.000 A 
ATOM     29  C   UNL     1       5.605   5.639  14.916  0.00  0.00    +0.000 A 
ATOM     30  C   UNL     1       5.739   4.278  14.624  0.00  0.00    +0.000 A 
ATOM     31  C   UNL     1       6.135   3.818  13.252  0.00  0.00    +0.000 C 
ATOM     32  C   UNL     1       5.547   3.346  15.650  0.00  0.00    +0.000 A 
ATOM     33  C   UNL     1       5.249   3.769  16.950  0.00  0.00    +0.000 A 
ENDBRANCH  26  27
ENDBRANCH   9  26
TORSDOF 8
ENDMDL
MODEL 2
REMARK VINA RESULT:      -8.1      0.779      1.117
REMARK  Name = 
REMARK  11 active torsions:
REMARK  status: ('A' for Active; 'I' for Inactive)
REMARK    1  A    between atoms: C_1  and  O_2
REMARK    2  A    between atoms: O_2  and  C_3
REMARK    3  A    between atoms: C_6  and  C_7
REMARK    4  A    between atoms: C_7  and  C_8
REMARK    5  A    between atoms: N_10  and  C_11
REMARK    6  A    between atoms: C_11  and  C_12
REMARK    7  A    between atoms: N_20  and  C_21
REMARK    8  A    between atoms: C_21  and  C_22
REMARK    9  A    between atoms: C_25  and  C_26
REMARK   10  A    between atoms: C_30  and  O_31
REMARK   11  A    between atoms: O_31  and  C_32
REMARK                            x       y       z     vdW  Elec       q    Type
REMARK                         _______ _______ _______ _____ _____    ______ ____
ROOT
ATOM      1  C   UNL     1       2.902   6.164  18.548  0.00  0.00    +0.000 A 
ATOM      2  N   UNL     1       1.934   5.368  18.983  0.00  0.00    +0.000 NA
ATOM      3  C   UNL     1       2.566   4.241  19.454  0.00  0.00    +0.000 A 
ATOM      4  C   UNL     1       2.066   3.082  20.060  0.00  0.00    +0.000 A 
ATOM      5  C   UNL     1       2.991   2.111  20.452  0.00  0.00    +0.000 A 
ATOM      6  C   UNL     1       4.350   2.329  20.210  0.00  0.00    +0.000 A 
ATOM      7  N   UNL     1       4.876   3.422  19.613  0.00  0.00    +0.000 NA
ATOM      8  C   UNL     1       3.938   4.331  19.275  0.00  0.00    +0.000 A 
ATOM      9  N   UNL     1       4.137   5.550  18.679  0.00  0.00    +0.000 N 
ENDROOT
BRANCH   1  10
ATOM     10  C   UNL     1       2.741   7.568  18.063  0.00  0.00    +0.000 C 
BRANCH  10  13
ATOM     11  C   UNL     1       1.558   9.627  18.563  0.00  0.00    +0.000 C 
ATOM     12  O   UNL     1       2.015  10.151  17.542  0.00  0.00    +0.000 OA
ATOM     13  N   UNL     1       1.851   8.329  18.915  0.00  0.00    +0.000 N 
ATOM     14  H   UNL     1       1.744   8.020  19.877  0.00  0.00    +0.000 HD
BRANCH  11  15
ATOM     15  C   UNL     1       0.590  10.368  19.463  0.00  0.00    +0.000 C 
BRANCH  15  19
ATOM     16  C   UNL     1      -3.379  11.135  17.894  0.00  0.00    +0.000 A 
ATOM     17  C   UNL     1      -2.516  10.233  17.247  0.00  0.00    +0.000 A 
ATOM     18  C   UNL     1      -1.226   9.983  17.734  0.00  0.00    +0.000 A 
ATOM     19  C   UNL     1      -0.751  10.671  18.850  0.00  0.00    +0.000 A 
ATOM     20  C   UNL     1      -1.592  11.613  19.454  0.00  0.00    +0.000 A 
ATOM     21  C   UNL     1      -2.894  11.865  18.988  0.00  0.00    +0.000 A 
BRANCH  16  23
ATOM     22  C   UNL     1      -5.684  10.730  18.296  0.00  0.00    +0.000 C 
ATOM     23  O   UNL     1      -4.672  11.318  17.476  0.00  0.00    +0.000 OA
ENDBRANCH  16  23
BRANCH  21  24
ATOM     24  O   UNL     1      -3.513  12.814  19.754  0.00  0.00    +0.000 OA
ATOM     25  C   UNL     1      -3.039  13.094  21.060  0.00  0.00    +0.000 C 
ENDBRANCH  21  24
ENDBRANCH  15  19
ENDBRANCH  11  15
ENDBRANCH  10  13
ENDBRANCH   1  10
BRANCH   9  26
ATOM     26  C   UNL     1       5.419   6.010  18.169  0.00  0.00    +0.000 C 
BRANCH  26  27
ATOM     27  C   UNL     1       5.760   5.489  16.793  0.00  0.00    +0.000 A 
ATOM     28  C   UNL     1       6.540   4.335  16.634  0.00  0.00    +0.000 A 
ATOM     29  C   UNL     1       6.741   3.773  15.369  0.00  0.00    +0.000 A 
ATOM     30  C   UNL     1       6.166   4.353  14.235  0.00  0.00    +0.000 A 
ATOM     31  C   UNL     1       6.309   3.714  12.884  0.00  0.00    +0.000 C 
ATOM     32  C   UNL     1       5.406   5.518  14.384  0.00  0.00    +0.000 A 
ATOM     33  C   UNL     1       5.207   6.082  15.650  0.00  0.00    +0.000 A 
ENDBRANCH  26  27
ENDBRANCH   9  26
TORSDOF 8
ENDMDL
MODEL 3
REMARK VINA RESULT:      -8.0      1.502      2.174
REMARK  Name = 
REMARK  11 active torsions:
REMARK  status: ('A' for Active; 'I' for Inactive)
REMARK    1  A    between atoms: C_1  and  O_2
REMARK    2  A    between atoms: O_2  and  C_3
REMARK    3  A    between atoms: C_6  and  C_7
REMARK    4  A    between atoms: C_7  and  C_8
REMARK    5  A    between atoms: N_10  and  C_11
REMARK    6  A    between atoms: C_11  and  C_12
REMARK    7  A    between atoms: N_20  and  C_21
REMARK    8  A    between atoms: C_21  and  C_22
REMARK    9  A    between atoms: C_25  and  C_26
REMARK   10  A    between atoms: C_30  and  O_31
REMARK   11  A    between atoms: O_31  and  C_32
REMARK                            x       y       z     vdW  Elec       q    Type
REMARK                         _______ _______ _______ _____ _____    ______ ____
ROOT
ATOM      1  C   UNL     1       2.409   5.831  19.537  0.00  0.00    +0.000 A 
ATOM      2  N   UNL     1       1.297   5.112  19.443  0.00  0.00    +0.000 NA
ATOM      3  C   UNL     1       1.708   3.830  19.167  0.00  0.00    +0.000 A 
ATOM      4  C   UNL     1       0.988   2.641  18.997  0.00  0.00    +0.000 A 
ATOM      5  C   UNL     1       1.718   1.478  18.743  0.00  0.00    +0.000 A 
ATOM      6  C   UNL     1       3.111   1.553  18.656  0.00  0.00    +0.000 A 
ATOM      7  N   UNL     1       3.846   2.679  18.795  0.00  0.00    +0.000 NA
ATOM      8  C   UNL     1       3.089   3.765  19.056  0.00  0.00    +0.000 A 
ATOM      9  N   UNL     1       3.521   5.048  19.273  0.00  0.00    +0.000 N 
ENDROOT
BRANCH   1  10
ATOM     10  C   UNL     1       2.504   7.262  19.956  0.00  0.00    +0.000 C 
BRANCH  10  13
ATOM     11  C   UNL     1       1.205   9.212  19.326  0.00  0.00    +0.000 C 
ATOM     12  O   UNL     1       0.939   9.432  20.511  0.00  0.00    +0.000 OA
ATOM     13  N   UNL     1       1.992   8.152  18.935  0.00  0.00    +0.000 N 
ATOM     14  H   UNL     1       1.943   7.797  17.984  0.00  0.00    +0.000 HD
BRANCH  11  15
ATOM     15  C   UNL     1       0.727  10.138  18.226  0.00  0.00    +0.000 C 
BRANCH  15  19
ATOM     16  C   UNL     1      -3.398  11.477  18.299  0.00  0.00    +0.000 A 
ATOM     17  C   UNL     1      -2.524  11.791  19.356  0.00  0.00    +0.000 A 
ATOM     18  C   UNL     1      -1.193  11.355  19.354  0.00  0.00    +0.000 A 
ATOM     19  C   UNL     1      -0.718  10.551  18.318  0.00  0.00    +0.000 A 
ATOM     20  C   UNL     1      -1.608  10.191  17.299  0.00  0.00    +0.000 A 
ATOM     21  C   UNL     1      -2.943  10.630  17.278  0.00  0.00    +0.000 A 
BRANCH  16  23
ATOM     22  C   UNL     1      -5.193  12.486  19.479  0.00  0.00    +0.000 C 
ATOM     23  O   UNL     1      -4.674  11.972  18.251  0.00  0.00    +0.000 OA
ENDBRANCH  16  23
BRANCH  21  24
ATOM     24  O   UNL     1      -3.597  10.154  16.176  0.00  0.00    +0.000 OA
ATOM     25  C   UNL     1      -2.906  10.000  14.949  0.00  0.00    +0.000 C 
ENDBRANCH  21  24
ENDBRANCH  15  19
ENDBRANCH  11  15
ENDBRANCH  10  13
ENDBRANCH   1  10
BRANCH   9  26
ATOM     26  C   UNL     1       4.899   5.485  19.108  0.00  0.00    +0.000 C 
BRANCH  26  27
ATOM     27  C   UNL     1       5.460   5.251  17.726  0.00  0.00    +0.000 A 
ATOM     28  C   UNL     1       4.841   5.803  16.595  0.00  0.00    +0.000 A 
ATOM     29  C   UNL     1       5.433   5.703  15.332  0.00  0.00    +0.000 A 
ATOM     30  C   UNL     1       6.659   5.048  15.172  0.00  0.00    +0.000 A 
ATOM     31  C   UNL     1       7.341   5.004  13.836  0.00  0.00    +0.000 C 
ATOM     32  C   UNL     1       7.268   4.474  16.292  0.00  0.00    +0.000 A 
ATOM     33  C   UNL     1       6.675   4.572  17.555  0.00  0.00    +0.000 A 
ENDBRANCH  26  27
ENDBRANCH   9  26
TORSDOF 8
ENDMDL
MODEL 4
REMARK VINA RESULT:      -7.9      3.088      9.463
REMARK  Name = 
REMARK  11 active torsions:
REMARK  status: ('A' for Active; 'I' for Inactive)
REMARK    1  A    between atoms: C_1  and  O_2
REMARK    2  A    between atoms: O_2  and  C_3
REMARK    3  A    between atoms: C_6  and  C_7
REMARK    4  A    between atoms: C_7  and  C_8
REMARK    5  A    between atoms: N_10  and  C_11
REMARK    6  A    between atoms: C_11  and  C_12
REMARK    7  A    between atoms: N_20  and  C_21
REMARK    8  A    between atoms: C_21  and  C_22
REMARK    9  A    between atoms: C_25  and  C_26
REMARK   10  A    between atoms: C_30  and  O_31
REMARK   11  A    between atoms: O_31  and  C_32
REMARK                            x       y       z     vdW  Elec       q    Type
REMARK                         _______ _______ _______ _____ _____    ______ ____
ROOT
ATOM      1  C   UNL     1       0.359   9.996  18.163  0.00  0.00    +0.000 A 
ATOM      2  N   UNL     1      -0.655   9.468  17.489  0.00  0.00    +0.000 NA
ATOM      3  C   UNL     1      -1.760  10.200  17.852  0.00  0.00    +0.000 A 
ATOM      4  C   UNL     1      -3.097  10.128  17.440  0.00  0.00    +0.000 A 
ATOM      5  C   UNL     1      -3.990  11.049  17.993  0.00  0.00    +0.000 A 
ATOM      6  C   UNL     1      -3.522  11.975  18.929  0.00  0.00    +0.000 A 
ATOM      7  N   UNL     1      -2.246  12.070  19.369  0.00  0.00    +0.000 NA
ATOM      8  C   UNL     1      -1.428  11.169  18.787  0.00  0.00    +0.000 A 
ATOM      9  N   UNL     1      -0.081  11.015  18.991  0.00  0.00    +0.000 N 
ENDROOT
BRANCH   1  10
ATOM     10  C   UNL     1       1.802   9.636  18.013  0.00  0.00    +0.000 C 
BRANCH  10  13
ATOM     11  C   UNL     1       2.241   7.373  18.770  0.00  0.00    +0.000 C 
ATOM     12  O   UNL     1       2.319   7.766  19.937  0.00  0.00    +0.000 OA
ATOM     13  N   UNL     1       1.975   8.228  17.724  0.00  0.00    +0.000 N 
ATOM     14  H   UNL     1       2.223   7.971  16.773  0.00  0.00    +0.000 HD
BRANCH  11  15
ATOM     15  C   UNL     1       2.372   5.904  18.423  0.00  0.00    +0.000 C 
BRANCH  15  19
ATOM     16  C   UNL     1       5.898   4.991  16.069  0.00  0.00    +0.000 A 
ATOM     17  C   UNL     1       4.913   4.012  16.293  0.00  0.00    +0.000 A 
ATOM     18  C   UNL     1       3.775   4.287  17.061  0.00  0.00    +0.000 A 
ATOM     19  C   UNL     1       3.621   5.533  17.668  0.00  0.00    +0.000 A 
ATOM     20  C   UNL     1       4.632   6.484  17.492  0.00  0.00    +0.000 A 
ATOM     21  C   UNL     1       5.774   6.230  16.713  0.00  0.00    +0.000 A 
BRANCH  16  23
ATOM     22  C   UNL     1       6.658   4.324  13.921  0.00  0.00    +0.000 C 
ATOM     23  O   UNL     1       6.969   4.758  15.247  0.00  0.00    +0.000 OA
ENDBRANCH  16  23
BRANCH  21  24
ATOM     24  O   UNL     1       6.602   7.319  16.688  0.00  0.00    +0.000 OA
ATOM     25  C   UNL     1       7.598   7.478  17.682  0.00  0.00    +0.000 C 
ENDBRANCH  21  24
ENDBRANCH  15  19
ENDBRANCH  11  15
ENDBRANCH  10  13
ENDBRANCH   1  10
BRANCH   9  26
ATOM     26  C   UNL     1       0.678  11.725  20.009  0.00  0.00    +0.000 C 
BRANCH  26  27
ATOM     27  C   UNL     1       1.289  13.021  19.532  0.00  0.00    +0.000 A 
ATOM     28  C   UNL     1       2.506  13.029  18.836  0.00  0.00    +0.000 A 
ATOM     29  C   UNL     1       3.004  14.209  18.274  0.00  0.00    +0.000 A 
ATOM     30  C   UNL     1       2.295  15.408  18.396  0.00  0.00    +0.000 A 
ATOM     31  C   UNL     1       2.779  16.662  17.729  0.00  0.00    +0.000 C 
ATOM     32  C   UNL     1       1.092  15.411  19.110  0.00  0.00    +0.000 A 
ATOM     33  C   UNL     1       0.595  14.231  19.674  0.00  0.00    +0.000 A 
ENDBRANCH  26  27
ENDBRANCH   9  26
TORSDOF 8
ENDMDL
MODEL 5
REMARK VINA RESULT:      -7.8      1.878      2.887
REMARK  Name = 
REMARK  11 active torsions:
REMARK  status: ('A' for Active; 'I' for Inactive)
REMARK    1  A    between atoms: C_1  and  O_2
REMARK    2  A    between atoms: O_2  and  C_3
REMARK    3  A    between atoms: C_6  and  C_7
REMARK    4  A    between atoms: C_7  and  C_8
REMARK    5  A    between atoms: N_10  and  C_11
REMARK    6  A    between atoms: C_11  and  C_12
REMARK    7  A    between atoms: N_20  and  C_21
REMARK    8  A    between atoms: C_21  and  C_22
REMARK    9  A    between atoms: C_25  and  C_26
REMARK   10  A    between atoms: C_30  and  O_31
REMARK   11  A    between atoms: O_31  and  C_32
REMARK                            x       y       z     vdW  Elec       q    Type
REMARK                         _______ _______ _______ _____ _____    ______ ____
ROOT
ATOM      1  C   UNL     1       2.799   6.450  18.655  0.00  0.00    +0.000 A 
ATOM      2  N   UNL     1       1.750   5.754  19.072  0.00  0.00    +0.000 NA
ATOM      3  C   UNL     1       2.263   4.591  19.596  0.00  0.00    +0.000 A 
ATOM      4  C   UNL     1       1.641   3.497  20.213  0.00  0.00    +0.000 A 
ATOM      5  C   UNL     1       2.463   2.462  20.664  0.00  0.00    +0.000 A 
ATOM      6  C   UNL     1       3.844   2.554  20.471  0.00  0.00    +0.000 A 
ATOM      7  N   UNL     1       4.485   3.580  19.866  0.00  0.00    +0.000 NA
ATOM      8  C   UNL     1       3.643   4.556  19.468  0.00  0.00    +0.000 A 
ATOM      9  N   UNL     1       3.970   5.736  18.849  0.00  0.00    +0.000 N 
ENDROOT
BRANCH   1  10
ATOM     10  C   UNL     1       2.779   7.848  18.127  0.00  0.00    +0.000 C 
BRANCH  10  13
ATOM     11  C   UNL     1       1.346   9.806  18.111  0.00  0.00    +0.000 C 
ATOM     12  O   UNL     1       2.322  10.533  17.905  0.00  0.00    +0.000 OA
ATOM     13  N   UNL     1       1.462   8.439  18.230  0.00  0.00    +0.000 N 
ATOM     14  H   UNL     1       0.741   7.900  18.703  0.00  0.00    +0.000 HD
BRANCH  11  15
ATOM     15  C   UNL     1      -0.057  10.373  18.185  0.00  0.00    +0.000 C 
BRANCH  15  19
ATOM     16  C   UNL     1      -1.330  11.679  22.119  0.00  0.00    +0.000 A 
ATOM     17  C   UNL     1      -1.898  12.238  20.961  0.00  0.00    +0.000 A 
ATOM     18  C   UNL     1      -1.489  11.837  19.683  0.00  0.00    +0.000 A 
ATOM     19  C   UNL     1      -0.465  10.902  19.534  0.00  0.00    +0.000 A 
ATOM     20  C   UNL     1       0.139  10.394  20.689  0.00  0.00    +0.000 A 
ATOM     21  C   UNL     1      -0.268  10.774  21.979  0.00  0.00    +0.000 A 
BRANCH  16  23
ATOM     22  C   UNL     1      -2.794  13.012  23.429  0.00  0.00    +0.000 C 
ATOM     23  O   UNL     1      -1.786  12.001  23.371  0.00  0.00    +0.000 OA
ENDBRANCH  16  23
BRANCH  21  24
ATOM     24  O   UNL     1       0.466  10.128  22.935  0.00  0.00    +0.000 OA
ATOM     25  C   UNL     1       1.387   9.117  22.563  0.00  0.00    +0.000 C 
ENDBRANCH  21  24
ENDBRANCH  15  19
ENDBRANCH  11  15
ENDBRANCH  10  13
ENDBRANCH   1  10
BRANCH   9  26
ATOM     26  C   UNL     1       5.305   6.068  18.377  0.00  0.00    +0.000 C 
BRANCH  26  27
ATOM     27  C   UNL     1       5.628   5.526  17.005  0.00  0.00    +0.000 A 
ATOM     28  C   UNL     1       6.275   4.291  16.853  0.00  0.00    +0.000 A 
ATOM     29  C   UNL     1       6.451   3.724  15.587  0.00  0.00    +0.000 A 
ATOM     30  C   UNL     1       5.984   4.380  14.444  0.00  0.00    +0.000 A 
ATOM     31  C   UNL     1       6.096   3.744  13.089  0.00  0.00    +0.000 C 
ATOM     32  C   UNL     1       5.360   5.624  14.587  0.00  0.00    +0.000 A 
ATOM     33  C   UNL     1       5.185   6.192  15.854  0.00  0.00    +0.000 A 
ENDBRANCH  26  27
ENDBRANCH   9  26
TORSDOF 8
ENDMDL
MODEL 6
REMARK VINA RESULT:      -7.8      1.440      2.417
REMARK  Name = 
REMARK  11 active torsions:
REMARK  status: ('A' for Active; 'I' for Inactive)
REMARK    1  A    between atoms: C_1  and  O_2
REMARK    2  A    between atoms: O_2  and  C_3
REMARK    3  A    between atoms: C_6  and  C_7
REMARK    4  A    between atoms: C_7  and  C_8
REMARK    5  A    between atoms: N_10  and  C_11
REMARK    6  A    between atoms: C_11  and  C_12
REMARK    7  A    between atoms: N_20  and  C_21
REMARK    8  A    between atoms: C_21  and  C_22
REMARK    9  A    between atoms: C_25  and  C_26
REMARK   10  A    between atoms: C_30  and  O_31
REMARK   11  A    between atoms: O_31  and  C_32
REMARK                            x       y       z     vdW  Elec       q    Type
REMARK                         _______ _______ _______ _____ _____    ______ ____
ROOT
ATOM      1  C   UNL     1       3.128   6.405  18.403  0.00  0.00    +0.000 A 
ATOM      2  N   UNL     1       2.169   5.694  18.982  0.00  0.00    +0.000 NA
ATOM      3  C   UNL     1       2.782   4.551  19.439  0.00  0.00    +0.000 A 
ATOM      4  C   UNL     1       2.285   3.455  20.156  0.00  0.00    +0.000 A 
ATOM      5  C   UNL     1       3.188   2.446  20.495  0.00  0.00    +0.000 A 
ATOM      6  C   UNL     1       4.523   2.563  20.097  0.00  0.00    +0.000 A 
ATOM      7  N   UNL     1       5.043   3.593  19.389  0.00  0.00    +0.000 NA
ATOM      8  C   UNL     1       4.128   4.544  19.108  0.00  0.00    +0.000 A 
ATOM      9  N   UNL     1       4.332   5.719  18.431  0.00  0.00    +0.000 N 
ENDROOT
BRANCH   1  10
ATOM     10  C   UNL     1       2.997   7.793  17.866  0.00  0.00    +0.000 C 
BRANCH  10  13
ATOM     11  C   UNL     1       1.392   9.610  17.971  0.00  0.00    +0.000 C 
ATOM     12  O   UNL     1       2.309  10.435  17.979  0.00  0.00    +0.000 OA
ATOM     13  N   UNL     1       1.626   8.254  17.906  0.00  0.00    +0.000 N 
ATOM     14  H   UNL     1       0.917   7.594  18.215  0.00  0.00    +0.000 HD
BRANCH  11  15
ATOM     15  C   UNL     1      -0.060  10.044  17.970  0.00  0.00    +0.000 C 
BRANCH  15  19
ATOM     16  C   UNL     1      -1.418  11.943  21.625  0.00  0.00    +0.000 A 
ATOM     17  C   UNL     1      -0.331  11.051  21.642  0.00  0.00    +0.000 A 
ATOM     18  C   UNL     1       0.112  10.420  20.473  0.00  0.00    +0.000 A 
ATOM     19  C   UNL     1      -0.556  10.627  19.267  0.00  0.00    +0.000 A 
ATOM     20  C   UNL     1      -1.674  11.467  19.266  0.00  0.00    +0.000 A 
ATOM     21  C   UNL     1      -2.124  12.120  20.426  0.00  0.00    +0.000 A 
BRANCH  16  23
ATOM     22  C   UNL     1      -2.898  12.078  23.476  0.00  0.00    +0.000 C 
ATOM     23  O   UNL     1      -1.801  12.631  22.746  0.00  0.00    +0.000 OA
ENDBRANCH  16  23
BRANCH  21  24
ATOM     24  O   UNL     1      -3.222  12.892  20.160  0.00  0.00    +0.000 OA
ATOM     25  C   UNL     1      -4.300  12.360  19.412  0.00  0.00    +0.000 C 
ENDBRANCH  21  24
ENDBRANCH  15  19
ENDBRANCH  11  15
ENDBRANCH  10  13
ENDBRANCH   1  10
BRANCH   9  26
ATOM     26  C   UNL     1       5.574   6.072  17.761  0.00  0.00    +0.000 C 
BRANCH  26  27
ATOM     27  C   UNL     1       5.819   5.316  16.477  0.00  0.00    +0.000 A 
ATOM     28  C   UNL     1       4.759   4.713  15.783  0.00  0.00    +0.000 A 
ATOM     29  C   UNL     1       4.962   4.133  14.527  0.00  0.00    +0.000 A 
ATOM     30  C   UNL     1       6.229   4.144  13.936  0.00  0.00    +0.000 A 
ATOM     31  C   UNL     1       6.441   3.596  12.555  0.00  0.00    +0.000 C 
ATOM     32  C   UNL     1       7.295   4.722  14.634  0.00  0.00    +0.000 A 
ATOM     33  C   UNL     1       7.093   5.301  15.892  0.00  0.00    +0.000 A 
ENDBRANCH  26  27
ENDBRANCH   9  26
TORSDOF 8
ENDMDL
MODEL 7
REMARK VINA RESULT:      -7.8      3.226      9.381
REMARK  Name = 
REMARK  11 active torsions:
REMARK  status: ('A' for Active; 'I' for Inactive)
REMARK    1  A    between atoms: C_1  and  O_2
REMARK    2  A    between atoms: O_2  and  C_3
REMARK    3  A    between atoms: C_6  and  C_7
REMARK    4  A    between atoms: C_7  and  C_8
REMARK    5  A    between atoms: N_10  and  C_11
REMARK    6  A    between atoms: C_11  and  C_12
REMARK    7  A    between atoms: N_20  and  C_21
REMARK    8  A    between atoms: C_21  and  C_22
REMARK    9  A    between atoms: C_25  and  C_26
REMARK   10  A    between atoms: C_30  and  O_31
REMARK   11  A    between atoms: O_31  and  C_32
REMARK                            x       y       z     vdW  Elec       q    Type
REMARK                         _______ _______ _______ _____ _____    ______ ____
ROOT
ATOM      1  C   UNL     1       0.553   9.812  18.151  0.00  0.00    +0.000 A 
ATOM      2  N   UNL     1      -0.449   9.208  17.525  0.00  0.00    +0.000 NA
ATOM      3  C   UNL     1      -1.560   9.976  17.779  0.00  0.00    +0.000 A 
ATOM      4  C   UNL     1      -2.890   9.855  17.354  0.00  0.00    +0.000 A 
ATOM      5  C   UNL     1      -3.792  10.833  17.778  0.00  0.00    +0.000 A 
ATOM      6  C   UNL     1      -3.340  11.864  18.608  0.00  0.00    +0.000 A 
ATOM      7  N   UNL     1      -2.073  12.011  19.057  0.00  0.00    +0.000 NA
ATOM      8  C   UNL     1      -1.244  11.049  18.600  0.00  0.00    +0.000 A 
ATOM      9  N   UNL     1       0.099  10.921  18.847  0.00  0.00    +0.000 N 
ENDROOT
BRANCH   1  10
ATOM     10  C   UNL     1       1.998   9.439  18.072  0.00  0.00    +0.000 C 
BRANCH  10  13
ATOM     11  C   UNL     1       2.093   7.571  19.618  0.00  0.00    +0.000 C 
ATOM     12  O   UNL     1       1.816   8.321  20.558  0.00  0.00    +0.000 OA
ATOM     13  N   UNL     1       2.200   8.028  18.323  0.00  0.00    +0.000 N 
ATOM     14  H   UNL     1       2.724   7.498  17.632  0.00  0.00    +0.000 HD
BRANCH  11  15
ATOM     15  C   UNL     1       2.272   6.081  19.824  0.00  0.00    +0.000 C 
BRANCH  15  19
ATOM     16  C   UNL     1       5.397   4.444  17.301  0.00  0.00    +0.000 A 
ATOM     17  C   UNL     1       4.059   4.460  16.865  0.00  0.00    +0.000 A 
ATOM     18  C   UNL     1       3.037   4.973  17.673  0.00  0.00    +0.000 A 
ATOM     19  C   UNL     1       3.321   5.436  18.957  0.00  0.00    +0.000 A 
ATOM     20  C   UNL     1       4.643   5.362  19.410  0.00  0.00    +0.000 A 
ATOM     21  C   UNL     1       5.684   4.864  18.608  0.00  0.00    +0.000 A 
BRANCH  16  23
ATOM     22  C   UNL     1       6.857   4.967  15.504  0.00  0.00    +0.000 C 
ATOM     23  O   UNL     1       6.414   4.026  16.484  0.00  0.00    +0.000 OA
ENDBRANCH  16  23
BRANCH  21  24
ATOM     24  O   UNL     1       6.879   4.910  19.272  0.00  0.00    +0.000 OA
ATOM     25  C   UNL     1       7.752   6.011  19.089  0.00  0.00    +0.000 C 
ENDBRANCH  21  24
ENDBRANCH  15  19
ENDBRANCH  11  15
ENDBRANCH  10  13
ENDBRANCH   1  10
BRANCH   9  26
ATOM     26  C   UNL     1       0.839  11.747  19.788  0.00  0.00    +0.000 C 
BRANCH  26  27
ATOM     27  C   UNL     1       1.377  13.027  19.196  0.00  0.00    +0.000 A 
ATOM     28  C   UNL     1       0.779  14.262  19.486  0.00  0.00    +0.000 A 
ATOM     29  C   UNL     1       1.356  15.459  19.052  0.00  0.00    +0.000 A 
ATOM     30  C   UNL     1       2.547  15.448  18.318  0.00  0.00    +0.000 A 
ATOM     31  C   UNL     1       3.217  16.729  17.916  0.00  0.00    +0.000 C 
ATOM     32  C   UNL     1       3.135  14.219  18.004  0.00  0.00    +0.000 A 
ATOM     33  C   UNL     1       2.556  13.020  18.437  0.00  0.00    +0.000 A 
ENDBRANCH  26  27
ENDBRANCH   9  26
TORSDOF 8
ENDMDL
MODEL 8
REMARK VINA RESULT:      -7.8      4.412      8.138
REMARK  Name = 
REMARK  11 active torsions:
REMARK  status: ('A' for Active; 'I' for Inactive)
REMARK    1  A    between atoms: C_1  and  O_2
REMARK    2  A    between atoms: O_2  and  C_3
REMARK    3  A    between atoms: C_6  and  C_7
REMARK    4  A    between atoms: C_7  and  C_8
REMARK    5  A    between atoms: N_10  and  C_11
REMARK    6  A    between atoms: C_11  and  C_12
REMARK    7  A    between atoms: N_20  and  C_21
REMARK    8  A    between atoms: C_21  and  C_22
REMARK    9  A    between atoms: C_25  and  C_26
REMARK   10  A    between atoms: C_30  and  O_31
REMARK   11  A    between atoms: O_31  and  C_32
REMARK                            x       y       z     vdW  Elec       q    Type
REMARK                         _______ _______ _______ _____ _____    ______ ____
ROOT
ATOM      1  C   UNL     1       4.224   5.210  17.450  0.00  0.00    +0.000 A 
ATOM      2  N   UNL     1       3.983   3.990  16.985  0.00  0.00    +0.000 NA
ATOM      3  C   UNL     1       2.957   3.497  17.756  0.00  0.00    +0.000 A 
ATOM      4  C   UNL     1       2.262   2.282  17.708  0.00  0.00    +0.000 A 
ATOM      5  C   UNL     1       1.236   2.091  18.636  0.00  0.00    +0.000 A 
ATOM      6  C   UNL     1       0.964   3.097  19.567  0.00  0.00    +0.000 A 
ATOM      7  N   UNL     1       1.619   4.277  19.662  0.00  0.00    +0.000 NA
ATOM      8  C   UNL     1       2.585   4.411  18.730  0.00  0.00    +0.000 A 
ATOM      9  N   UNL     1       3.412   5.488  18.538  0.00  0.00    +0.000 N 
ENDROOT
BRANCH   1  10
ATOM     10  C   UNL     1       5.163   6.211  16.860  0.00  0.00    +0.000 C 
BRANCH  10  13
ATOM     11  C   UNL     1       7.356   7.020  17.509  0.00  0.00    +0.000 C 
ATOM     12  O   UNL     1       7.784   6.806  16.371  0.00  0.00    +0.000 OA
ATOM     13  N   UNL     1       6.050   6.766  17.860  0.00  0.00    +0.000 N 
ATOM     14  H   UNL     1       5.794   6.640  18.836  0.00  0.00    +0.000 HD
BRANCH  11  15
ATOM     15  C   UNL     1       8.234   7.639  18.577  0.00  0.00    +0.000 C 
BRANCH  15  19
ATOM     16  C   UNL     1       8.896  11.917  18.306  0.00  0.00    +0.000 A 
ATOM     17  C   UNL     1       8.082  11.257  17.368  0.00  0.00    +0.000 A 
ATOM     18  C   UNL     1       7.868   9.874  17.434  0.00  0.00    +0.000 A 
ATOM     19  C   UNL     1       8.507   9.111  18.410  0.00  0.00    +0.000 A 
ATOM     20  C   UNL     1       9.364   9.762  19.304  0.00  0.00    +0.000 A 
ATOM     21  C   UNL     1       9.579  11.150  19.262  0.00  0.00    +0.000 A 
BRANCH  16  23
ATOM     22  C   UNL     1       7.843  14.034  18.100  0.00  0.00    +0.000 C 
ATOM     23  O   UNL     1       9.039  13.279  18.301  0.00  0.00    +0.000 OA
ENDBRANCH  16  23
BRANCH  21  24
ATOM     24  O   UNL     1      10.445  11.542  20.245  0.00  0.00    +0.000 OA
ATOM     25  C   UNL     1       9.966  12.259  21.369  0.00  0.00    +0.000 C 
ENDBRANCH  21  24
ENDBRANCH  15  19
ENDBRANCH  11  15
ENDBRANCH  10  13
ENDBRANCH   1  10
BRANCH   9  26
ATOM     26  C   UNL     1       3.480   6.635  19.430  0.00  0.00    +0.000 C 
BRANCH  26  27
ATOM     27  C   UNL     1       2.393   7.658  19.205  0.00  0.00    +0.000 A 
ATOM     28  C   UNL     1       1.625   8.139  20.276  0.00  0.00    +0.000 A 
ATOM     29  C   UNL     1       0.714   9.184  20.093  0.00  0.00    +0.000 A 
ATOM     30  C   UNL     1       0.549   9.772  18.835  0.00  0.00    +0.000 A 
ATOM     31  C   UNL     1      -0.366  10.945  18.644  0.00  0.00    +0.000 C 
ATOM     32  C   UNL     1       1.294   9.279  17.758  0.00  0.00    +0.000 A 
ATOM     33  C   UNL     1       2.205   8.232  17.940  0.00  0.00    +0.000 A 
ENDBRANCH  26  27
ENDBRANCH   9  26
TORSDOF 8
ENDMDL
MODEL 9
REMARK VINA RESULT:      -7.6      2.152      3.308
REMARK  Name = 
REMARK  11 active torsions:
REMARK  status: ('A' for Active; 'I' for Inactive)
REMARK    1  A    between atoms: C_1  and  O_2
REMARK    2  A    between atoms: O_2  and  C_3
REMARK    3  A    between atoms: C_6  and  C_7
REMARK    4  A    between atoms: C_7  and  C_8
REMARK    5  A    between atoms: N_10  and  C_11
REMARK    6  A    between atoms: C_11  and  C_12
REMARK    7  A    between atoms: N_20  and  C_21
REMARK    8  A    between atoms: C_21  and  C_22
REMARK    9  A    between atoms: C_25  and  C_26
REMARK   10  A    between atoms: C_30  and  O_31
REMARK   11  A    between atoms: O_31  and  C_32
REMARK                            x       y       z     vdW  Elec       q    Type
REMARK                         _______ _______ _______ _____ _____    ______ ____
ROOT
ATOM      1  C   UNL     1       2.788   6.060  18.769  0.00  0.00    +0.000 A 
ATOM      2  N   UNL     1       1.961   5.699  19.741  0.00  0.00    +0.000 NA
ATOM      3  C   UNL     1       2.445   4.502  20.213  0.00  0.00    +0.000 A 
ATOM      4  C   UNL     1       2.010   3.670  21.253  0.00  0.00    +0.000 A 
ATOM      5  C   UNL     1       2.748   2.510  21.499  0.00  0.00    +0.000 A 
ATOM      6  C   UNL     1       3.860   2.227  20.701  0.00  0.00    +0.000 A 
ATOM      7  N   UNL     1       4.306   2.991  19.677  0.00  0.00    +0.000 NA
ATOM      8  C   UNL     1       3.565   4.104  19.499  0.00  0.00    +0.000 A 
ATOM      9  N   UNL     1       3.761   5.094  18.569  0.00  0.00    +0.000 N 
ENDROOT
BRANCH   1  10
ATOM     10  C   UNL     1       2.768   7.358  18.027  0.00  0.00    +0.000 C 
BRANCH  10  13
ATOM     11  C   UNL     1       1.343   9.315  17.878  0.00  0.00    +0.000 C 
ATOM     12  O   UNL     1       2.332  10.039  17.737  0.00  0.00    +0.000 OA
ATOM     13  N   UNL     1       1.448   7.950  18.022  0.00  0.00    +0.000 N 
ATOM     14  H   UNL     1       0.693   7.417  18.446  0.00  0.00    +0.000 HD
BRANCH  11  15
ATOM     15  C   UNL     1      -0.061   9.883  17.837  0.00  0.00    +0.000 C 
BRANCH  15  19
ATOM     16  C   UNL     1      -1.273  12.185  21.307  0.00  0.00    +0.000 A 
ATOM     17  C   UNL     1      -1.724  12.535  20.022  0.00  0.00    +0.000 A 
ATOM     18  C   UNL     1      -1.332  11.810  18.890  0.00  0.00    +0.000 A 
ATOM     19  C   UNL     1      -0.437  10.748  19.011  0.00  0.00    +0.000 A 
ATOM     20  C   UNL     1       0.057  10.441  20.284  0.00  0.00    +0.000 A 
ATOM     21  C   UNL     1      -0.336  11.149  21.433  0.00  0.00    +0.000 A 
BRANCH  16  23
ATOM     22  C   UNL     1      -2.733  12.159  23.179  0.00  0.00    +0.000 C 
ATOM     23  O   UNL     1      -1.721  12.833  22.428  0.00  0.00    +0.000 OA
ENDBRANCH  16  23
BRANCH  21  24
ATOM     24  O   UNL     1       0.275  10.649  22.549  0.00  0.00    +0.000 OA
ATOM     25  C   UNL     1       0.195   9.266  22.845  0.00  0.00    +0.000 C 
ENDBRANCH  21  24
ENDBRANCH  15  19
ENDBRANCH  11  15
ENDBRANCH  10  13
ENDBRANCH   1  10
BRANCH   9  26
ATOM     26  C   UNL     1       4.743   5.026  17.499  0.00  0.00    +0.000 C 
BRANCH  26  27
ATOM     27  C   UNL     1       5.910   5.968  17.671  0.00  0.00    +0.000 A 
ATOM     28  C   UNL     1       5.943   7.202  17.004  0.00  0.00    +0.000 A 
ATOM     29  C   UNL     1       6.953   8.133  17.268  0.00  0.00    +0.000 A 
ATOM     30  C   UNL     1       7.953   7.851  18.204  0.00  0.00    +0.000 A 
ATOM     31  C   UNL     1       8.994   8.874  18.553  0.00  0.00    +0.000 C 
ATOM     32  C   UNL     1       7.939   6.612  18.854  0.00  0.00    +0.000 A 
ATOM     33  C   UNL     1       6.929   5.680  18.589  0.00  0.00    +0.000 A 
ENDBRANCH  26  27
ENDBRANCH   9  26
TORSDOF 8
ENDMDL
