MODEL 1
REMARK VINA RESULT:      -9.4      0.000      0.000
REMARK  Name = 
REMARK  3 active torsions:
REMARK  status: ('A' for Active; 'I' for Inactive)
REMARK    1  A    between atoms: C_2  and  C_4
REMARK    2  A    between atoms: C_6  and  C_7
REMARK    3  A    between atoms: C_22  and  C_23
REMARK                            x       y       z     vdW  Elec       q    Type
REMARK                         _______ _______ _______ _____ _____    ______ ____
ROOT
ATOM      1  C   UNL     1       3.695   3.938  19.445  0.00  0.00    +0.000 A 
ATOM      2  C   UNL     1       4.408   3.804  18.250  0.00  0.00    +0.000 A 
ATOM      3  C   UNL     1       4.413   4.841  17.316  0.00  0.00    +0.000 A 
ATOM      4  N   UNL     1       3.739   5.995  17.497  0.00  0.00    +0.000 NA
ATOM      5  C   UNL     1       3.044   6.116  18.651  0.00  0.00    +0.000 A 
ATOM      6  C   UNL     1       2.997   5.128  19.622  0.00  0.00    +0.000 A 
ATOM      7  N   UNL     1       2.226   5.615  20.657  0.00  0.00    +0.000 N 
ATOM      8  C   UNL     1       1.826   6.911  20.395  0.00  0.00    +0.000 A 
ATOM      9  C   UNL     1       1.097   7.828  21.168  0.00  0.00    +0.000 A 
ATOM     10  C   UNL     1       0.883   9.119  20.639  0.00  0.00    +0.000 A 
ATOM     11  C   UNL     1       1.431   9.465  19.400  0.00  0.00    +0.000 A 
ATOM     12  C   UNL     1       2.093   8.523  18.613  0.00  0.00    +0.000 A 
ATOM     13  C   UNL     1       2.320   7.236  19.130  0.00  0.00    +0.000 A 
ATOM     14  H   UNL     1       2.034   5.100  21.508  0.00  0.00    +0.000 HD
ENDROOT
BRANCH   3  15
ATOM     15  C   UNL     1       5.226   4.775  16.078  0.00  0.00    +0.000 A 
ATOM     16  C   UNL     1       6.493   5.375  16.018  0.00  0.00    +0.000 A 
ATOM     17  C   UNL     1       7.312   5.274  14.888  0.00  0.00    +0.000 A 
ATOM     18  C   UNL     1       6.847   4.549  13.779  0.00  0.00    +0.000 A 
ATOM     19  S   UNL     1       7.680   4.262  12.298  0.00  0.00    +0.000 S 
ATOM     20  C   UNL     1       6.382   3.358  11.659  0.00  0.00    +0.000 A 
ATOM     21  C   UNL     1       5.330   3.274  12.539  0.00  0.00    +0.000 A 
ATOM     22  C   UNL     1       5.586   3.955  13.776  0.00  0.00    +0.000 A 
ATOM     23  C   UNL     1       4.776   4.090  14.931  0.00  0.00    +0.000 A 
ENDBRANCH   3  15
BRANCH  10  24
ATOM     24  C   UNL     1       0.183  10.125  21.493  0.00  0.00    +0.000 C 
ATOM     25  O   UNL     1       0.455  10.115  22.694  0.00  0.00    +0.000 OA
ATOM     26  N   UNL     1      -0.708  11.049  20.949  0.00  0.00    +0.000 N 
ATOM     27  C   UNL     1      -1.292  11.088  19.602  0.00  0.00    +0.000 C 
ATOM     28  C   UNL     1      -0.994  12.452  18.962  0.00  0.00    +0.000 C 
ATOM     29  O   UNL     1      -1.510  13.519  19.776  0.00  0.00    +0.000 OA
ATOM     30  C   UNL     1      -0.938  13.487  21.097  0.00  0.00    +0.000 C 
ATOM     31  C   UNL     1      -1.199  12.144  21.791  0.00  0.00    +0.000 C 
ENDBRANCH  10  24
BRANCH   1  33
ATOM     32  N   UNL     1       4.765   2.045  20.509  0.00  0.00    +0.000 N 
ATOM     33  C   UNL     1       3.692   2.891  20.485  0.00  0.00    +0.000 C 
ATOM     34  O   UNL     1       2.795   2.822  21.314  0.00  0.00    +0.000 OA
ATOM     35  H   UNL     1       4.810   1.399  21.291  0.00  0.00    +0.000 HD
ATOM     36  H   UNL     1       5.637   2.266  20.050  0.00  0.00    +0.000 HD
ENDBRANCH   1  33
TORSDOF 3
ENDMDL
MODEL 2
REMARK VINA RESULT:      -9.3      3.995      9.570
REMARK  Name = 
REMARK  3 active torsions:
REMARK  status: ('A' for Active; 'I' for Inactive)
REMARK    1  A    between atoms: C_2  and  C_4
REMARK    2  A    between atoms: C_6  and  C_7
REMARK    3  A    between atoms: C_22  and  C_23
REMARK                            x       y       z     vdW  Elec       q    Type
REMARK                         _______ _______ _______ _____ _____    ______ ____
ROOT
ATOM      1  C   UNL     1       2.438   4.690  20.075  0.00  0.00    +0.000 A 
ATOM      2  C   UNL     1       1.783   5.835  20.537  0.00  0.00    +0.000 A 
ATOM      3  C   UNL     1       2.021   7.071  19.934  0.00  0.00    +0.000 A 
ATOM      4  N   UNL     1       2.883   7.233  18.909  0.00  0.00    +0.000 NA
ATOM      5  C   UNL     1       3.520   6.124  18.471  0.00  0.00    +0.000 A 
ATOM      6  C   UNL     1       3.329   4.866  19.021  0.00  0.00    +0.000 A 
ATOM      7  N   UNL     1       4.114   3.988  18.304  0.00  0.00    +0.000 N 
ATOM      8  C   UNL     1       4.758   4.645  17.273  0.00  0.00    +0.000 A 
ATOM      9  C   UNL     1       5.596   4.167  16.253  0.00  0.00    +0.000 A 
ATOM     10  C   UNL     1       6.071   5.092  15.299  0.00  0.00    +0.000 A 
ATOM     11  C   UNL     1       5.669   6.430  15.362  0.00  0.00    +0.000 A 
ATOM     12  C   UNL     1       4.893   6.903  16.421  0.00  0.00    +0.000 A 
ATOM     13  C   UNL     1       4.407   5.993  17.373  0.00  0.00    +0.000 A 
ATOM     14  H   UNL     1       4.160   2.992  18.487  0.00  0.00    +0.000 HD
ENDROOT
BRANCH   3  15
ATOM     15  C   UNL     1       1.284   8.292  20.335  0.00  0.00    +0.000 A 
ATOM     16  C   UNL     1       1.075   9.337  19.422  0.00  0.00    +0.000 A 
ATOM     17  C   UNL     1       0.325  10.473  19.748  0.00  0.00    +0.000 A 
ATOM     18  C   UNL     1      -0.231  10.569  21.034  0.00  0.00    +0.000 A 
ATOM     19  S   UNL     1      -1.208  11.846  21.655  0.00  0.00    +0.000 S 
ATOM     20  C   UNL     1      -1.368  11.085  23.173  0.00  0.00    +0.000 A 
ATOM     21  C   UNL     1      -0.692   9.888  23.223  0.00  0.00    +0.000 A 
ATOM     22  C   UNL     1      -0.033   9.572  21.989  0.00  0.00    +0.000 A 
ATOM     23  C   UNL     1       0.744   8.442  21.629  0.00  0.00    +0.000 A 
ENDBRANCH   3  15
BRANCH  10  24
ATOM     24  C   UNL     1       6.892   4.576  14.162  0.00  0.00    +0.000 C 
ATOM     25  O   UNL     1       8.110   4.532  14.335  0.00  0.00    +0.000 OA
ATOM     26  N   UNL     1       6.302   4.138  12.977  0.00  0.00    +0.000 N 
ATOM     27  C   UNL     1       4.914   4.292  12.523  0.00  0.00    +0.000 C 
ATOM     28  C   UNL     1       4.335   2.909  12.190  0.00  0.00    +0.000 C 
ATOM     29  O   UNL     1       5.131   2.252  11.189  0.00  0.00    +0.000 OA
ATOM     30  C   UNL     1       6.493   2.096  11.631  0.00  0.00    +0.000 C 
ATOM     31  C   UNL     1       7.129   3.446  11.984  0.00  0.00    +0.000 C 
ENDBRANCH  10  24
BRANCH   1  33
ATOM     32  N   UNL     1       2.126   3.269  22.010  0.00  0.00    +0.000 N 
ATOM     33  C   UNL     1       2.190   3.353  20.647  0.00  0.00    +0.000 C 
ATOM     34  O   UNL     1       2.001   2.380  19.930  0.00  0.00    +0.000 OA
ATOM     35  H   UNL     1       1.848   2.370  22.391  0.00  0.00    +0.000 HD
ATOM     36  H   UNL     1       1.974   4.078  22.593  0.00  0.00    +0.000 HD
ENDBRANCH   1  33
TORSDOF 3
ENDMDL
MODEL 3
REMARK VINA RESULT:      -8.9      3.991     10.110
REMARK  Name = 
REMARK  3 active torsions:
REMARK  status: ('A' for Active; 'I' for Inactive)
REMARK    1  A    between atoms: C_2  and  C_4
REMARK    2  A    between atoms: C_6  and  C_7
REMARK    3  A    between atoms: C_22  and  C_23
REMARK                            x       y       z     vdW  Elec       q    Type
REMARK                         _______ _______ _______ _____ _____    ______ ____
ROOT
ATOM      1  C   UNL     1      -0.033  11.353  21.625  0.00  0.00    +0.000 A 
ATOM      2  C   UNL     1       0.032  12.669  21.158  0.00  0.00    +0.000 A 
ATOM      3  C   UNL     1       0.728  12.964  19.985  0.00  0.00    +0.000 A 
ATOM      4  N   UNL     1       1.374  12.028  19.260  0.00  0.00    +0.000 NA
ATOM      5  C   UNL     1       1.315  10.758  19.720  0.00  0.00    +0.000 A 
ATOM      6  C   UNL     1       0.640  10.394  20.875  0.00  0.00    +0.000 A 
ATOM      7  N   UNL     1       0.773   9.028  21.007  0.00  0.00    +0.000 N 
ATOM      8  C   UNL     1       1.468   8.502  19.935  0.00  0.00    +0.000 A 
ATOM      9  C   UNL     1       1.787   7.177  19.599  0.00  0.00    +0.000 A 
ATOM     10  C   UNL     1       2.478   6.947  18.390  0.00  0.00    +0.000 A 
ATOM     11  C   UNL     1       2.785   8.020  17.546  0.00  0.00    +0.000 A 
ATOM     12  C   UNL     1       2.524   9.337  17.926  0.00  0.00    +0.000 A 
ATOM     13  C   UNL     1       1.829   9.579  19.123  0.00  0.00    +0.000 A 
ATOM     14  H   UNL     1       0.365   8.491  21.764  0.00  0.00    +0.000 HD
ENDROOT
BRANCH   3  15
ATOM     15  C   UNL     1       0.748  14.329  19.409  0.00  0.00    +0.000 A 
ATOM     16  C   UNL     1       1.911  14.840  18.812  0.00  0.00    +0.000 A 
ATOM     17  C   UNL     1       1.943  16.098  18.199  0.00  0.00    +0.000 A 
ATOM     18  C   UNL     1       0.773  16.874  18.186  0.00  0.00    +0.000 A 
ATOM     19  S   UNL     1       0.559  18.427  17.472  0.00  0.00    +0.000 S 
ATOM     20  C   UNL     1      -1.075  18.505  17.954  0.00  0.00    +0.000 A 
ATOM     21  C   UNL     1      -1.462  17.384  18.648  0.00  0.00    +0.000 A 
ATOM     22  C   UNL     1      -0.404  16.425  18.787  0.00  0.00    +0.000 A 
ATOM     23  C   UNL     1      -0.396  15.153  19.411  0.00  0.00    +0.000 A 
ENDBRANCH   3  15
BRANCH  10  24
ATOM     24  C   UNL     1       2.744   5.534  17.986  0.00  0.00    +0.000 C 
ATOM     25  O   UNL     1       1.765   4.856  17.672  0.00  0.00    +0.000 OA
ATOM     26  N   UNL     1       4.039   5.021  17.936  0.00  0.00    +0.000 N 
ATOM     27  C   UNL     1       5.285   5.605  18.448  0.00  0.00    +0.000 C 
ATOM     28  C   UNL     1       6.310   5.687  17.308  0.00  0.00    +0.000 C 
ATOM     29  O   UNL     1       6.548   4.386  16.743  0.00  0.00    +0.000 OA
ATOM     30  C   UNL     1       5.329   3.811  16.236  0.00  0.00    +0.000 C 
ATOM     31  C   UNL     1       4.259   3.704  17.331  0.00  0.00    +0.000 C 
ENDBRANCH  10  24
BRANCH   1  33
ATOM     32  N   UNL     1      -1.945  11.672  23.074  0.00  0.00    +0.000 N 
ATOM     33  C   UNL     1      -0.792  10.980  22.834  0.00  0.00    +0.000 C 
ATOM     34  O   UNL     1      -0.427  10.061  23.554  0.00  0.00    +0.000 OA
ATOM     35  H   UNL     1      -2.517  11.339  23.844  0.00  0.00    +0.000 HD
ATOM     36  H   UNL     1      -2.414  12.204  22.356  0.00  0.00    +0.000 HD
ENDBRANCH   1  33
TORSDOF 3
ENDMDL
MODEL 4
REMARK VINA RESULT:      -8.9      3.988      9.931
REMARK  Name = 
REMARK  3 active torsions:
REMARK  status: ('A' for Active; 'I' for Inactive)
REMARK    1  A    between atoms: C_2  and  C_4
REMARK    2  A    between atoms: C_6  and  C_7
REMARK    3  A    between atoms: C_22  and  C_23
REMARK                            x       y       z     vdW  Elec       q    Type
REMARK                         _______ _______ _______ _____ _____    ______ ____
ROOT
ATOM      1  C   UNL     1       0.005  10.918  21.829  0.00  0.00    +0.000 A 
ATOM      2  C   UNL     1      -0.079  12.236  21.373  0.00  0.00    +0.000 A 
ATOM      3  C   UNL     1       0.491  12.594  20.151  0.00  0.00    +0.000 A 
ATOM      4  N   UNL     1       1.150  11.718  19.364  0.00  0.00    +0.000 NA
ATOM      5  C   UNL     1       1.236  10.446  19.814  0.00  0.00    +0.000 A 
ATOM      6  C   UNL     1       0.692  10.022  21.016  0.00  0.00    +0.000 A 
ATOM      7  N   UNL     1       0.948   8.671  21.122  0.00  0.00    +0.000 N 
ATOM      8  C   UNL     1       1.594   8.210  19.991  0.00  0.00    +0.000 A 
ATOM      9  C   UNL     1       1.993   6.918  19.616  0.00  0.00    +0.000 A 
ATOM     10  C   UNL     1       2.599   6.752  18.352  0.00  0.00    +0.000 A 
ATOM     11  C   UNL     1       2.744   7.850  17.497  0.00  0.00    +0.000 A 
ATOM     12  C   UNL     1       2.406   9.139  17.911  0.00  0.00    +0.000 A 
ATOM     13  C   UNL     1       1.796   9.317  19.164  0.00  0.00    +0.000 A 
ATOM     14  H   UNL     1       0.651   8.099  21.904  0.00  0.00    +0.000 HD
ENDROOT
BRANCH   3  15
ATOM     15  C   UNL     1       0.349  13.958  19.590  0.00  0.00    +0.000 A 
ATOM     16  C   UNL     1      -0.827  14.698  19.788  0.00  0.00    +0.000 A 
ATOM     17  C   UNL     1      -0.967  16.013  19.330  0.00  0.00    +0.000 A 
ATOM     18  C   UNL     1       0.106  16.608  18.647  0.00  0.00    +0.000 A 
ATOM     19  S   UNL     1       0.183  18.211  18.020  0.00  0.00    +0.000 S 
ATOM     20  C   UNL     1       1.766  17.983  17.429  0.00  0.00    +0.000 A 
ATOM     21  C   UNL     1       2.237  16.718  17.690  0.00  0.00    +0.000 A 
ATOM     22  C   UNL     1       1.289  15.910  18.401  0.00  0.00    +0.000 A 
ATOM     23  C   UNL     1       1.390  14.575  18.866  0.00  0.00    +0.000 A 
ENDBRANCH   3  15
BRANCH  10  24
ATOM     24  C   UNL     1       2.947   5.368  17.911  0.00  0.00    +0.000 C 
ATOM     25  O   UNL     1       2.007   4.624  17.631  0.00  0.00    +0.000 OA
ATOM     26  N   UNL     1       4.272   4.951  17.794  0.00  0.00    +0.000 N 
ATOM     27  C   UNL     1       5.495   5.618  18.258  0.00  0.00    +0.000 C 
ATOM     28  C   UNL     1       6.457   5.791  17.073  0.00  0.00    +0.000 C 
ATOM     29  O   UNL     1       6.763   4.519  16.476  0.00  0.00    +0.000 OA
ATOM     30  C   UNL     1       5.566   3.862  16.016  0.00  0.00    +0.000 C 
ATOM     31  C   UNL     1       4.559   3.663  17.156  0.00  0.00    +0.000 C 
ENDBRANCH  10  24
BRANCH   1  33
ATOM     32  N   UNL     1      -1.840  11.008  23.393  0.00  0.00    +0.000 N 
ATOM     33  C   UNL     1      -0.617  10.477  23.092  0.00  0.00    +0.000 C 
ATOM     34  O   UNL     1      -0.082   9.640  23.806  0.00  0.00    +0.000 OA
ATOM     35  H   UNL     1      -2.310  10.620  24.206  0.00  0.00    +0.000 HD
ATOM     36  H   UNL     1      -2.423  11.447  22.696  0.00  0.00    +0.000 HD
ENDBRANCH   1  33
TORSDOF 3
ENDMDL
MODEL 5
REMARK VINA RESULT:      -8.9      3.956      9.383
REMARK  Name = 
REMARK  3 active torsions:
REMARK  status: ('A' for Active; 'I' for Inactive)
REMARK    1  A    between atoms: C_2  and  C_4
REMARK    2  A    between atoms: C_6  and  C_7
REMARK    3  A    between atoms: C_22  and  C_23
REMARK                            x       y       z     vdW  Elec       q    Type
REMARK                         _______ _______ _______ _____ _____    ______ ____
ROOT
ATOM      1  C   UNL     1       2.213   4.533  20.154  0.00  0.00    +0.000 A 
ATOM      2  C   UNL     1       1.561   5.656  20.671  0.00  0.00    +0.000 A 
ATOM      3  C   UNL     1       1.830   6.923  20.153  0.00  0.00    +0.000 A 
ATOM      4  N   UNL     1       2.719   7.138  19.162  0.00  0.00    +0.000 NA
ATOM      5  C   UNL     1       3.354   6.049  18.671  0.00  0.00    +0.000 A 
ATOM      6  C   UNL     1       3.134   4.762  19.136  0.00  0.00    +0.000 A 
ATOM      7  N   UNL     1       3.926   3.920  18.385  0.00  0.00    +0.000 N 
ATOM      8  C   UNL     1       4.605   4.631  17.414  0.00  0.00    +0.000 A 
ATOM      9  C   UNL     1       5.463   4.207  16.387  0.00  0.00    +0.000 A 
ATOM     10  C   UNL     1       5.974   5.183  15.505  0.00  0.00    +0.000 A 
ATOM     11  C   UNL     1       5.586   6.520  15.642  0.00  0.00    +0.000 A 
ATOM     12  C   UNL     1       4.789   6.936  16.709  0.00  0.00    +0.000 A 
ATOM     13  C   UNL     1       4.267   5.975  17.590  0.00  0.00    +0.000 A 
ATOM     14  H   UNL     1       3.955   2.914  18.507  0.00  0.00    +0.000 HD
ENDROOT
BRANCH   3  15
ATOM     15  C   UNL     1       1.097   8.127  20.611  0.00  0.00    +0.000 A 
ATOM     16  C   UNL     1       0.495   8.163  21.878  0.00  0.00    +0.000 A 
ATOM     17  C   UNL     1      -0.145   9.308  22.367  0.00  0.00    +0.000 A 
ATOM     18  C   UNL     1      -0.187  10.456  21.560  0.00  0.00    +0.000 A 
ATOM     19  S   UNL     1      -0.886  11.981  21.952  0.00  0.00    +0.000 S 
ATOM     20  C   UNL     1      -0.450  12.651  20.445  0.00  0.00    +0.000 A 
ATOM     21  C   UNL     1       0.208  11.743  19.648  0.00  0.00    +0.000 A 
ATOM     22  C   UNL     1       0.374  10.467  20.282  0.00  0.00    +0.000 A 
ATOM     23  C   UNL     1       1.000   9.286  19.814  0.00  0.00    +0.000 A 
ENDBRANCH   3  15
BRANCH  10  24
ATOM     24  C   UNL     1       6.817   4.727  14.359  0.00  0.00    +0.000 C 
ATOM     25  O   UNL     1       8.036   4.728  14.535  0.00  0.00    +0.000 OA
ATOM     26  N   UNL     1       6.248   4.295  13.162  0.00  0.00    +0.000 N 
ATOM     27  C   UNL     1       4.856   4.404  12.707  0.00  0.00    +0.000 C 
ATOM     28  C   UNL     1       4.334   3.007  12.339  0.00  0.00    +0.000 C 
ATOM     29  O   UNL     1       5.159   2.407  11.325  0.00  0.00    +0.000 OA
ATOM     30  C   UNL     1       6.525   2.295  11.768  0.00  0.00    +0.000 C 
ATOM     31  C   UNL     1       7.105   3.661  12.156  0.00  0.00    +0.000 C 
ENDBRANCH  10  24
BRANCH   1  33
ATOM     32  N   UNL     1       2.003   2.963  21.985  0.00  0.00    +0.000 N 
ATOM     33  C   UNL     1       1.934   3.166  20.635  0.00  0.00    +0.000 C 
ATOM     34  O   UNL     1       1.610   2.275  19.862  0.00  0.00    +0.000 OA
ATOM     35  H   UNL     1       1.705   2.051  22.317  0.00  0.00    +0.000 HD
ATOM     36  H   UNL     1       1.965   3.724  22.647  0.00  0.00    +0.000 HD
ENDBRANCH   1  33
TORSDOF 3
ENDMDL
MODEL 6
REMARK VINA RESULT:      -8.6      1.154      1.278
REMARK  Name = 
REMARK  3 active torsions:
REMARK  status: ('A' for Active; 'I' for Inactive)
REMARK    1  A    between atoms: C_2  and  C_4
REMARK    2  A    between atoms: C_6  and  C_7
REMARK    3  A    between atoms: C_22  and  C_23
REMARK                            x       y       z     vdW  Elec       q    Type
REMARK                         _______ _______ _______ _____ _____    ______ ____
ROOT
ATOM      1  C   UNL     1       2.685   4.434  19.940  0.00  0.00    +0.000 A 
ATOM      2  C   UNL     1       3.544   4.298  18.846  0.00  0.00    +0.000 A 
ATOM      3  C   UNL     1       3.800   5.389  18.015  0.00  0.00    +0.000 A 
ATOM      4  N   UNL     1       3.240   6.602  18.204  0.00  0.00    +0.000 NA
ATOM      5  C   UNL     1       2.404   6.726  19.259  0.00  0.00    +0.000 A 
ATOM      6  C   UNL     1       2.107   5.686  20.125  0.00  0.00    +0.000 A 
ATOM      7  N   UNL     1       1.254   6.189  21.084  0.00  0.00    +0.000 N 
ATOM      8  C   UNL     1       1.044   7.540  20.885  0.00  0.00    +0.000 A 
ATOM      9  C   UNL     1       0.317   8.483  21.630  0.00  0.00    +0.000 A 
ATOM     10  C   UNL     1       0.329   9.824  21.191  0.00  0.00    +0.000 A 
ATOM     11  C   UNL     1       1.086  10.188  20.073  0.00  0.00    +0.000 A 
ATOM     12  C   UNL     1       1.745   9.228  19.303  0.00  0.00    +0.000 A 
ATOM     13  C   UNL     1       1.748   7.891  19.731  0.00  0.00    +0.000 A 
ATOM     14  H   UNL     1       0.884   5.643  21.854  0.00  0.00    +0.000 HD
ENDROOT
BRANCH   3  15
ATOM     15  C   UNL     1       4.770   5.312  16.898  0.00  0.00    +0.000 A 
ATOM     16  C   UNL     1       6.012   5.961  16.978  0.00  0.00    +0.000 A 
ATOM     17  C   UNL     1       6.977   5.852  15.970  0.00  0.00    +0.000 A 
ATOM     18  C   UNL     1       6.689   5.069  14.841  0.00  0.00    +0.000 A 
ATOM     19  S   UNL     1       7.719   4.762  13.494  0.00  0.00    +0.000 S 
ATOM     20  C   UNL     1       6.551   3.782  12.730  0.00  0.00    +0.000 A 
ATOM     21  C   UNL     1       5.395   3.687  13.468  0.00  0.00    +0.000 A 
ATOM     22  C   UNL     1       5.460   4.423  14.698  0.00  0.00    +0.000 A 
ATOM     23  C   UNL     1       4.502   4.567  15.731  0.00  0.00    +0.000 A 
ENDBRANCH   3  15
BRANCH  10  24
ATOM     24  C   UNL     1      -0.369  10.847  22.028  0.00  0.00    +0.000 C 
ATOM     25  O   UNL     1      -0.239  10.746  23.248  0.00  0.00    +0.000 OA
ATOM     26  N   UNL     1      -1.106  11.880  21.451  0.00  0.00    +0.000 N 
ATOM     27  C   UNL     1      -1.526  12.049  20.054  0.00  0.00    +0.000 C 
ATOM     28  C   UNL     1      -1.035  13.410  19.539  0.00  0.00    +0.000 C 
ATOM     29  O   UNL     1      -1.542  14.477  20.359  0.00  0.00    +0.000 OA
ATOM     30  C   UNL     1      -1.130  14.318  21.730  0.00  0.00    +0.000 C 
ATOM     31  C   UNL     1      -1.589  12.971  22.303  0.00  0.00    +0.000 C 
ENDBRANCH  10  24
BRANCH   1  33
ATOM     32  N   UNL     1       1.108   2.954  21.027  0.00  0.00    +0.000 N 
ATOM     33  C   UNL     1       2.414   3.325  20.875  0.00  0.00    +0.000 C 
ATOM     34  O   UNL     1       3.324   2.737  21.444  0.00  0.00    +0.000 OA
ATOM     35  H   UNL     1       0.939   2.123  21.585  0.00  0.00    +0.000 HD
ATOM     36  H   UNL     1       0.395   3.206  20.358  0.00  0.00    +0.000 HD
ENDBRANCH   1  33
TORSDOF 3
ENDMDL
MODEL 7
REMARK VINA RESULT:      -8.4      4.223      9.771
REMARK  Name = 
REMARK  3 active torsions:
REMARK  status: ('A' for Active; 'I' for Inactive)
REMARK    1  A    between atoms: C_2  and  C_4
REMARK    2  A    between atoms: C_6  and  C_7
REMARK    3  A    between atoms: C_22  and  C_23
REMARK                            x       y       z     vdW  Elec       q    Type
REMARK                         _______ _______ _______ _____ _____    ______ ____
ROOT
ATOM      1  C   UNL     1       0.171  10.536  21.892  0.00  0.00    +0.000 A 
ATOM      2  C   UNL     1      -0.009  11.857  21.473  0.00  0.00    +0.000 A 
ATOM      3  C   UNL     1       0.490  12.276  20.239  0.00  0.00    +0.000 A 
ATOM      4  N   UNL     1       1.169  11.459  19.406  0.00  0.00    +0.000 NA
ATOM      5  C   UNL     1       1.347  10.185  19.820  0.00  0.00    +0.000 A 
ATOM      6  C   UNL     1       0.877   9.701  21.031  0.00  0.00    +0.000 A 
ATOM      7  N   UNL     1       1.217   8.366  21.093  0.00  0.00    +0.000 N 
ATOM      8  C   UNL     1       1.843   7.971  19.926  0.00  0.00    +0.000 A 
ATOM      9  C   UNL     1       2.303   6.714  19.504  0.00  0.00    +0.000 A 
ATOM     10  C   UNL     1       2.867   6.614  18.214  0.00  0.00    +0.000 A 
ATOM     11  C   UNL     1       2.914   7.738  17.383  0.00  0.00    +0.000 A 
ATOM     12  C   UNL     1       2.517   8.994  17.842  0.00  0.00    +0.000 A 
ATOM     13  C   UNL     1       1.946   9.107  19.121  0.00  0.00    +0.000 A 
ATOM     14  H   UNL     1       0.985   7.760  21.871  0.00  0.00    +0.000 HD
ENDROOT
BRANCH   3  15
ATOM     15  C   UNL     1       0.246  13.642  19.718  0.00  0.00    +0.000 A 
ATOM     16  C   UNL     1      -1.002  14.261  19.885  0.00  0.00    +0.000 A 
ATOM     17  C   UNL     1      -1.244  15.575  19.465  0.00  0.00    +0.000 A 
ATOM     18  C   UNL     1      -0.202  16.292  18.855  0.00  0.00    +0.000 A 
ATOM     19  S   UNL     1      -0.249  17.918  18.287  0.00  0.00    +0.000 S 
ATOM     20  C   UNL     1       1.373  17.860  17.765  0.00  0.00    +0.000 A 
ATOM     21  C   UNL     1       1.949  16.634  18.005  0.00  0.00    +0.000 A 
ATOM     22  C   UNL     1       1.050  15.715  18.643  0.00  0.00    +0.000 A 
ATOM     23  C   UNL     1       1.255  14.379  19.066  0.00  0.00    +0.000 A 
ENDBRANCH   3  15
BRANCH  10  24
ATOM     24  C   UNL     1       3.279   5.263  17.726  0.00  0.00    +0.000 C 
ATOM     25  O   UNL     1       4.357   5.195  17.134  0.00  0.00    +0.000 OA
ATOM     26  N   UNL     1       2.495   4.134  17.956  0.00  0.00    +0.000 N 
ATOM     27  C   UNL     1       1.118   4.052  18.461  0.00  0.00    +0.000 C 
ATOM     28  C   UNL     1       1.087   3.138  19.695  0.00  0.00    +0.000 C 
ATOM     29  O   UNL     1       1.593   1.831  19.374  0.00  0.00    +0.000 OA
ATOM     30  C   UNL     1       2.945   1.907  18.882  0.00  0.00    +0.000 C 
ATOM     31  C   UNL     1       3.045   2.811  17.646  0.00  0.00    +0.000 C 
ENDBRANCH  10  24
BRANCH   1  33
ATOM     32  N   UNL     1      -1.674  10.342  23.446  0.00  0.00    +0.000 N 
ATOM     33  C   UNL     1      -0.374  10.030  23.166  0.00  0.00    +0.000 C 
ATOM     34  O   UNL     1       0.296   9.324  23.907  0.00  0.00    +0.000 OA
ATOM     35  H   UNL     1      -2.075   9.902  24.269  0.00  0.00    +0.000 HD
ATOM     36  H   UNL     1      -2.320  10.649  22.734  0.00  0.00    +0.000 HD
ENDBRANCH   1  33
TORSDOF 3
ENDMDL
MODEL 8
REMARK VINA RESULT:      -8.3      4.288      7.357
REMARK  Name = 
REMARK  3 active torsions:
REMARK  status: ('A' for Active; 'I' for Inactive)
REMARK    1  A    between atoms: C_2  and  C_4
REMARK    2  A    between atoms: C_6  and  C_7
REMARK    3  A    between atoms: C_22  and  C_23
REMARK                            x       y       z     vdW  Elec       q    Type
REMARK                         _______ _______ _______ _____ _____    ______ ____
ROOT
ATOM      1  C   UNL     1      -1.577  10.722  17.784  0.00  0.00    +0.000 A 
ATOM      2  C   UNL     1      -0.564   9.759  17.793  0.00  0.00    +0.000 A 
ATOM      3  C   UNL     1       0.367   9.730  18.831  0.00  0.00    +0.000 A 
ATOM      4  N   UNL     1       0.357  10.612  19.852  0.00  0.00    +0.000 NA
ATOM      5  C   UNL     1      -0.620  11.547  19.834  0.00  0.00    +0.000 A 
ATOM      6  C   UNL     1      -1.578  11.632  18.836  0.00  0.00    +0.000 A 
ATOM      7  N   UNL     1      -2.415  12.677  19.169  0.00  0.00    +0.000 N 
ATOM      8  C   UNL     1      -2.049  13.224  20.383  0.00  0.00    +0.000 A 
ATOM      9  C   UNL     1      -2.631  14.246  21.150  0.00  0.00    +0.000 A 
ATOM     10  C   UNL     1      -2.043  14.556  22.395  0.00  0.00    +0.000 A 
ATOM     11  C   UNL     1      -0.943  13.823  22.851  0.00  0.00    +0.000 A 
ATOM     12  C   UNL     1      -0.333  12.859  22.047  0.00  0.00    +0.000 A 
ATOM     13  C   UNL     1      -0.911  12.535  20.808  0.00  0.00    +0.000 A 
ATOM     14  H   UNL     1      -3.216  12.957  18.614  0.00  0.00    +0.000 HD
ENDROOT
BRANCH   3  15
ATOM     15  C   UNL     1       1.402   8.673  18.925  0.00  0.00    +0.000 A 
ATOM     16  C   UNL     1       1.484   7.846  20.055  0.00  0.00    +0.000 A 
ATOM     17  C   UNL     1       2.405   6.796  20.146  0.00  0.00    +0.000 A 
ATOM     18  C   UNL     1       3.277   6.567  19.069  0.00  0.00    +0.000 A 
ATOM     19  S   UNL     1       4.467   5.328  18.936  0.00  0.00    +0.000 S 
ATOM     20  C   UNL     1       4.949   5.855  17.387  0.00  0.00    +0.000 A 
ATOM     21  C   UNL     1       4.233   6.953  16.970  0.00  0.00    +0.000 A 
ATOM     22  C   UNL     1       3.255   7.375  17.932  0.00  0.00    +0.000 A 
ATOM     23  C   UNL     1       2.320   8.438  17.881  0.00  0.00    +0.000 A 
ENDBRANCH   3  15
BRANCH  10  24
ATOM     24  C   UNL     1      -2.709  15.581  23.255  0.00  0.00    +0.000 C 
ATOM     25  O   UNL     1      -2.131  16.661  23.374  0.00  0.00    +0.000 OA
ATOM     26  N   UNL     1      -3.937  15.334  23.866  0.00  0.00    +0.000 N 
ATOM     27  C   UNL     1      -4.667  14.066  23.995  0.00  0.00    +0.000 C 
ATOM     28  C   UNL     1      -6.080  14.236  23.418  0.00  0.00    +0.000 C 
ATOM     29  O   UNL     1      -6.779  15.300  24.087  0.00  0.00    +0.000 OA
ATOM     30  C   UNL     1      -6.068  16.546  23.960  0.00  0.00    +0.000 C 
ATOM     31  C   UNL     1      -4.643  16.441  24.517  0.00  0.00    +0.000 C 
ENDBRANCH  10  24
BRANCH   1  33
ATOM     32  N   UNL     1      -2.524   9.838  15.740  0.00  0.00    +0.000 N 
ATOM     33  C   UNL     1      -2.613  10.771  16.734  0.00  0.00    +0.000 C 
ATOM     34  O   UNL     1      -3.531  11.577  16.785  0.00  0.00    +0.000 OA
ATOM     35  H   UNL     1      -3.298   9.807  15.083  0.00  0.00    +0.000 HD
ATOM     36  H   UNL     1      -1.976   8.996  15.838  0.00  0.00    +0.000 HD
ENDBRANCH   1  33
TORSDOF 3
ENDMDL
MODEL 9
REMARK VINA RESULT:      -8.2      4.240      9.989
REMARK  Name = 
REMARK  3 active torsions:
REMARK  status: ('A' for Active; 'I' for Inactive)
REMARK    1  A    between atoms: C_2  and  C_4
REMARK    2  A    between atoms: C_6  and  C_7
REMARK    3  A    between atoms: C_22  and  C_23
REMARK                            x       y       z     vdW  Elec       q    Type
REMARK                         _______ _______ _______ _____ _____    ______ ____
ROOT
ATOM      1  C   UNL     1       0.180  10.554  21.953  0.00  0.00    +0.000 A 
ATOM      2  C   UNL     1      -0.020  11.875  21.544  0.00  0.00    +0.000 A 
ATOM      3  C   UNL     1       0.454  12.304  20.304  0.00  0.00    +0.000 A 
ATOM      4  N   UNL     1       1.127  11.499  19.456  0.00  0.00    +0.000 NA
ATOM      5  C   UNL     1       1.325  10.224  19.861  0.00  0.00    +0.000 A 
ATOM      6  C   UNL     1       0.879   9.730  21.077  0.00  0.00    +0.000 A 
ATOM      7  N   UNL     1       1.233   8.398  21.127  0.00  0.00    +0.000 N 
ATOM      8  C   UNL     1       1.844   8.015  19.949  0.00  0.00    +0.000 A 
ATOM      9  C   UNL     1       2.310   6.764  19.513  0.00  0.00    +0.000 A 
ATOM     10  C   UNL     1       2.853   6.675  18.214  0.00  0.00    +0.000 A 
ATOM     11  C   UNL     1       2.875   7.803  17.387  0.00  0.00    +0.000 A 
ATOM     12  C   UNL     1       2.473   9.054  17.859  0.00  0.00    +0.000 A 
ATOM     13  C   UNL     1       1.923   9.155  19.147  0.00  0.00    +0.000 A 
ATOM     14  H   UNL     1       1.020   7.786  21.907  0.00  0.00    +0.000 HD
ENDROOT
BRANCH   3  15
ATOM     15  C   UNL     1       0.188  13.670  19.794  0.00  0.00    +0.000 A 
ATOM     16  C   UNL     1       0.958  14.210  18.752  0.00  0.00    +0.000 A 
ATOM     17  C   UNL     1       0.689  15.469  18.202  0.00  0.00    +0.000 A 
ATOM     18  C   UNL     1      -0.385  16.215  18.714  0.00  0.00    +0.000 A 
ATOM     19  S   UNL     1      -0.925  17.764  18.186  0.00  0.00    +0.000 S 
ATOM     20  C   UNL     1      -2.182  17.800  19.338  0.00  0.00    +0.000 A 
ATOM     21  C   UNL     1      -2.198  16.668  20.119  0.00  0.00    +0.000 A 
ATOM     22  C   UNL     1      -1.166  15.736  19.766  0.00  0.00    +0.000 A 
ATOM     23  C   UNL     1      -0.857  14.464  20.308  0.00  0.00    +0.000 A 
ENDBRANCH   3  15
BRANCH  10  24
ATOM     24  C   UNL     1       3.270   5.331  17.712  0.00  0.00    +0.000 C 
ATOM     25  O   UNL     1       4.338   5.276  17.102  0.00  0.00    +0.000 OA
ATOM     26  N   UNL     1       2.502   4.193  17.952  0.00  0.00    +0.000 N 
ATOM     27  C   UNL     1       1.135   4.095  18.480  0.00  0.00    +0.000 C 
ATOM     28  C   UNL     1       1.134   3.176  19.711  0.00  0.00    +0.000 C 
ATOM     29  O   UNL     1       1.649   1.875  19.375  0.00  0.00    +0.000 OA
ATOM     30  C   UNL     1       2.991   1.967  18.859  0.00  0.00    +0.000 C 
ATOM     31  C   UNL     1       3.059   2.877  17.626  0.00  0.00    +0.000 C 
ENDBRANCH  10  24
BRANCH   1  33
ATOM     32  N   UNL     1      -1.669  10.231  23.482  0.00  0.00    +0.000 N 
ATOM     33  C   UNL     1      -0.339  10.037  23.234  0.00  0.00    +0.000 C 
ATOM     34  O   UNL     1       0.380   9.421  24.009  0.00  0.00    +0.000 OA
ATOM     35  H   UNL     1      -2.042   9.779  24.312  0.00  0.00    +0.000 HD
ATOM     36  H   UNL     1      -2.327  10.453  22.750  0.00  0.00    +0.000 HD
ENDBRANCH   1  33
TORSDOF 3
ENDMDL
