MODEL 1
REMARK VINA RESULT:      -8.2      0.000      0.000
REMARK  Name = 
REMARK  11 active torsions:
REMARK  status: ('A' for Active; 'I' for Inactive)
REMARK    1  A    between atoms: C_1  and  O_2
REMARK    2  A    between atoms: O_2  and  C_3
REMARK    3  A    between atoms: C_6  and  S_7
REMARK    4  A    between atoms: S_7  and  N_10
REMARK    5  A    between atoms: N_10  and  C_11
REMARK    6  A    between atoms: C_11  and  C_12
REMARK    7  A    between atoms: C_12  and  C_13
REMARK    8  A    between atoms: C_18  and  O_19
REMARK    9  A    between atoms: O_19  and  C_20
REMARK   10  A    between atoms: C_26  and  N_27
REMARK   11  A    between atoms: N_30  and  C_31
REMARK                            x       y       z     vdW  Elec       q    Type
REMARK                         _______ _______ _______ _____ _____    ______ ____
ROOT
ATOM      1  S   UNL     1       7.251   6.556  17.539  0.00  0.00    +0.000 S 
ATOM      2  O   UNL     1       7.988   6.124  18.704  0.00  0.00    +0.000 OA
ATOM      3  O   UNL     1       7.707   6.264  16.201  0.00  0.00    +0.000 OA
ENDROOT
BRANCH   1   7
ATOM      4  C   UNL     1       2.967   4.933  17.639  0.00  0.00    +0.000 A 
ATOM      5  C   UNL     1       4.042   4.163  17.181  0.00  0.00    +0.000 A 
ATOM      6  C   UNL     1       5.350   4.630  17.281  0.00  0.00    +0.000 A 
ATOM      7  C   UNL     1       5.583   5.946  17.681  0.00  0.00    +0.000 A 
ATOM      8  C   UNL     1       4.511   6.744  18.101  0.00  0.00    +0.000 A 
ATOM      9  C   UNL     1       3.177   6.259  18.108  0.00  0.00    +0.000 A 
BRANCH   9  10
ATOM     10  N   UNL     1       2.172   7.094  18.589  0.00  0.00    +0.000 N 
ATOM     11  C   UNL     1       1.719   8.278  17.821  0.00  0.00    +0.000 C 
ATOM     12  C   UNL     1       1.633   9.604  18.658  0.00  0.00    +0.000 C 
ATOM     13  N   UNL     1       0.931   9.396  19.933  0.00  0.00    +0.000 NA
ATOM     14  C   UNL     1       0.913  10.653  20.674  0.00  0.00    +0.000 C 
ATOM     15  C   UNL     1       1.648   8.348  20.706  0.00  0.00    +0.000 C 
ATOM     16  C   UNL     1       1.680   6.977  19.972  0.00  0.00    +0.000 C 
ENDBRANCH   9  10
BRANCH   4  18
ATOM     17  C   UNL     1       1.829   3.019  18.381  0.00  0.00    +0.000 C 
ATOM     18  O   UNL     1       1.785   4.223  17.652  0.00  0.00    +0.000 OA
ENDBRANCH   4  18
ENDBRANCH   1   7
BRANCH   1  19
ATOM     19  N   UNL     1       7.150   8.259  17.662  0.00  0.00    +0.000 NA
ATOM     20  H   UNL     1       6.358   8.537  18.245  0.00  0.00    +0.000 HD
BRANCH  19  21
ATOM     21  C   UNL     1       8.409   8.801  18.199  0.00  0.00    +0.000 C 
BRANCH  21  22
ATOM     22  C   UNL     1       8.611  10.250  17.729  0.00  0.00    +0.000 C 
BRANCH  22  23
ATOM     23  C   UNL     1       9.433  11.058  18.789  0.00  0.00    +0.000 A 
ATOM     24  C   UNL     1       9.170  10.705  20.125  0.00  0.00    +0.000 A 
ATOM     25  C   UNL     1       9.774  11.385  21.132  0.00  0.00    +0.000 A 
ATOM     26  C   UNL     1      10.601  12.408  20.747  0.00  0.00    +0.000 A 
ATOM     27  C   UNL     1      10.830  12.848  19.416  0.00  0.00    +0.000 A 
ATOM     28  C   UNL     1      11.486  14.067  18.999  0.00  0.00    +0.000 A 
ATOM     29  C   UNL     1      11.569  14.506  17.645  0.00  0.00    +0.000 A 
ATOM     30  C   UNL     1      11.927  13.612  16.686  0.00  0.00    +0.000 A 
ATOM     31  C   UNL     1      11.009  12.579  17.026  0.00  0.00    +0.000 A 
ATOM     32  C   UNL     1      10.412  12.089  18.319  0.00  0.00    +0.000 A 
BRANCH  28  33
ATOM     33  O   UNL     1      12.248  14.907  19.830  0.00  0.00    +0.000 OA
ATOM     34  C   UNL     1      12.333  16.267  19.469  0.00  0.00    +0.000 C 
ENDBRANCH  28  33
ENDBRANCH  22  23
ENDBRANCH  21  22
ENDBRANCH  19  21
ENDBRANCH   1  19
TORSDOF 8
ENDMDL
MODEL 2
REMARK VINA RESULT:      -8.1      6.596     10.357
REMARK  Name = 
REMARK  11 active torsions:
REMARK  status: ('A' for Active; 'I' for Inactive)
REMARK    1  A    between atoms: C_1  and  O_2
REMARK    2  A    between atoms: O_2  and  C_3
REMARK    3  A    between atoms: C_6  and  S_7
REMARK    4  A    between atoms: S_7  and  N_10
REMARK    5  A    between atoms: N_10  and  C_11
REMARK    6  A    between atoms: C_11  and  C_12
REMARK    7  A    between atoms: C_12  and  C_13
REMARK    8  A    between atoms: C_18  and  O_19
REMARK    9  A    between atoms: O_19  and  C_20
REMARK   10  A    between atoms: C_26  and  N_27
REMARK   11  A    between atoms: N_30  and  C_31
REMARK                            x       y       z     vdW  Elec       q    Type
REMARK                         _______ _______ _______ _____ _____    ______ ____
ROOT
ATOM      1  S   UNL     1       0.159   9.374  22.427  0.00  0.00    +0.000 S 
ATOM      2  O   UNL     1       0.717   9.665  23.727  0.00  0.00    +0.000 OA
ATOM      3  O   UNL     1      -0.599   8.171  22.179  0.00  0.00    +0.000 OA
ENDROOT
BRANCH   1   7
ATOM      4  C   UNL     1      -2.627  12.850  21.352  0.00  0.00    +0.000 A 
ATOM      5  C   UNL     1      -2.142  12.662  22.651  0.00  0.00    +0.000 A 
ATOM      6  C   UNL     1      -1.196  11.678  22.925  0.00  0.00    +0.000 A 
ATOM      7  C   UNL     1      -0.854  10.755  21.936  0.00  0.00    +0.000 A 
ATOM      8  C   UNL     1      -1.367  10.905  20.641  0.00  0.00    +0.000 A 
ATOM      9  C   UNL     1      -2.252  11.961  20.306  0.00  0.00    +0.000 A 
BRANCH   9  10
ATOM     10  N   UNL     1      -2.677  12.075  18.985  0.00  0.00    +0.000 N 
ATOM     11  C   UNL     1      -4.108  11.945  18.621  0.00  0.00    +0.000 C 
ATOM     12  C   UNL     1      -4.391  10.974  17.420  0.00  0.00    +0.000 C 
ATOM     13  N   UNL     1      -3.492  11.236  16.287  0.00  0.00    +0.000 NA
ATOM     14  C   UNL     1      -3.784  10.283  15.221  0.00  0.00    +0.000 C 
ATOM     15  C   UNL     1      -2.088  11.087  16.748  0.00  0.00    +0.000 C 
ATOM     16  C   UNL     1      -1.714  12.095  17.872  0.00  0.00    +0.000 C 
ENDBRANCH   9  10
BRANCH   4  18
ATOM     17  C   UNL     1      -3.143  14.963  22.232  0.00  0.00    +0.000 C 
ATOM     18  O   UNL     1      -3.385  13.996  21.238  0.00  0.00    +0.000 OA
ENDBRANCH   4  18
ENDBRANCH   1   7
BRANCH   1  19
ATOM     19  N   UNL     1       1.487   9.349  21.349  0.00  0.00    +0.000 NA
ATOM     20  H   UNL     1       2.359   9.562  21.838  0.00  0.00    +0.000 HD
BRANCH  19  21
ATOM     21  C   UNL     1       1.569   8.038  20.682  0.00  0.00    +0.000 C 
BRANCH  21  22
ATOM     22  C   UNL     1       1.739   8.221  19.167  0.00  0.00    +0.000 C 
BRANCH  22  23
ATOM     23  C   UNL     1       2.583   7.045  18.567  0.00  0.00    +0.000 A 
ATOM     24  C   UNL     1       3.640   7.451  17.732  0.00  0.00    +0.000 A 
ATOM     25  C   UNL     1       4.397   6.517  17.103  0.00  0.00    +0.000 A 
ATOM     26  C   UNL     1       4.040   5.213  17.326  0.00  0.00    +0.000 A 
ATOM     27  C   UNL     1       2.934   4.764  18.095  0.00  0.00    +0.000 A 
ATOM     28  C   UNL     1       2.386   3.426  18.141  0.00  0.00    +0.000 A 
ATOM     29  C   UNL     1       1.194   3.076  18.840  0.00  0.00    +0.000 A 
ATOM     30  C   UNL     1       1.018   3.532  20.108  0.00  0.00    +0.000 A 
ATOM     31  C   UNL     1       1.302   4.905  19.866  0.00  0.00    +0.000 A 
ATOM     32  C   UNL     1       2.229   5.635  18.930  0.00  0.00    +0.000 A 
BRANCH  28  33
ATOM     33  O   UNL     1       3.012   2.273  17.638  0.00  0.00    +0.000 OA
ATOM     34  C   UNL     1       3.542   1.364  18.576  0.00  0.00    +0.000 C 
ENDBRANCH  28  33
ENDBRANCH  22  23
ENDBRANCH  21  22
ENDBRANCH  19  21
ENDBRANCH   1  19
TORSDOF 8
ENDMDL
MODEL 3
REMARK VINA RESULT:      -7.9      6.555     10.559
REMARK  Name = 
REMARK  11 active torsions:
REMARK  status: ('A' for Active; 'I' for Inactive)
REMARK    1  A    between atoms: C_1  and  O_2
REMARK    2  A    between atoms: O_2  and  C_3
REMARK    3  A    between atoms: C_6  and  S_7
REMARK    4  A    between atoms: S_7  and  N_10
REMARK    5  A    between atoms: N_10  and  C_11
REMARK    6  A    between atoms: C_11  and  C_12
REMARK    7  A    between atoms: C_12  and  C_13
REMARK    8  A    between atoms: C_18  and  O_19
REMARK    9  A    between atoms: O_19  and  C_20
REMARK   10  A    between atoms: C_26  and  N_27
REMARK   11  A    between atoms: N_30  and  C_31
REMARK                            x       y       z     vdW  Elec       q    Type
REMARK                         _______ _______ _______ _____ _____    ______ ____
ROOT
ATOM      1  S   UNL     1       0.571  11.014  19.207  0.00  0.00    +0.000 S 
ATOM      2  O   UNL     1       1.259  12.183  18.712  0.00  0.00    +0.000 OA
ATOM      3  O   UNL     1       0.900  10.423  20.482  0.00  0.00    +0.000 OA
ENDROOT
BRANCH   1   7
ATOM      4  C   UNL     1      -3.896  12.012  18.978  0.00  0.00    +0.000 A 
ATOM      5  C   UNL     1      -3.263  11.215  18.017  0.00  0.00    +0.000 A 
ATOM      6  C   UNL     1      -1.938  10.819  18.177  0.00  0.00    +0.000 A 
ATOM      7  C   UNL     1      -1.177  11.360  19.214  0.00  0.00    +0.000 A 
ATOM      8  C   UNL     1      -1.787  12.196  20.159  0.00  0.00    +0.000 A 
ATOM      9  C   UNL     1      -3.163  12.533  20.080  0.00  0.00    +0.000 A 
BRANCH   9  10
ATOM     10  N   UNL     1      -3.709  13.325  21.086  0.00  0.00    +0.000 N 
ATOM     11  C   UNL     1      -3.601  12.943  22.514  0.00  0.00    +0.000 C 
ATOM     12  C   UNL     1      -4.952  13.013  23.312  0.00  0.00    +0.000 C 
ATOM     13  N   UNL     1      -5.662  14.277  23.068  0.00  0.00    +0.000 NA
ATOM     14  C   UNL     1      -6.918  14.265  23.810  0.00  0.00    +0.000 C 
ATOM     15  C   UNL     1      -5.920  14.405  21.611  0.00  0.00    +0.000 C 
ATOM     16  C   UNL     1      -4.612  14.445  20.770  0.00  0.00    +0.000 C 
ENDBRANCH   9  10
BRANCH   4  18
ATOM     17  C   UNL     1      -5.893  10.911  18.424  0.00  0.00    +0.000 C 
ATOM     18  O   UNL     1      -5.252  12.120  18.755  0.00  0.00    +0.000 OA
ENDBRANCH   4  18
ENDBRANCH   1   7
BRANCH   1  19
ATOM     19  N   UNL     1       0.813   9.800  18.026  0.00  0.00    +0.000 NA
ATOM     20  H   UNL     1       0.734  10.186  17.083  0.00  0.00    +0.000 HD
BRANCH  19  21
ATOM     21  C   UNL     1       2.127   9.163  18.221  0.00  0.00    +0.000 C 
BRANCH  21  22
ATOM     22  C   UNL     1       1.998   7.948  19.151  0.00  0.00    +0.000 C 
BRANCH  22  23
ATOM     23  C   UNL     1       2.723   6.706  18.530  0.00  0.00    +0.000 A 
ATOM     24  C   UNL     1       3.759   7.023  17.633  0.00  0.00    +0.000 A 
ATOM     25  C   UNL     1       4.413   6.028  16.982  0.00  0.00    +0.000 A 
ATOM     26  C   UNL     1       3.976   4.756  17.247  0.00  0.00    +0.000 A 
ATOM     27  C   UNL     1       2.883   4.400  18.080  0.00  0.00    +0.000 A 
ATOM     28  C   UNL     1       2.245   3.106  18.180  0.00  0.00    +0.000 A 
ATOM     29  C   UNL     1       1.070   2.852  18.946  0.00  0.00    +0.000 A 
ATOM     30  C   UNL     1       0.995   3.338  20.214  0.00  0.00    +0.000 A 
ATOM     31  C   UNL     1       1.363   4.683  19.932  0.00  0.00    +0.000 A 
ATOM     32  C   UNL     1       2.289   5.331  18.936  0.00  0.00    +0.000 A 
BRANCH  28  33
ATOM     33  O   UNL     1       2.759   1.903  17.665  0.00  0.00    +0.000 OA
ATOM     34  C   UNL     1       3.772   1.262  18.409  0.00  0.00    +0.000 C 
ENDBRANCH  28  33
ENDBRANCH  22  23
ENDBRANCH  21  22
ENDBRANCH  19  21
ENDBRANCH   1  19
TORSDOF 8
ENDMDL
MODEL 4
REMARK VINA RESULT:      -7.9      6.111      9.879
REMARK  Name = 
REMARK  11 active torsions:
REMARK  status: ('A' for Active; 'I' for Inactive)
REMARK    1  A    between atoms: C_1  and  O_2
REMARK    2  A    between atoms: O_2  and  C_3
REMARK    3  A    between atoms: C_6  and  S_7
REMARK    4  A    between atoms: S_7  and  N_10
REMARK    5  A    between atoms: N_10  and  C_11
REMARK    6  A    between atoms: C_11  and  C_12
REMARK    7  A    between atoms: C_12  and  C_13
REMARK    8  A    between atoms: C_18  and  O_19
REMARK    9  A    between atoms: O_19  and  C_20
REMARK   10  A    between atoms: C_26  and  N_27
REMARK   11  A    between atoms: N_30  and  C_31
REMARK                            x       y       z     vdW  Elec       q    Type
REMARK                         _______ _______ _______ _____ _____    ______ ____
ROOT
ATOM      1  S   UNL     1       0.139   9.317  22.113  0.00  0.00    +0.000 S 
ATOM      2  O   UNL     1       0.452  10.247  23.173  0.00  0.00    +0.000 OA
ATOM      3  O   UNL     1      -0.824   8.256  22.294  0.00  0.00    +0.000 OA
ENDROOT
BRANCH   1   7
ATOM      4  C   UNL     1      -1.107  11.507  18.285  0.00  0.00    +0.000 A 
ATOM      5  C   UNL     1      -1.735  10.329  18.704  0.00  0.00    +0.000 A 
ATOM      6  C   UNL     1      -1.428   9.754  19.935  0.00  0.00    +0.000 A 
ATOM      7  C   UNL     1      -0.363  10.254  20.683  0.00  0.00    +0.000 A 
ATOM      8  C   UNL     1       0.306  11.408  20.253  0.00  0.00    +0.000 A 
ATOM      9  C   UNL     1      -0.055  12.077  19.055  0.00  0.00    +0.000 A 
BRANCH   9  10
ATOM     10  N   UNL     1       0.621  13.247  18.721  0.00  0.00    +0.000 N 
ATOM     11  C   UNL     1       2.058  13.232  18.358  0.00  0.00    +0.000 C 
ATOM     12  C   UNL     1       2.930  14.305  19.103  0.00  0.00    +0.000 C 
ATOM     13  N   UNL     1       2.303  15.634  19.067  0.00  0.00    +0.000 NA
ATOM     14  C   UNL     1       3.144  16.574  19.801  0.00  0.00    +0.000 C 
ATOM     15  C   UNL     1       0.958  15.544  19.692  0.00  0.00    +0.000 C 
ATOM     16  C   UNL     1       0.010  14.570  18.936  0.00  0.00    +0.000 C 
ENDBRANCH   9  10
BRANCH   4  18
ATOM     17  C   UNL     1      -2.544  11.153  16.464  0.00  0.00    +0.000 C 
ATOM     18  O   UNL     1      -1.689  12.035  17.152  0.00  0.00    +0.000 OA
ENDBRANCH   4  18
ENDBRANCH   1   7
BRANCH   1  19
ATOM     19  N   UNL     1       1.621   8.570  21.700  0.00  0.00    +0.000 NA
ATOM     20  H   UNL     1       2.052   8.136  22.518  0.00  0.00    +0.000 HD
BRANCH  19  21
ATOM     21  C   UNL     1       1.404   7.577  20.635  0.00  0.00    +0.000 C 
BRANCH  21  22
ATOM     22  C   UNL     1       2.169   7.980  19.365  0.00  0.00    +0.000 C 
BRANCH  22  23
ATOM     23  C   UNL     1       2.807   6.719  18.689  0.00  0.00    +0.000 A 
ATOM     24  C   UNL     1       3.784   7.008  17.720  0.00  0.00    +0.000 A 
ATOM     25  C   UNL     1       4.357   5.996  17.019  0.00  0.00    +0.000 A 
ATOM     26  C   UNL     1       3.900   4.737  17.312  0.00  0.00    +0.000 A 
ATOM     27  C   UNL     1       2.861   4.411  18.223  0.00  0.00    +0.000 A 
ATOM     28  C   UNL     1       2.192   3.137  18.365  0.00  0.00    +0.000 A 
ATOM     29  C   UNL     1       1.069   2.916  19.215  0.00  0.00    +0.000 A 
ATOM     30  C   UNL     1       1.102   3.398  20.486  0.00  0.00    +0.000 A 
ATOM     31  C   UNL     1       1.491   4.732  20.181  0.00  0.00    +0.000 A 
ATOM     32  C   UNL     1       2.360   5.356  19.122  0.00  0.00    +0.000 A 
BRANCH  28  33
ATOM     33  O   UNL     1       2.629   1.921  17.811  0.00  0.00    +0.000 OA
ATOM     34  C   UNL     1       3.671   1.245  18.478  0.00  0.00    +0.000 C 
ENDBRANCH  28  33
ENDBRANCH  22  23
ENDBRANCH  21  22
ENDBRANCH  19  21
ENDBRANCH   1  19
TORSDOF 8
ENDMDL
MODEL 5
REMARK VINA RESULT:      -7.8      4.581     10.268
REMARK  Name = 
REMARK  11 active torsions:
REMARK  status: ('A' for Active; 'I' for Inactive)
REMARK    1  A    between atoms: C_1  and  O_2
REMARK    2  A    between atoms: O_2  and  C_3
REMARK    3  A    between atoms: C_6  and  S_7
REMARK    4  A    between atoms: S_7  and  N_10
REMARK    5  A    between atoms: N_10  and  C_11
REMARK    6  A    between atoms: C_11  and  C_12
REMARK    7  A    between atoms: C_12  and  C_13
REMARK    8  A    between atoms: C_18  and  O_19
REMARK    9  A    between atoms: O_19  and  C_20
REMARK   10  A    between atoms: C_26  and  N_27
REMARK   11  A    between atoms: N_30  and  C_31
REMARK                            x       y       z     vdW  Elec       q    Type
REMARK                         _______ _______ _______ _____ _____    ______ ____
ROOT
ATOM      1  S   UNL     1       0.502  10.433  18.934  0.00  0.00    +0.000 S 
ATOM      2  O   UNL     1       1.063   9.845  20.128  0.00  0.00    +0.000 OA
ATOM      3  O   UNL     1      -0.821  10.090  18.469  0.00  0.00    +0.000 OA
ENDROOT
BRANCH   1   7
ATOM      4  C   UNL     1       0.492  15.009  19.170  0.00  0.00    +0.000 A 
ATOM      5  C   UNL     1      -0.686  14.259  19.258  0.00  0.00    +0.000 A 
ATOM      6  C   UNL     1      -0.645  12.868  19.315  0.00  0.00    +0.000 A 
ATOM      7  C   UNL     1       0.564  12.206  19.107  0.00  0.00    +0.000 A 
ATOM      8  C   UNL     1       1.747  12.945  18.972  0.00  0.00    +0.000 A 
ATOM      9  C   UNL     1       1.750  14.363  19.016  0.00  0.00    +0.000 A 
BRANCH   9  10
ATOM     10  N   UNL     1       2.970  15.026  18.928  0.00  0.00    +0.000 N 
ATOM     11  C   UNL     1       3.776  14.997  17.684  0.00  0.00    +0.000 C 
ATOM     12  C   UNL     1       5.291  14.642  17.896  0.00  0.00    +0.000 C 
ATOM     13  N   UNL     1       5.884  15.423  18.992  0.00  0.00    +0.000 NA
ATOM     14  C   UNL     1       7.277  15.025  19.158  0.00  0.00    +0.000 C 
ATOM     15  C   UNL     1       5.116  15.157  20.236  0.00  0.00    +0.000 C 
ATOM     16  C   UNL     1       3.624  15.584  20.124  0.00  0.00    +0.000 C 
ENDBRANCH   9  10
BRANCH   4  18
ATOM     17  C   UNL     1      -0.263  17.014  18.211  0.00  0.00    +0.000 C 
ATOM     18  O   UNL     1       0.265  16.359  19.340  0.00  0.00    +0.000 OA
ENDBRANCH   4  18
ENDBRANCH   1   7
BRANCH   1  19
ATOM     19  N   UNL     1       1.585  10.037  17.671  0.00  0.00    +0.000 NA
ATOM     20  H   UNL     1       2.461  10.554  17.766  0.00  0.00    +0.000 HD
BRANCH  19  21
ATOM     21  C   UNL     1       1.833   8.585  17.657  0.00  0.00    +0.000 C 
BRANCH  21  22
ATOM     22  C   UNL     1       3.283   8.287  18.066  0.00  0.00    +0.000 C 
BRANCH  22  23
ATOM     23  C   UNL     1       3.680   6.831  17.646  0.00  0.00    +0.000 A 
ATOM     24  C   UNL     1       4.684   6.760  16.665  0.00  0.00    +0.000 A 
ATOM     25  C   UNL     1       5.062   5.552  16.175  0.00  0.00    +0.000 A 
ATOM     26  C   UNL     1       4.391   4.469  16.680  0.00  0.00    +0.000 A 
ATOM     27  C   UNL     1       3.318   4.504  17.609  0.00  0.00    +0.000 A 
ATOM     28  C   UNL     1       2.433   3.416  17.965  0.00  0.00    +0.000 A 
ATOM     29  C   UNL     1       1.296   3.557  18.812  0.00  0.00    +0.000 A 
ATOM     30  C   UNL     1       1.425   4.250  19.975  0.00  0.00    +0.000 A 
ATOM     31  C   UNL     1       2.043   5.416  19.443  0.00  0.00    +0.000 A 
ATOM     32  C   UNL     1       3.001   5.672  18.309  0.00  0.00    +0.000 A 
BRANCH  28  33
ATOM     33  O   UNL     1       2.642   2.062  17.652  0.00  0.00    +0.000 OA
ATOM     34  C   UNL     1       3.538   1.341  18.467  0.00  0.00    +0.000 C 
ENDBRANCH  28  33
ENDBRANCH  22  23
ENDBRANCH  21  22
ENDBRANCH  19  21
ENDBRANCH   1  19
TORSDOF 8
ENDMDL
MODEL 6
REMARK VINA RESULT:      -7.8      6.940     11.008
REMARK  Name = 
REMARK  11 active torsions:
REMARK  status: ('A' for Active; 'I' for Inactive)
REMARK    1  A    between atoms: C_1  and  O_2
REMARK    2  A    between atoms: O_2  and  C_3
REMARK    3  A    between atoms: C_6  and  S_7
REMARK    4  A    between atoms: S_7  and  N_10
REMARK    5  A    between atoms: N_10  and  C_11
REMARK    6  A    between atoms: C_11  and  C_12
REMARK    7  A    between atoms: C_12  and  C_13
REMARK    8  A    between atoms: C_18  and  O_19
REMARK    9  A    between atoms: O_19  and  C_20
REMARK   10  A    between atoms: C_26  and  N_27
REMARK   11  A    between atoms: N_30  and  C_31
REMARK                            x       y       z     vdW  Elec       q    Type
REMARK                         _______ _______ _______ _____ _____    ______ ____
ROOT
ATOM      1  S   UNL     1      -0.365  10.575  19.002  0.00  0.00    +0.000 S 
ATOM      2  O   UNL     1      -0.239   9.858  17.755  0.00  0.00    +0.000 OA
ATOM      3  O   UNL     1       0.536  11.647  19.354  0.00  0.00    +0.000 OA
ENDROOT
BRANCH   1   7
ATOM      4  C   UNL     1      -4.596  12.335  19.035  0.00  0.00    +0.000 A 
ATOM      5  C   UNL     1      -4.148  11.497  18.007  0.00  0.00    +0.000 A 
ATOM      6  C   UNL     1      -2.907  10.872  18.085  0.00  0.00    +0.000 A 
ATOM      7  C   UNL     1      -2.025  11.215  19.109  0.00  0.00    +0.000 A 
ATOM      8  C   UNL     1      -2.443  12.087  20.122  0.00  0.00    +0.000 A 
ATOM      9  C   UNL     1      -3.742  12.659  20.126  0.00  0.00    +0.000 A 
BRANCH   9  10
ATOM     10  N   UNL     1      -4.103  13.475  21.194  0.00  0.00    +0.000 N 
ATOM     11  C   UNL     1      -4.677  12.908  22.438  0.00  0.00    +0.000 C 
ATOM     12  C   UNL     1      -5.979  13.627  22.942  0.00  0.00    +0.000 C 
ATOM     13  N   UNL     1      -5.824  15.089  22.950  0.00  0.00    +0.000 NA
ATOM     14  C   UNL     1      -7.074  15.695  23.396  0.00  0.00    +0.000 C 
ATOM     15  C   UNL     1      -5.490  15.539  21.574  0.00  0.00    +0.000 C 
ATOM     16  C   UNL     1      -4.152  14.940  21.054  0.00  0.00    +0.000 C 
ENDBRANCH   9  10
BRANCH   4  18
ATOM     17  C   UNL     1      -6.376  12.701  17.551  0.00  0.00    +0.000 C 
ATOM     18  O   UNL     1      -5.920  12.687  18.883  0.00  0.00    +0.000 OA
ENDBRANCH   4  18
ENDBRANCH   1   7
BRANCH   1  19
ATOM     19  N   UNL     1      -0.227   9.394  20.231  0.00  0.00    +0.000 NA
ATOM     20  H   UNL     1      -0.710   8.533  19.966  0.00  0.00    +0.000 HD
BRANCH  19  21
ATOM     21  C   UNL     1       1.193   9.131  20.519  0.00  0.00    +0.000 C 
BRANCH  21  22
ATOM     22  C   UNL     1       1.378   7.690  21.018  0.00  0.00    +0.000 C 
BRANCH  22  23
ATOM     23  C   UNL     1       2.005   6.799  19.893  0.00  0.00    +0.000 A 
ATOM     24  C   UNL     1       2.641   7.518  18.865  0.00  0.00    +0.000 A 
ATOM     25  C   UNL     1       3.161   6.855  17.802  0.00  0.00    +0.000 A 
ATOM     26  C   UNL     1       2.996   5.494  17.812  0.00  0.00    +0.000 A 
ATOM     27  C   UNL     1       2.292   4.740  18.786  0.00  0.00    +0.000 A 
ATOM     28  C   UNL     1       1.888   3.354  18.696  0.00  0.00    +0.000 A 
ATOM     29  C   UNL     1       1.071   2.696  19.661  0.00  0.00    +0.000 A 
ATOM     30  C   UNL     1       1.359   2.854  20.981  0.00  0.00    +0.000 A 
ATOM     31  C   UNL     1       1.444   4.274  20.996  0.00  0.00    +0.000 A 
ATOM     32  C   UNL     1       1.902   5.308  20.002  0.00  0.00    +0.000 A 
BRANCH  28  33
ATOM     33  O   UNL     1       2.348   2.433  17.739  0.00  0.00    +0.000 OA
ATOM     34  C   UNL     1       3.503   1.690  18.060  0.00  0.00    +0.000 C 
ENDBRANCH  28  33
ENDBRANCH  22  23
ENDBRANCH  21  22
ENDBRANCH  19  21
ENDBRANCH   1  19
TORSDOF 8
ENDMDL
MODEL 7
REMARK VINA RESULT:      -7.8      6.915     10.703
REMARK  Name = 
REMARK  11 active torsions:
REMARK  status: ('A' for Active; 'I' for Inactive)
REMARK    1  A    between atoms: C_1  and  O_2
REMARK    2  A    between atoms: O_2  and  C_3
REMARK    3  A    between atoms: C_6  and  S_7
REMARK    4  A    between atoms: S_7  and  N_10
REMARK    5  A    between atoms: N_10  and  C_11
REMARK    6  A    between atoms: C_11  and  C_12
REMARK    7  A    between atoms: C_12  and  C_13
REMARK    8  A    between atoms: C_18  and  O_19
REMARK    9  A    between atoms: O_19  and  C_20
REMARK   10  A    between atoms: C_26  and  N_27
REMARK   11  A    between atoms: N_30  and  C_31
REMARK                            x       y       z     vdW  Elec       q    Type
REMARK                         _______ _______ _______ _____ _____    ______ ____
ROOT
ATOM      1  S   UNL     1       0.453  10.914  19.840  0.00  0.00    +0.000 S 
ATOM      2  O   UNL     1       0.890  10.187  18.671  0.00  0.00    +0.000 OA
ATOM      3  O   UNL     1       1.138  12.101  20.295  0.00  0.00    +0.000 OA
ENDROOT
BRANCH   1   7
ATOM      4  C   UNL     1      -3.894  12.118  19.034  0.00  0.00    +0.000 A 
ATOM      5  C   UNL     1      -3.170  11.314  18.147  0.00  0.00    +0.000 A 
ATOM      6  C   UNL     1      -1.897  10.855  18.475  0.00  0.00    +0.000 A 
ATOM      7  C   UNL     1      -1.264  11.340  19.618  0.00  0.00    +0.000 A 
ATOM      8  C   UNL     1      -1.961  12.182  20.494  0.00  0.00    +0.000 A 
ATOM      9  C   UNL     1      -3.298  12.583  20.239  0.00  0.00    +0.000 A 
BRANCH   9  10
ATOM     10  N   UNL     1      -3.942  13.378  21.181  0.00  0.00    +0.000 N 
ATOM     11  C   UNL     1      -4.013  14.851  21.030  0.00  0.00    +0.000 C 
ATOM     12  C   UNL     1      -3.611  15.660  22.314  0.00  0.00    +0.000 C 
ATOM     13  N   UNL     1      -4.276  15.135  23.516  0.00  0.00    +0.000 NA
ATOM     14  C   UNL     1      -3.838  15.906  24.674  0.00  0.00    +0.000 C 
ATOM     15  C   UNL     1      -3.911  13.704  23.676  0.00  0.00    +0.000 C 
ATOM     16  C   UNL     1      -4.375  12.828  22.477  0.00  0.00    +0.000 C 
ENDBRANCH   9  10
BRANCH   4  18
ATOM     17  C   UNL     1      -5.430  12.075  17.259  0.00  0.00    +0.000 C 
ATOM     18  O   UNL     1      -5.202  12.293  18.632  0.00  0.00    +0.000 OA
ENDBRANCH   4  18
ENDBRANCH   1   7
BRANCH   1  19
ATOM     19  N   UNL     1       0.505   9.792  21.129  0.00  0.00    +0.000 NA
ATOM     20  H   UNL     1      -0.365   9.260  21.186  0.00  0.00    +0.000 HD
BRANCH  19  21
ATOM     21  C   UNL     1       1.660   8.893  20.967  0.00  0.00    +0.000 C 
BRANCH  21  22
ATOM     22  C   UNL     1       1.207   7.426  21.031  0.00  0.00    +0.000 C 
BRANCH  22  23
ATOM     23  C   UNL     1       1.933   6.583  19.929  0.00  0.00    +0.000 A 
ATOM     24  C   UNL     1       2.612   7.346  18.963  0.00  0.00    +0.000 A 
ATOM     25  C   UNL     1       3.221   6.725  17.920  0.00  0.00    +0.000 A 
ATOM     26  C   UNL     1       3.097   5.360  17.888  0.00  0.00    +0.000 A 
ATOM     27  C   UNL     1       2.355   4.561  18.796  0.00  0.00    +0.000 A 
ATOM     28  C   UNL     1       1.999   3.167  18.646  0.00  0.00    +0.000 A 
ATOM     29  C   UNL     1       1.142   2.462  19.540  0.00  0.00    +0.000 A 
ATOM     30  C   UNL     1       1.338   2.594  20.879  0.00  0.00    +0.000 A 
ATOM     31  C   UNL     1       1.379   4.015  20.933  0.00  0.00    +0.000 A 
ATOM     32  C   UNL     1       1.869   5.087  19.997  0.00  0.00    +0.000 A 
BRANCH  28  33
ATOM     33  O   UNL     1       2.549   2.284  17.701  0.00  0.00    +0.000 OA
ATOM     34  C   UNL     1       3.652   1.506  18.108  0.00  0.00    +0.000 C 
ENDBRANCH  28  33
ENDBRANCH  22  23
ENDBRANCH  21  22
ENDBRANCH  19  21
ENDBRANCH   1  19
TORSDOF 8
ENDMDL
MODEL 8
REMARK VINA RESULT:      -7.7      6.792     10.799
REMARK  Name = 
REMARK  11 active torsions:
REMARK  status: ('A' for Active; 'I' for Inactive)
REMARK    1  A    between atoms: C_1  and  O_2
REMARK    2  A    between atoms: O_2  and  C_3
REMARK    3  A    between atoms: C_6  and  S_7
REMARK    4  A    between atoms: S_7  and  N_10
REMARK    5  A    between atoms: N_10  and  C_11
REMARK    6  A    between atoms: C_11  and  C_12
REMARK    7  A    between atoms: C_12  and  C_13
REMARK    8  A    between atoms: C_18  and  O_19
REMARK    9  A    between atoms: O_19  and  C_20
REMARK   10  A    between atoms: C_26  and  N_27
REMARK   11  A    between atoms: N_30  and  C_31
REMARK                            x       y       z     vdW  Elec       q    Type
REMARK                         _______ _______ _______ _____ _____    ______ ____
ROOT
ATOM      1  S   UNL     1      -0.316  11.029  18.794  0.00  0.00    +0.000 S 
ATOM      2  O   UNL     1      -0.335  10.375  17.506  0.00  0.00    +0.000 OA
ATOM      3  O   UNL     1       0.538  12.163  19.057  0.00  0.00    +0.000 OA
ENDROOT
BRANCH   1   7
ATOM      4  C   UNL     1      -4.621  12.388  19.582  0.00  0.00    +0.000 A 
ATOM      5  C   UNL     1      -4.283  11.596  18.479  0.00  0.00    +0.000 A 
ATOM      6  C   UNL     1      -2.995  11.089  18.332  0.00  0.00    +0.000 A 
ATOM      7  C   UNL     1      -1.984  11.512  19.195  0.00  0.00    +0.000 A 
ATOM      8  C   UNL     1      -2.299  12.342  20.279  0.00  0.00    +0.000 A 
ATOM      9  C   UNL     1      -3.625  12.791  20.515  0.00  0.00    +0.000 A 
BRANCH   9  10
ATOM     10  N   UNL     1      -3.869  13.569  21.642  0.00  0.00    +0.000 N 
ATOM     11  C   UNL     1      -3.357  14.956  21.748  0.00  0.00    +0.000 C 
ATOM     12  C   UNL     1      -2.623  15.279  23.099  0.00  0.00    +0.000 C 
ATOM     13  N   UNL     1      -3.400  14.823  24.261  0.00  0.00    +0.000 NA
ATOM     14  C   UNL     1      -2.653  15.123  25.477  0.00  0.00    +0.000 C 
ATOM     15  C   UNL     1      -3.626  13.359  24.138  0.00  0.00    +0.000 C 
ATOM     16  C   UNL     1      -4.439  12.982  22.866  0.00  0.00    +0.000 C 
ENDBRANCH   9  10
BRANCH   4  18
ATOM     17  C   UNL     1      -6.783  11.538  19.248  0.00  0.00    +0.000 C 
ATOM     18  O   UNL     1      -5.978  12.616  19.665  0.00  0.00    +0.000 OA
ENDBRANCH   4  18
ENDBRANCH   1   7
BRANCH   1  19
ATOM     19  N   UNL     1       0.115   9.817  19.921  0.00  0.00    +0.000 NA
ATOM     20  H   UNL     1      -0.630   9.125  20.017  0.00  0.00    +0.000 HD
BRANCH  19  21
ATOM     21  C   UNL     1       1.376   9.175  19.513  0.00  0.00    +0.000 C 
BRANCH  21  22
ATOM     22  C   UNL     1       1.588   7.870  20.294  0.00  0.00    +0.000 C 
BRANCH  22  23
ATOM     23  C   UNL     1       2.278   6.797  19.385  0.00  0.00    +0.000 A 
ATOM     24  C   UNL     1       3.116   7.327  18.388  0.00  0.00    +0.000 A 
ATOM     25  C   UNL     1       3.714   6.495  17.499  0.00  0.00    +0.000 A 
ATOM     26  C   UNL     1       3.421   5.163  17.641  0.00  0.00    +0.000 A 
ATOM     27  C   UNL     1       2.520   4.597  18.580  0.00  0.00    +0.000 A 
ATOM     28  C   UNL     1       2.002   3.246  18.590  0.00  0.00    +0.000 A 
ATOM     29  C   UNL     1       1.000   2.782  19.492  0.00  0.00    +0.000 A 
ATOM     30  C   UNL     1       1.115   3.085  20.812  0.00  0.00    +0.000 A 
ATOM     31  C   UNL     1       1.332   4.484  20.676  0.00  0.00    +0.000 A 
ATOM     32  C   UNL     1       2.020   5.345  19.649  0.00  0.00    +0.000 A 
BRANCH  28  33
ATOM     33  O   UNL     1       2.501   2.177  17.825  0.00  0.00    +0.000 OA
ATOM     34  C   UNL     1       3.616   1.482  18.338  0.00  0.00    +0.000 C 
ENDBRANCH  28  33
ENDBRANCH  22  23
ENDBRANCH  21  22
ENDBRANCH  19  21
ENDBRANCH   1  19
TORSDOF 8
ENDMDL
MODEL 9
REMARK VINA RESULT:      -7.7      6.266     10.784
REMARK  Name = 
REMARK  11 active torsions:
REMARK  status: ('A' for Active; 'I' for Inactive)
REMARK    1  A    between atoms: C_1  and  O_2
REMARK    2  A    between atoms: O_2  and  C_3
REMARK    3  A    between atoms: C_6  and  S_7
REMARK    4  A    between atoms: S_7  and  N_10
REMARK    5  A    between atoms: N_10  and  C_11
REMARK    6  A    between atoms: C_11  and  C_12
REMARK    7  A    between atoms: C_12  and  C_13
REMARK    8  A    between atoms: C_18  and  O_19
REMARK    9  A    between atoms: O_19  and  C_20
REMARK   10  A    between atoms: C_26  and  N_27
REMARK   11  A    between atoms: N_30  and  C_31
REMARK                            x       y       z     vdW  Elec       q    Type
REMARK                         _______ _______ _______ _____ _____    ______ ____
ROOT
ATOM      1  S   UNL     1       0.902   8.416  21.121  0.00  0.00    +0.000 S 
ATOM      2  O   UNL     1      -0.452   8.047  21.460  0.00  0.00    +0.000 OA
ATOM      3  O   UNL     1       1.798   8.994  22.094  0.00  0.00    +0.000 OA
ENDROOT
BRANCH   1   7
ATOM      4  C   UNL     1       3.025   4.647  19.608  0.00  0.00    +0.000 A 
ATOM      5  C   UNL     1       1.909   4.583  20.449  0.00  0.00    +0.000 A 
ATOM      6  C   UNL     1       1.204   5.734  20.790  0.00  0.00    +0.000 A 
ATOM      7  C   UNL     1       1.711   6.984  20.434  0.00  0.00    +0.000 A 
ATOM      8  C   UNL     1       2.854   7.065  19.628  0.00  0.00    +0.000 A 
ATOM      9  C   UNL     1       3.534   5.904  19.178  0.00  0.00    +0.000 A 
BRANCH   9  10
ATOM     10  N   UNL     1       4.631   6.064  18.336  0.00  0.00    +0.000 N 
ATOM     11  C   UNL     1       4.501   6.722  17.015  0.00  0.00    +0.000 C 
ATOM     12  C   UNL     1       5.157   5.934  15.826  0.00  0.00    +0.000 C 
ATOM     13  N   UNL     1       6.519   5.489  16.156  0.00  0.00    +0.000 NA
ATOM     14  C   UNL     1       7.059   4.739  15.027  0.00  0.00    +0.000 C 
ATOM     15  C   UNL     1       6.458   4.631  17.368  0.00  0.00    +0.000 C 
ATOM     16  C   UNL     1       5.910   5.387  18.612  0.00  0.00    +0.000 C 
ENDBRANCH   9  10
BRANCH   4  18
ATOM     17  C   UNL     1       2.517   2.365  19.402  0.00  0.00    +0.000 C 
ATOM     18  O   UNL     1       3.456   3.397  19.216  0.00  0.00    +0.000 OA
ENDBRANCH   4  18
ENDBRANCH   1   7
BRANCH   1  19
ATOM     19  N   UNL     1       0.768   9.547  19.845  0.00  0.00    +0.000 NA
ATOM     20  H   UNL     1       0.957   9.105  18.943  0.00  0.00    +0.000 HD
BRANCH  19  21
ATOM     21  C   UNL     1      -0.570  10.162  19.856  0.00  0.00    +0.000 C 
BRANCH  21  22
ATOM     22  C   UNL     1      -0.705  11.167  18.703  0.00  0.00    +0.000 C 
BRANCH  22  23
ATOM     23  C   UNL     1      -2.076  10.977  17.970  0.00  0.00    +0.000 A 
ATOM     24  C   UNL     1      -2.001  10.243  16.773  0.00  0.00    +0.000 A 
ATOM     25  C   UNL     1      -3.115  10.072  16.017  0.00  0.00    +0.000 A 
ATOM     26  C   UNL     1      -4.254  10.670  16.493  0.00  0.00    +0.000 A 
ATOM     27  C   UNL     1      -4.354  11.484  17.651  0.00  0.00    +0.000 A 
ATOM     28  C   UNL     1      -5.466  12.325  18.035  0.00  0.00    +0.000 A 
ATOM     29  C   UNL     1      -5.447  13.215  19.148  0.00  0.00    +0.000 A 
ATOM     30  C   UNL     1      -4.966  12.766  20.339  0.00  0.00    +0.000 A 
ATOM     31  C   UNL     1      -3.741  12.222  19.864  0.00  0.00    +0.000 A 
ATOM     32  C   UNL     1      -3.317  11.549  18.585  0.00  0.00    +0.000 A 
BRANCH  28  33
ATOM     33  O   UNL     1      -6.751  12.285  17.467  0.00  0.00    +0.000 OA
ATOM     34  C   UNL     1      -7.680  13.254  17.900  0.00  0.00    +0.000 C 
ENDBRANCH  28  33
ENDBRANCH  22  23
ENDBRANCH  21  22
ENDBRANCH  19  21
ENDBRANCH   1  19
TORSDOF 8
ENDMDL
