MODEL 1
REMARK VINA RESULT:      -7.9      0.000      0.000
REMARK  Name = 
REMARK  10 active torsions:
REMARK  status: ('A' for Active; 'I' for Inactive)
REMARK    1  A    between atoms: C_1  and  C_2
REMARK    2  A    between atoms: C_6  and  N_7
REMARK    3  A    between atoms: C_8  and  C_10
REMARK    4  A    between atoms: C_10  and  C_11
REMARK    5  A    between atoms: C_10  and  S_12
REMARK    6  A    between atoms: S_12  and  C_13
REMARK    7  A    between atoms: N_23  and  C_24
REMARK    8  A    between atoms: C_24  and  C_25
REMARK    9  A    between atoms: C_25  and  C_26
REMARK   10  A    between atoms: C_26  and  N_27
REMARK                            x       y       z     vdW  Elec       q    Type
REMARK                         _______ _______ _______ _____ _____    ______ ____
ROOT
ATOM      1  C   UNL     1       3.775   5.961  18.254  0.00  0.00    +0.000 A 
ATOM      2  N   UNL     1       3.828   4.668  18.201  0.00  0.00    +0.000 NA
ATOM      3  C   UNL     1       3.004   3.926  19.048  0.00  0.00    +0.000 A 
ATOM      4  C   UNL     1       3.048   2.531  19.010  0.00  0.00    +0.000 A 
ATOM      5  C   UNL     1       2.118   1.768  19.730  0.00  0.00    +0.000 A 
ATOM      6  C   UNL     1       1.147   2.400  20.505  0.00  0.00    +0.000 A 
ATOM      7  C   UNL     1       1.131   3.789  20.587  0.00  0.00    +0.000 A 
ATOM      8  C   UNL     1       2.062   4.538  19.860  0.00  0.00    +0.000 A 
ATOM      9  C   UNL     1       2.028   6.005  19.886  0.00  0.00    +0.000 A 
ATOM     10  O   UNL     1       1.138   6.508  20.562  0.00  0.00    +0.000 OA
ATOM     11  N   UNL     1       2.969   6.696  19.118  0.00  0.00    +0.000 N 
ENDROOT
BRANCH   1  12
ATOM     12  S   UNL     1       4.784   6.789  17.075  0.00  0.00    +0.000 S 
BRANCH  12  13
ATOM     13  C   UNL     1       6.424   6.078  17.538  0.00  0.00    +0.000 C 
ATOM     14  C   UNL     1       7.415   7.205  17.836  0.00  0.00    +0.000 C 
BRANCH  13  16
ATOM     15  N   UNL     1       6.307   5.543  15.148  0.00  0.00    +0.000 N 
ATOM     16  C   UNL     1       6.943   5.263  16.351  0.00  0.00    +0.000 C 
ATOM     17  O   UNL     1       7.888   4.488  16.495  0.00  0.00    +0.000 OA
ATOM     18  H   UNL     1       5.656   6.321  15.134  0.00  0.00    +0.000 HD
BRANCH  15  24
ATOM     19  C   UNL     1       5.161   2.227  11.673  0.00  0.00    +0.000 C 
ATOM     20  C   UNL     1       6.052   3.320  12.185  0.00  0.00    +0.000 A 
ATOM     21  C   UNL     1       7.108   3.791  11.394  0.00  0.00    +0.000 A 
ATOM     22  C   UNL     1       7.924   4.818  11.859  0.00  0.00    +0.000 A 
ATOM     23  C   UNL     1       7.678   5.395  13.103  0.00  0.00    +0.000 A 
ATOM     24  C   UNL     1       6.618   4.957  13.901  0.00  0.00    +0.000 A 
ATOM     25  C   UNL     1       5.828   3.898  13.443  0.00  0.00    +0.000 A 
ENDBRANCH  15  24
ENDBRANCH  13  16
ENDBRANCH  12  13
ENDBRANCH   1  12
BRANCH  11  26
ATOM     26  C   UNL     1       2.864   8.181  19.062  0.00  0.00    +0.000 C 
BRANCH  26  27
ATOM     27  C   UNL     1       1.754   8.773  18.165  0.00  0.00    +0.000 C 
BRANCH  27  28
ATOM     28  C   UNL     1       1.928  10.272  17.913  0.00  0.00    +0.000 C 
BRANCH  28  29
ATOM     29  N   UNL     1       1.057  11.139  18.700  0.00  0.00    +0.000 NA
ATOM     30  C   UNL     1       1.544  12.472  19.057  0.00  0.00    +0.000 C 
ATOM     31  C   UNL     1       1.731  12.768  20.560  0.00  0.00    +0.000 C 
ATOM     32  O   UNL     1       0.675  12.239  21.366  0.00  0.00    +0.000 OA
ATOM     33  C   UNL     1       0.593  10.826  21.170  0.00  0.00    +0.000 C 
ATOM     34  C   UNL     1       0.214  10.507  19.718  0.00  0.00    +0.000 C 
ENDBRANCH  28  29
ENDBRANCH  27  28
ENDBRANCH  26  27
ENDBRANCH  11  26
TORSDOF 8
ENDMDL
MODEL 2
REMARK VINA RESULT:      -7.7      1.506      1.879
REMARK  Name = 
REMARK  10 active torsions:
REMARK  status: ('A' for Active; 'I' for Inactive)
REMARK    1  A    between atoms: C_1  and  C_2
REMARK    2  A    between atoms: C_6  and  N_7
REMARK    3  A    between atoms: C_8  and  C_10
REMARK    4  A    between atoms: C_10  and  C_11
REMARK    5  A    between atoms: C_10  and  S_12
REMARK    6  A    between atoms: S_12  and  C_13
REMARK    7  A    between atoms: N_23  and  C_24
REMARK    8  A    between atoms: C_24  and  C_25
REMARK    9  A    between atoms: C_25  and  C_26
REMARK   10  A    between atoms: C_26  and  N_27
REMARK                            x       y       z     vdW  Elec       q    Type
REMARK                         _______ _______ _______ _____ _____    ______ ____
ROOT
ATOM      1  C   UNL     1       3.733   6.124  17.961  0.00  0.00    +0.000 A 
ATOM      2  N   UNL     1       3.807   4.836  18.084  0.00  0.00    +0.000 NA
ATOM      3  C   UNL     1       3.065   4.212  19.088  0.00  0.00    +0.000 A 
ATOM      4  C   UNL     1       3.133   2.826  19.239  0.00  0.00    +0.000 A 
ATOM      5  C   UNL     1       2.276   2.163  20.128  0.00  0.00    +0.000 A 
ATOM      6  C   UNL     1       1.355   2.887  20.882  0.00  0.00    +0.000 A 
ATOM      7  C   UNL     1       1.317   4.274  20.772  0.00  0.00    +0.000 A 
ATOM      8  C   UNL     1       2.175   4.923  19.878  0.00  0.00    +0.000 A 
ATOM      9  C   UNL     1       2.114   6.378  19.704  0.00  0.00    +0.000 A 
ATOM     10  O   UNL     1       1.268   6.963  20.371  0.00  0.00    +0.000 OA
ATOM     11  N   UNL     1       2.980   6.964  18.776  0.00  0.00    +0.000 N 
ENDROOT
BRANCH   1  12
ATOM     12  S   UNL     1       4.632   6.788  16.604  0.00  0.00    +0.000 S 
BRANCH  12  13
ATOM     13  C   UNL     1       6.165   5.767  16.736  0.00  0.00    +0.000 C 
ATOM     14  C   UNL     1       7.323   6.628  17.245  0.00  0.00    +0.000 C 
BRANCH  13  16
ATOM     15  N   UNL     1       5.572   4.368  14.813  0.00  0.00    +0.000 N 
ATOM     16  C   UNL     1       6.511   5.244  15.340  0.00  0.00    +0.000 C 
ATOM     17  O   UNL     1       7.516   5.650  14.756  0.00  0.00    +0.000 OA
ATOM     18  H   UNL     1       4.708   4.243  15.329  0.00  0.00    +0.000 HD
BRANCH  15  24
ATOM     19  C   UNL     1       3.269   3.250  10.590  0.00  0.00    +0.000 C 
ATOM     20  C   UNL     1       4.499   3.220  11.448  0.00  0.00    +0.000 A 
ATOM     21  C   UNL     1       5.692   2.688  10.943  0.00  0.00    +0.000 A 
ATOM     22  C   UNL     1       6.840   2.677  11.732  0.00  0.00    +0.000 A 
ATOM     23  C   UNL     1       6.808   3.216  13.016  0.00  0.00    +0.000 A 
ATOM     24  C   UNL     1       5.636   3.772  13.534  0.00  0.00    +0.000 A 
ATOM     25  C   UNL     1       4.479   3.742  12.750  0.00  0.00    +0.000 A 
ENDBRANCH  15  24
ENDBRANCH  13  16
ENDBRANCH  12  13
ENDBRANCH   1  12
BRANCH  11  26
ATOM     26  C   UNL     1       2.842   8.426  18.524  0.00  0.00    +0.000 C 
BRANCH  26  27
ATOM     27  C   UNL     1       1.577   8.891  17.767  0.00  0.00    +0.000 C 
BRANCH  27  28
ATOM     28  C   UNL     1       0.993  10.190  18.326  0.00  0.00    +0.000 C 
BRANCH  28  29
ATOM     29  N   UNL     1      -0.426  10.138  18.663  0.00  0.00    +0.000 NA
ATOM     30  C   UNL     1      -1.401  10.228  17.575  0.00  0.00    +0.000 C 
ATOM     31  C   UNL     1      -2.343  11.451  17.581  0.00  0.00    +0.000 C 
ATOM     32  O   UNL     1      -2.817  11.780  18.890  0.00  0.00    +0.000 OA
ATOM     33  C   UNL     1      -1.702  12.041  19.745  0.00  0.00    +0.000 C 
ATOM     34  C   UNL     1      -0.849  10.775  19.912  0.00  0.00    +0.000 C 
ENDBRANCH  28  29
ENDBRANCH  27  28
ENDBRANCH  26  27
ENDBRANCH  11  26
TORSDOF 8
ENDMDL
MODEL 3
REMARK VINA RESULT:      -7.7      3.847      7.286
REMARK  Name = 
REMARK  10 active torsions:
REMARK  status: ('A' for Active; 'I' for Inactive)
REMARK    1  A    between atoms: C_1  and  C_2
REMARK    2  A    between atoms: C_6  and  N_7
REMARK    3  A    between atoms: C_8  and  C_10
REMARK    4  A    between atoms: C_10  and  C_11
REMARK    5  A    between atoms: C_10  and  S_12
REMARK    6  A    between atoms: S_12  and  C_13
REMARK    7  A    between atoms: N_23  and  C_24
REMARK    8  A    between atoms: C_24  and  C_25
REMARK    9  A    between atoms: C_25  and  C_26
REMARK   10  A    between atoms: C_26  and  N_27
REMARK                            x       y       z     vdW  Elec       q    Type
REMARK                         _______ _______ _______ _____ _____    ______ ____
ROOT
ATOM      1  C   UNL     1      -0.425  10.630  19.247  0.00  0.00    +0.000 A 
ATOM      2  N   UNL     1      -0.741  10.098  18.108  0.00  0.00    +0.000 NA
ATOM      3  C   UNL     1      -1.989  10.384  17.556  0.00  0.00    +0.000 A 
ATOM      4  C   UNL     1      -2.351   9.819  16.331  0.00  0.00    +0.000 A 
ATOM      5  C   UNL     1      -3.526  10.219  15.680  0.00  0.00    +0.000 A 
ATOM      6  C   UNL     1      -4.353  11.179  16.260  0.00  0.00    +0.000 A 
ATOM      7  C   UNL     1      -4.024  11.709  17.504  0.00  0.00    +0.000 A 
ATOM      8  C   UNL     1      -2.846  11.304  18.141  0.00  0.00    +0.000 A 
ATOM      9  C   UNL     1      -2.449  11.891  19.425  0.00  0.00    +0.000 A 
ATOM     10  O   UNL     1      -3.199  12.749  19.877  0.00  0.00    +0.000 OA
ATOM     11  N   UNL     1      -1.249  11.462  19.998  0.00  0.00    +0.000 N 
ENDROOT
BRANCH   1  12
ATOM     12  S   UNL     1       1.207  10.276  19.798  0.00  0.00    +0.000 S 
BRANCH  12  13
ATOM     13  C   UNL     1       0.846   8.824  20.881  0.00  0.00    +0.000 C 
ATOM     14  C   UNL     1       1.363   9.088  22.297  0.00  0.00    +0.000 C 
BRANCH  13  16
ATOM     15  N   UNL     1       2.125   7.817  19.047  0.00  0.00    +0.000 N 
ATOM     16  C   UNL     1       1.575   7.608  20.305  0.00  0.00    +0.000 C 
ATOM     17  O   UNL     1       1.690   6.579  20.973  0.00  0.00    +0.000 OA
ATOM     18  H   UNL     1       2.100   8.761  18.678  0.00  0.00    +0.000 HD
BRANCH  15  24
ATOM     19  C   UNL     1       2.576   3.174  17.426  0.00  0.00    +0.000 C 
ATOM     20  C   UNL     1       3.096   4.579  17.512  0.00  0.00    +0.000 A 
ATOM     21  C   UNL     1       4.250   4.942  16.805  0.00  0.00    +0.000 A 
ATOM     22  C   UNL     1       4.724   6.250  16.868  0.00  0.00    +0.000 A 
ATOM     23  C   UNL     1       4.038   7.204  17.617  0.00  0.00    +0.000 A 
ATOM     24  C   UNL     1       2.874   6.871  18.313  0.00  0.00    +0.000 A 
ATOM     25  C   UNL     1       2.428   5.546  18.276  0.00  0.00    +0.000 A 
ENDBRANCH  15  24
ENDBRANCH  13  16
ENDBRANCH  12  13
ENDBRANCH   1  12
BRANCH  11  26
ATOM     26  C   UNL     1      -0.795  12.137  21.247  0.00  0.00    +0.000 C 
BRANCH  26  27
ATOM     27  C   UNL     1      -1.242  11.508  22.586  0.00  0.00    +0.000 C 
BRANCH  27  28
ATOM     28  C   UNL     1      -2.476  12.189  23.182  0.00  0.00    +0.000 C 
BRANCH  28  29
ATOM     29  N   UNL     1      -2.445  13.648  23.170  0.00  0.00    +0.000 NA
ATOM     30  C   UNL     1      -1.515  14.329  24.072  0.00  0.00    +0.000 C 
ATOM     31  C   UNL     1      -2.133  15.225  25.167  0.00  0.00    +0.000 C 
ATOM     32  O   UNL     1      -3.241  15.996  24.694  0.00  0.00    +0.000 OA
ATOM     33  C   UNL     1      -4.245  15.116  24.182  0.00  0.00    +0.000 C 
ATOM     34  C   UNL     1      -3.714  14.351  22.963  0.00  0.00    +0.000 C 
ENDBRANCH  28  29
ENDBRANCH  27  28
ENDBRANCH  26  27
ENDBRANCH  11  26
TORSDOF 8
ENDMDL
MODEL 4
REMARK VINA RESULT:      -7.6      1.193      1.356
REMARK  Name = 
REMARK  10 active torsions:
REMARK  status: ('A' for Active; 'I' for Inactive)
REMARK    1  A    between atoms: C_1  and  C_2
REMARK    2  A    between atoms: C_6  and  N_7
REMARK    3  A    between atoms: C_8  and  C_10
REMARK    4  A    between atoms: C_10  and  C_11
REMARK    5  A    between atoms: C_10  and  S_12
REMARK    6  A    between atoms: S_12  and  C_13
REMARK    7  A    between atoms: N_23  and  C_24
REMARK    8  A    between atoms: C_24  and  C_25
REMARK    9  A    between atoms: C_25  and  C_26
REMARK   10  A    between atoms: C_26  and  N_27
REMARK                            x       y       z     vdW  Elec       q    Type
REMARK                         _______ _______ _______ _____ _____    ______ ____
ROOT
ATOM      1  C   UNL     1       3.925   5.973  18.530  0.00  0.00    +0.000 A 
ATOM      2  N   UNL     1       4.381   4.806  18.859  0.00  0.00    +0.000 NA
ATOM      3  C   UNL     1       3.722   4.082  19.854  0.00  0.00    +0.000 A 
ATOM      4  C   UNL     1       4.199   2.824  20.226  0.00  0.00    +0.000 A 
ATOM      5  C   UNL     1       3.464   2.012  21.100  0.00  0.00    +0.000 A 
ATOM      6  C   UNL     1       2.252   2.463  21.619  0.00  0.00    +0.000 A 
ATOM      7  C   UNL     1       1.796   3.736  21.291  0.00  0.00    +0.000 A 
ATOM      8  C   UNL     1       2.538   4.535  20.414  0.00  0.00    +0.000 A 
ATOM      9  C   UNL     1       2.049   5.857  20.009  0.00  0.00    +0.000 A 
ATOM     10  O   UNL     1       0.966   6.194  20.474  0.00  0.00    +0.000 OA
ATOM     11  N   UNL     1       2.824   6.595  19.110  0.00  0.00    +0.000 N 
ENDROOT
BRANCH   1  12
ATOM     12  S   UNL     1       4.776   6.749  17.201  0.00  0.00    +0.000 S 
BRANCH  12  13
ATOM     13  C   UNL     1       6.486   6.147  17.553  0.00  0.00    +0.000 C 
ATOM     14  C   UNL     1       7.439   7.336  17.689  0.00  0.00    +0.000 C 
BRANCH  13  16
ATOM     15  N   UNL     1       6.284   5.559  15.181  0.00  0.00    +0.000 N 
ATOM     16  C   UNL     1       6.939   5.282  16.374  0.00  0.00    +0.000 C 
ATOM     17  O   UNL     1       7.854   4.470  16.515  0.00  0.00    +0.000 OA
ATOM     18  H   UNL     1       5.667   6.364  15.163  0.00  0.00    +0.000 HD
BRANCH  15  24
ATOM     19  C   UNL     1       4.727   2.482  11.647  0.00  0.00    +0.000 C 
ATOM     20  C   UNL     1       5.769   3.411  12.197  0.00  0.00    +0.000 A 
ATOM     21  C   UNL     1       6.916   3.699  11.446  0.00  0.00    +0.000 A 
ATOM     22  C   UNL     1       7.875   4.576  11.947  0.00  0.00    +0.000 A 
ATOM     23  C   UNL     1       7.684   5.185  13.185  0.00  0.00    +0.000 A 
ATOM     24  C   UNL     1       6.538   4.930  13.943  0.00  0.00    +0.000 A 
ATOM     25  C   UNL     1       5.600   4.018  13.450  0.00  0.00    +0.000 A 
ENDBRANCH  15  24
ENDBRANCH  13  16
ENDBRANCH  12  13
ENDBRANCH   1  12
BRANCH  11  26
ATOM     26  C   UNL     1       2.274   7.890  18.619  0.00  0.00    +0.000 C 
BRANCH  26  27
ATOM     27  C   UNL     1       1.823   8.912  19.687  0.00  0.00    +0.000 C 
BRANCH  27  28
ATOM     28  C   UNL     1       0.942  10.023  19.113  0.00  0.00    +0.000 C 
BRANCH  28  29
ATOM     29  N   UNL     1      -0.359  10.178  19.755  0.00  0.00    +0.000 NA
ATOM     30  C   UNL     1      -1.384  10.962  19.066  0.00  0.00    +0.000 C 
ATOM     31  C   UNL     1      -1.866  12.251  19.766  0.00  0.00    +0.000 C 
ATOM     32  O   UNL     1      -2.031  12.088  21.177  0.00  0.00    +0.000 OA
ATOM     33  C   UNL     1      -0.790  11.674  21.754  0.00  0.00    +0.000 C 
ATOM     34  C   UNL     1      -0.384  10.295  21.216  0.00  0.00    +0.000 C 
ENDBRANCH  28  29
ENDBRANCH  27  28
ENDBRANCH  26  27
ENDBRANCH  11  26
TORSDOF 8
ENDMDL
MODEL 5
REMARK VINA RESULT:      -7.6      3.753      8.024
REMARK  Name = 
REMARK  10 active torsions:
REMARK  status: ('A' for Active; 'I' for Inactive)
REMARK    1  A    between atoms: C_1  and  C_2
REMARK    2  A    between atoms: C_6  and  N_7
REMARK    3  A    between atoms: C_8  and  C_10
REMARK    4  A    between atoms: C_10  and  C_11
REMARK    5  A    between atoms: C_10  and  S_12
REMARK    6  A    between atoms: S_12  and  C_13
REMARK    7  A    between atoms: N_23  and  C_24
REMARK    8  A    between atoms: C_24  and  C_25
REMARK    9  A    between atoms: C_25  and  C_26
REMARK   10  A    between atoms: C_26  and  N_27
REMARK                            x       y       z     vdW  Elec       q    Type
REMARK                         _______ _______ _______ _____ _____    ______ ____
ROOT
ATOM      1  C   UNL     1       5.988   6.147  16.561  0.00  0.00    +0.000 A 
ATOM      2  N   UNL     1       6.706   6.246  15.487  0.00  0.00    +0.000 NA
ATOM      3  C   UNL     1       6.648   5.220  14.543  0.00  0.00    +0.000 A 
ATOM      4  C   UNL     1       7.417   5.305  13.381  0.00  0.00    +0.000 A 
ATOM      5  C   UNL     1       7.252   4.373  12.347  0.00  0.00    +0.000 A 
ATOM      6  C   UNL     1       6.325   3.341  12.478  0.00  0.00    +0.000 A 
ATOM      7  C   UNL     1       5.592   3.222  13.655  0.00  0.00    +0.000 A 
ATOM      8  C   UNL     1       5.763   4.162  14.677  0.00  0.00    +0.000 A 
ATOM      9  C   UNL     1       4.961   4.090  15.904  0.00  0.00    +0.000 A 
ATOM     10  O   UNL     1       4.143   3.178  15.956  0.00  0.00    +0.000 OA
ATOM     11  N   UNL     1       5.161   5.073  16.877  0.00  0.00    +0.000 N 
ENDROOT
BRANCH   1  12
ATOM     12  S   UNL     1       6.067   7.540  17.632  0.00  0.00    +0.000 S 
BRANCH  12  13
ATOM     13  C   UNL     1       7.895   7.621  17.878  0.00  0.00    +0.000 C 
ATOM     14  C   UNL     1       8.298   6.760  19.077  0.00  0.00    +0.000 C 
BRANCH  13  16
ATOM     15  N   UNL     1       9.118   9.241  19.253  0.00  0.00    +0.000 N 
ATOM     16  C   UNL     1       8.274   9.077  18.163  0.00  0.00    +0.000 C 
ATOM     17  O   UNL     1       7.886   9.977  17.417  0.00  0.00    +0.000 OA
ATOM     18  H   UNL     1       9.494   8.403  19.683  0.00  0.00    +0.000 HD
BRANCH  15  24
ATOM     19  C   UNL     1      12.047  13.121  18.387  0.00  0.00    +0.000 C 
ATOM     20  C   UNL     1      11.087  12.389  19.277  0.00  0.00    +0.000 A 
ATOM     21  C   UNL     1      10.667  12.969  20.481  0.00  0.00    +0.000 A 
ATOM     22  C   UNL     1       9.762  12.299  21.300  0.00  0.00    +0.000 A 
ATOM     23  C   UNL     1       9.254  11.061  20.911  0.00  0.00    +0.000 A 
ATOM     24  C   UNL     1       9.641  10.472  19.705  0.00  0.00    +0.000 A 
ATOM     25  C   UNL     1      10.581  11.134  18.909  0.00  0.00    +0.000 A 
ENDBRANCH  15  24
ENDBRANCH  13  16
ENDBRANCH  12  13
ENDBRANCH   1  12
BRANCH  11  26
ATOM     26  C   UNL     1       4.271   5.059  18.071  0.00  0.00    +0.000 C 
BRANCH  26  27
ATOM     27  C   UNL     1       4.870   4.513  19.387  0.00  0.00    +0.000 C 
BRANCH  27  28
ATOM     28  C   UNL     1       4.614   3.017  19.582  0.00  0.00    +0.000 C 
BRANCH  28  29
ATOM     29  N   UNL     1       3.252   2.666  19.970  0.00  0.00    +0.000 NA
ATOM     30  C   UNL     1       2.336   2.191  18.932  0.00  0.00    +0.000 C 
ATOM     31  C   UNL     1       1.094   3.061  18.645  0.00  0.00    +0.000 C 
ATOM     32  O   UNL     1       0.494   3.582  19.835  0.00  0.00    +0.000 OA
ATOM     33  C   UNL     1       1.458   4.358  20.550  0.00  0.00    +0.000 C 
ATOM     34  C   UNL     1       2.618   3.470  21.019  0.00  0.00    +0.000 C 
ENDBRANCH  28  29
ENDBRANCH  27  28
ENDBRANCH  26  27
ENDBRANCH  11  26
TORSDOF 8
ENDMDL
MODEL 6
REMARK VINA RESULT:      -7.5      4.014      7.475
REMARK  Name = 
REMARK  10 active torsions:
REMARK  status: ('A' for Active; 'I' for Inactive)
REMARK    1  A    between atoms: C_1  and  C_2
REMARK    2  A    between atoms: C_6  and  N_7
REMARK    3  A    between atoms: C_8  and  C_10
REMARK    4  A    between atoms: C_10  and  C_11
REMARK    5  A    between atoms: C_10  and  S_12
REMARK    6  A    between atoms: S_12  and  C_13
REMARK    7  A    between atoms: N_23  and  C_24
REMARK    8  A    between atoms: C_24  and  C_25
REMARK    9  A    between atoms: C_25  and  C_26
REMARK   10  A    between atoms: C_26  and  N_27
REMARK                            x       y       z     vdW  Elec       q    Type
REMARK                         _______ _______ _______ _____ _____    ______ ____
ROOT
ATOM      1  C   UNL     1      -0.389  10.851  19.297  0.00  0.00    +0.000 A 
ATOM      2  N   UNL     1      -0.761  10.254  18.209  0.00  0.00    +0.000 NA
ATOM      3  C   UNL     1      -2.038  10.506  17.706  0.00  0.00    +0.000 A 
ATOM      4  C   UNL     1      -2.460   9.870  16.537  0.00  0.00    +0.000 A 
ATOM      5  C   UNL     1      -3.669  10.230  15.926  0.00  0.00    +0.000 A 
ATOM      6  C   UNL     1      -4.471  11.219  16.493  0.00  0.00    +0.000 A 
ATOM      7  C   UNL     1      -4.080  11.820  17.685  0.00  0.00    +0.000 A 
ATOM      8  C   UNL     1      -2.869  11.455  18.282  0.00  0.00    +0.000 A 
ATOM      9  C   UNL     1      -2.408  12.115  19.509  0.00  0.00    +0.000 A 
ATOM     10  O   UNL     1      -3.139  12.996  19.950  0.00  0.00    +0.000 OA
ATOM     11  N   UNL     1      -1.177  11.723  20.042  0.00  0.00    +0.000 N 
ENDROOT
BRANCH   1  12
ATOM     12  S   UNL     1       1.271  10.533  19.782  0.00  0.00    +0.000 S 
BRANCH  12  13
ATOM     13  C   UNL     1       1.074   8.806  20.401  0.00  0.00    +0.000 C 
ATOM     14  C   UNL     1       1.559   8.712  21.849  0.00  0.00    +0.000 C 
BRANCH  13  16
ATOM     15  N   UNL     1       2.270   6.682  20.137  0.00  0.00    +0.000 N 
ATOM     16  C   UNL     1       1.932   7.885  19.530  0.00  0.00    +0.000 C 
ATOM     17  O   UNL     1       2.214   8.207  18.376  0.00  0.00    +0.000 OA
ATOM     18  H   UNL     1       1.837   6.471  21.029  0.00  0.00    +0.000 HD
BRANCH  15  24
ATOM     19  C   UNL     1       2.296   2.385  17.704  0.00  0.00    +0.000 C 
ATOM     20  C   UNL     1       3.037   3.526  18.337  0.00  0.00    +0.000 A 
ATOM     21  C   UNL     1       4.433   3.588  18.251  0.00  0.00    +0.000 A 
ATOM     22  C   UNL     1       5.121   4.656  18.822  0.00  0.00    +0.000 A 
ATOM     23  C   UNL     1       4.418   5.677  19.459  0.00  0.00    +0.000 A 
ATOM     24  C   UNL     1       3.023   5.648  19.539  0.00  0.00    +0.000 A 
ATOM     25  C   UNL     1       2.345   4.551  18.998  0.00  0.00    +0.000 A 
ENDBRANCH  15  24
ENDBRANCH  13  16
ENDBRANCH  12  13
ENDBRANCH   1  12
BRANCH  11  26
ATOM     26  C   UNL     1      -0.663  12.469  21.225  0.00  0.00    +0.000 C 
BRANCH  26  27
ATOM     27  C   UNL     1      -0.865  11.814  22.610  0.00  0.00    +0.000 C 
BRANCH  27  28
ATOM     28  C   UNL     1      -2.340  11.656  22.984  0.00  0.00    +0.000 C 
BRANCH  28  29
ATOM     29  N   UNL     1      -2.874  12.699  23.854  0.00  0.00    +0.000 NA
ATOM     30  C   UNL     1      -4.237  12.546  24.365  0.00  0.00    +0.000 C 
ATOM     31  C   UNL     1      -5.271  13.605  23.926  0.00  0.00    +0.000 C 
ATOM     32  O   UNL     1      -4.738  14.933  23.922  0.00  0.00    +0.000 OA
ATOM     33  C   UNL     1      -3.608  14.986  23.048  0.00  0.00    +0.000 C 
ATOM     34  C   UNL     1      -2.484  14.083  23.571  0.00  0.00    +0.000 C 
ENDBRANCH  28  29
ENDBRANCH  27  28
ENDBRANCH  26  27
ENDBRANCH  11  26
TORSDOF 8
ENDMDL
MODEL 7
REMARK VINA RESULT:      -7.5      1.303      1.690
REMARK  Name = 
REMARK  10 active torsions:
REMARK  status: ('A' for Active; 'I' for Inactive)
REMARK    1  A    between atoms: C_1  and  C_2
REMARK    2  A    between atoms: C_6  and  N_7
REMARK    3  A    between atoms: C_8  and  C_10
REMARK    4  A    between atoms: C_10  and  C_11
REMARK    5  A    between atoms: C_10  and  S_12
REMARK    6  A    between atoms: S_12  and  C_13
REMARK    7  A    between atoms: N_23  and  C_24
REMARK    8  A    between atoms: C_24  and  C_25
REMARK    9  A    between atoms: C_25  and  C_26
REMARK   10  A    between atoms: C_26  and  N_27
REMARK                            x       y       z     vdW  Elec       q    Type
REMARK                         _______ _______ _______ _____ _____    ______ ____
ROOT
ATOM      1  C   UNL     1       3.768   6.064  18.250  0.00  0.00    +0.000 A 
ATOM      2  N   UNL     1       3.816   4.770  18.290  0.00  0.00    +0.000 NA
ATOM      3  C   UNL     1       3.017   4.096  19.214  0.00  0.00    +0.000 A 
ATOM      4  C   UNL     1       3.056   2.702  19.277  0.00  0.00    +0.000 A 
ATOM      5  C   UNL     1       2.147   1.998  20.078  0.00  0.00    +0.000 A 
ATOM      6  C   UNL     1       1.202   2.688  20.835  0.00  0.00    +0.000 A 
ATOM      7  C   UNL     1       1.191   4.080  20.815  0.00  0.00    +0.000 A 
ATOM      8  C   UNL     1       2.101   4.770  20.008  0.00  0.00    +0.000 A 
ATOM      9  C   UNL     1       2.072   6.234  19.927  0.00  0.00    +0.000 A 
ATOM     10  O   UNL     1       1.204   6.790  20.592  0.00  0.00    +0.000 OA
ATOM     11  N   UNL     1       2.991   6.863  19.083  0.00  0.00    +0.000 N 
ENDROOT
BRANCH   1  12
ATOM     12  S   UNL     1       4.742   6.799  16.983  0.00  0.00    +0.000 S 
BRANCH  12  13
ATOM     13  C   UNL     1       6.398   6.137  17.461  0.00  0.00    +0.000 C 
ATOM     14  C   UNL     1       7.367   7.292  17.719  0.00  0.00    +0.000 C 
BRANCH  13  16
ATOM     15  N   UNL     1       6.318   5.560  15.080  0.00  0.00    +0.000 N 
ATOM     16  C   UNL     1       6.928   5.294  16.299  0.00  0.00    +0.000 C 
ATOM     17  O   UNL     1       7.861   4.510  16.474  0.00  0.00    +0.000 OA
ATOM     18  H   UNL     1       5.677   6.346  15.040  0.00  0.00    +0.000 HD
BRANCH  15  24
ATOM     19  C   UNL     1       5.218   2.170  11.662  0.00  0.00    +0.000 C 
ATOM     20  C   UNL     1       6.102   3.275  12.161  0.00  0.00    +0.000 A 
ATOM     21  C   UNL     1       7.166   3.730  11.373  0.00  0.00    +0.000 A 
ATOM     22  C   UNL     1       7.976   4.768  11.827  0.00  0.00    +0.000 A 
ATOM     23  C   UNL     1       7.714   5.370  13.055  0.00  0.00    +0.000 A 
ATOM     24  C   UNL     1       6.645   4.948  13.850  0.00  0.00    +0.000 A 
ATOM     25  C   UNL     1       5.862   3.879  13.404  0.00  0.00    +0.000 A 
ENDBRANCH  15  24
ENDBRANCH  13  16
ENDBRANCH  12  13
ENDBRANCH   1  12
BRANCH  11  26
ATOM     26  C   UNL     1       2.887   8.341  18.922  0.00  0.00    +0.000 C 
BRANCH  26  27
ATOM     27  C   UNL     1       1.521   8.904  18.471  0.00  0.00    +0.000 C 
BRANCH  27  28
ATOM     28  C   UNL     1       1.119  10.170  19.231  0.00  0.00    +0.000 C 
BRANCH  28  29
ATOM     29  N   UNL     1      -0.302  10.497  19.184  0.00  0.00    +0.000 NA
ATOM     30  C   UNL     1      -1.163   9.723  18.288  0.00  0.00    +0.000 C 
ATOM     31  C   UNL     1      -1.845  10.493  17.137  0.00  0.00    +0.000 C 
ATOM     32  O   UNL     1      -2.334  11.775  17.540  0.00  0.00    +0.000 OA
ATOM     33  C   UNL     1      -1.251  12.555  18.052  0.00  0.00    +0.000 C 
ATOM     34  C   UNL     1      -0.678  11.907  19.319  0.00  0.00    +0.000 C 
ENDBRANCH  28  29
ENDBRANCH  27  28
ENDBRANCH  26  27
ENDBRANCH  11  26
TORSDOF 8
ENDMDL
MODEL 8
REMARK VINA RESULT:      -7.4      1.251      1.667
REMARK  Name = 
REMARK  10 active torsions:
REMARK  status: ('A' for Active; 'I' for Inactive)
REMARK    1  A    between atoms: C_1  and  C_2
REMARK    2  A    between atoms: C_6  and  N_7
REMARK    3  A    between atoms: C_8  and  C_10
REMARK    4  A    between atoms: C_10  and  C_11
REMARK    5  A    between atoms: C_10  and  S_12
REMARK    6  A    between atoms: S_12  and  C_13
REMARK    7  A    between atoms: N_23  and  C_24
REMARK    8  A    between atoms: C_24  and  C_25
REMARK    9  A    between atoms: C_25  and  C_26
REMARK   10  A    between atoms: C_26  and  N_27
REMARK                            x       y       z     vdW  Elec       q    Type
REMARK                         _______ _______ _______ _____ _____    ______ ____
ROOT
ATOM      1  C   UNL     1       3.710   6.146  18.647  0.00  0.00    +0.000 A 
ATOM      2  N   UNL     1       3.967   4.957  18.201  0.00  0.00    +0.000 NA
ATOM      3  C   UNL     1       3.195   3.887  18.656  0.00  0.00    +0.000 A 
ATOM      4  C   UNL     1       3.458   2.597  18.191  0.00  0.00    +0.000 A 
ATOM      5  C   UNL     1       2.596   1.537  18.505  0.00  0.00    +0.000 A 
ATOM      6  C   UNL     1       1.474   1.761  19.300  0.00  0.00    +0.000 A 
ATOM      7  C   UNL     1       1.235   3.034  19.807  0.00  0.00    +0.000 A 
ATOM      8  C   UNL     1       2.100   4.084  19.483  0.00  0.00    +0.000 A 
ATOM      9  C   UNL     1       1.837   5.447  19.960  0.00  0.00    +0.000 A 
ATOM     10  O   UNL     1       0.823   5.593  20.632  0.00  0.00    +0.000 OA
ATOM     11  N   UNL     1       2.726   6.457  19.580  0.00  0.00    +0.000 N 
ENDROOT
BRANCH   1  12
ATOM     12  S   UNL     1       4.681   7.427  17.932  0.00  0.00    +0.000 S 
BRANCH  12  13
ATOM     13  C   UNL     1       6.139   6.429  17.395  0.00  0.00    +0.000 C 
ATOM     14  C   UNL     1       7.431   7.194  17.689  0.00  0.00    +0.000 C 
BRANCH  13  16
ATOM     15  N   UNL     1       6.963   5.305  15.378  0.00  0.00    +0.000 N 
ATOM     16  C   UNL     1       6.030   6.200  15.886  0.00  0.00    +0.000 C 
ATOM     17  O   UNL     1       5.132   6.739  15.238  0.00  0.00    +0.000 OA
ATOM     18  H   UNL     1       7.542   4.806  16.045  0.00  0.00    +0.000 HD
BRANCH  15  24
ATOM     19  C   UNL     1       5.323   2.360  11.770  0.00  0.00    +0.000 C 
ATOM     20  C   UNL     1       6.245   3.443  12.247  0.00  0.00    +0.000 A 
ATOM     21  C   UNL     1       7.107   4.076  11.344  0.00  0.00    +0.000 A 
ATOM     22  C   UNL     1       7.951   5.095  11.781  0.00  0.00    +0.000 A 
ATOM     23  C   UNL     1       7.922   5.499  13.114  0.00  0.00    +0.000 A 
ATOM     24  C   UNL     1       7.056   4.896  14.030  0.00  0.00    +0.000 A 
ATOM     25  C   UNL     1       6.241   3.848  13.590  0.00  0.00    +0.000 A 
ENDBRANCH  15  24
ENDBRANCH  13  16
ENDBRANCH  12  13
ENDBRANCH   1  12
BRANCH  11  26
ATOM     26  C   UNL     1       2.398   7.855  19.976  0.00  0.00    +0.000 C 
BRANCH  26  27
ATOM     27  C   UNL     1       1.532   8.678  18.995  0.00  0.00    +0.000 C 
BRANCH  27  28
ATOM     28  C   UNL     1       0.363   9.385  19.682  0.00  0.00    +0.000 C 
BRANCH  28  29
ATOM     29  N   UNL     1       0.686  10.026  20.953  0.00  0.00    +0.000 NA
ATOM     30  C   UNL     1       0.149   9.439  22.182  0.00  0.00    +0.000 C 
ATOM     31  C   UNL     1      -0.833  10.305  22.999  0.00  0.00    +0.000 C 
ATOM     32  O   UNL     1      -0.438  11.678  23.069  0.00  0.00    +0.000 OA
ATOM     33  C   UNL     1      -0.331  12.207  21.745  0.00  0.00    +0.000 C 
ATOM     34  C   UNL     1       0.781  11.488  20.970  0.00  0.00    +0.000 C 
ENDBRANCH  28  29
ENDBRANCH  27  28
ENDBRANCH  26  27
ENDBRANCH  11  26
TORSDOF 8
ENDMDL
MODEL 9
REMARK VINA RESULT:      -7.4      4.286      8.023
REMARK  Name = 
REMARK  10 active torsions:
REMARK  status: ('A' for Active; 'I' for Inactive)
REMARK    1  A    between atoms: C_1  and  C_2
REMARK    2  A    between atoms: C_6  and  N_7
REMARK    3  A    between atoms: C_8  and  C_10
REMARK    4  A    between atoms: C_10  and  C_11
REMARK    5  A    between atoms: C_10  and  S_12
REMARK    6  A    between atoms: S_12  and  C_13
REMARK    7  A    between atoms: N_23  and  C_24
REMARK    8  A    between atoms: C_24  and  C_25
REMARK    9  A    between atoms: C_25  and  C_26
REMARK   10  A    between atoms: C_26  and  N_27
REMARK                            x       y       z     vdW  Elec       q    Type
REMARK                         _______ _______ _______ _____ _____    ______ ____
ROOT
ATOM      1  C   UNL     1      -0.569  10.802  19.272  0.00  0.00    +0.000 A 
ATOM      2  N   UNL     1      -0.803  10.218  18.140  0.00  0.00    +0.000 NA
ATOM      3  C   UNL     1      -2.041  10.412  17.526  0.00  0.00    +0.000 A 
ATOM      4  C   UNL     1      -2.315   9.788  16.307  0.00  0.00    +0.000 A 
ATOM      5  C   UNL     1      -3.482  10.098  15.595  0.00  0.00    +0.000 A 
ATOM      6  C   UNL     1      -4.389  11.024  16.107  0.00  0.00    +0.000 A 
ATOM      7  C   UNL     1      -4.145  11.611  17.345  0.00  0.00    +0.000 A 
ATOM      8  C   UNL     1      -2.974  11.297  18.044  0.00  0.00    +0.000 A 
ATOM      9  C   UNL     1      -2.669  11.946  19.323  0.00  0.00    +0.000 A 
ATOM     10  O   UNL     1      -3.486  12.771  19.714  0.00  0.00    +0.000 OA
ATOM     11  N   UNL     1      -1.471  11.608  19.960  0.00  0.00    +0.000 N 
ENDROOT
BRANCH   1  12
ATOM     12  S   UNL     1       1.056  10.564  19.902  0.00  0.00    +0.000 S 
BRANCH  12  13
ATOM     13  C   UNL     1       0.767   9.033  20.894  0.00  0.00    +0.000 C 
ATOM     14  C   UNL     1       1.363   9.198  22.293  0.00  0.00    +0.000 C 
BRANCH  13  16
ATOM     15  N   UNL     1       1.466   6.684  20.913  0.00  0.00    +0.000 N 
ATOM     16  C   UNL     1       1.468   7.869  20.190  0.00  0.00    +0.000 C 
ATOM     17  O   UNL     1       1.920   8.012  19.053  0.00  0.00    +0.000 OA
ATOM     18  H   UNL     1       0.917   6.657  21.765  0.00  0.00    +0.000 HD
BRANCH  15  24
ATOM     19  C   UNL     1       5.320   4.259  19.001  0.00  0.00    +0.000 C 
ATOM     20  C   UNL     1       3.917   4.260  19.533  0.00  0.00    +0.000 A 
ATOM     21  C   UNL     1       3.218   3.053  19.665  0.00  0.00    +0.000 A 
ATOM     22  C   UNL     1       1.923   3.050  20.177  0.00  0.00    +0.000 A 
ATOM     23  C   UNL     1       1.329   4.244  20.579  0.00  0.00    +0.000 A 
ATOM     24  C   UNL     1       2.014   5.457  20.477  0.00  0.00    +0.000 A 
ATOM     25  C   UNL     1       3.299   5.456  19.925  0.00  0.00    +0.000 A 
ENDBRANCH  15  24
ENDBRANCH  13  16
ENDBRANCH  12  13
ENDBRANCH   1  12
BRANCH  11  26
ATOM     26  C   UNL     1      -1.113  12.346  21.203  0.00  0.00    +0.000 C 
BRANCH  26  27
ATOM     27  C   UNL     1      -1.972  12.068  22.457  0.00  0.00    +0.000 C 
BRANCH  27  28
ATOM     28  C   UNL     1      -1.812  13.138  23.538  0.00  0.00    +0.000 C 
BRANCH  28  29
ATOM     29  N   UNL     1      -3.059  13.709  24.036  0.00  0.00    +0.000 NA
ATOM     30  C   UNL     1      -4.004  12.823  24.718  0.00  0.00    +0.000 C 
ATOM     31  C   UNL     1      -5.382  12.625  24.052  0.00  0.00    +0.000 C 
ATOM     32  O   UNL     1      -5.919  13.839  23.518  0.00  0.00    +0.000 OA
ATOM     33  C   UNL     1      -5.006  14.379  22.560  0.00  0.00    +0.000 C 
ATOM     34  C   UNL     1      -3.686  14.767  23.240  0.00  0.00    +0.000 C 
ENDBRANCH  28  29
ENDBRANCH  27  28
ENDBRANCH  26  27
ENDBRANCH  11  26
TORSDOF 8
ENDMDL
