MODEL 1
REMARK VINA RESULT:      -6.5      0.000      0.000
REMARK  Name = 
REMARK  5 active torsions:
REMARK  status: ('A' for Active; 'I' for Inactive)
REMARK    1  A    between atoms: C_1  and  N_2
REMARK    2  A    between atoms: N_2  and  C_3
REMARK    3  A    between atoms: C_3  and  C_4
REMARK    4  A    between atoms: C_10  and  C_12
REMARK    5  A    between atoms: C_17  and  N_18
REMARK                            x       y       z     vdW  Elec       q    Type
REMARK                         _______ _______ _______ _____ _____    ______ ____
ROOT
ATOM      1  C   UNL     1       4.803   4.283  16.201  0.00  0.00    +0.000 C 
ATOM      2  N   UNL     1       4.213   4.332  17.527  0.00  0.00    +0.000 N 
ATOM      3  C   UNL     1       3.577   3.161  17.979  0.00  0.00    +0.000 C 
ATOM      4  O   UNL     1       3.508   2.151  17.270  0.00  0.00    +0.000 OA
ENDROOT
BRANCH   3   5
ATOM      5  C   UNL     1       2.970   3.102  19.343  0.00  0.00    +0.000 A 
ATOM      6  N   UNL     1       1.703   3.593  19.481  0.00  0.00    +0.000 NA
ATOM      7  C   UNL     1       1.166   3.457  20.711  0.00  0.00    +0.000 A 
ATOM      8  C   UNL     1       1.836   2.832  21.747  0.00  0.00    +0.000 A 
ATOM      9  N   UNL     1       3.085   2.326  21.610  0.00  0.00    +0.000 NA
ATOM     10  C   UNL     1       3.656   2.462  20.391  0.00  0.00    +0.000 A 
BRANCH  10  11
ATOM     11  N   UNL     1       4.978   2.022  20.306  0.00  0.00    +0.000 N 
ATOM     12  H   UNL     1       5.480   2.343  21.129  0.00  0.00    +0.000 HD
ATOM     13  H   UNL     1       5.024   1.014  20.158  0.00  0.00    +0.000 HD
ENDBRANCH  10  11
ENDBRANCH   3   5
BRANCH   2  14
ATOM     14  C   UNL     1       4.653   5.406  18.422  0.00  0.00    +0.000 C 
BRANCH  14  15
ATOM     15  C   UNL     1       3.629   6.483  18.510  0.00  0.00    +0.000 A 
ATOM     16  C   UNL     1       3.160   7.440  17.632  0.00  0.00    +0.000 A 
ATOM     17  C   UNL     1       2.203   8.204  18.341  0.00  0.00    +0.000 A 
ATOM     18  C   UNL     1       2.140   7.660  19.604  0.00  0.00    +0.000 A 
ATOM     19 BR   UNL     1       1.043   8.273  20.982  0.00  0.00    +0.000 Br
ATOM     20  O   UNL     1       2.998   6.610  19.712  0.00  0.00    +0.000 OA
ENDBRANCH  14  15
ENDBRANCH   2  14
TORSDOF 4
ENDMDL
MODEL 2
REMARK VINA RESULT:      -6.5      3.508      5.857
REMARK  Name = 
REMARK  5 active torsions:
REMARK  status: ('A' for Active; 'I' for Inactive)
REMARK    1  A    between atoms: C_1  and  N_2
REMARK    2  A    between atoms: N_2  and  C_3
REMARK    3  A    between atoms: C_3  and  C_4
REMARK    4  A    between atoms: C_10  and  C_12
REMARK    5  A    between atoms: C_17  and  N_18
REMARK                            x       y       z     vdW  Elec       q    Type
REMARK                         _______ _______ _______ _____ _____    ______ ____
ROOT
ATOM      1  C   UNL     1       6.773   5.987  18.731  0.00  0.00    +0.000 C 
ATOM      2  N   UNL     1       6.571   5.900  17.295  0.00  0.00    +0.000 N 
ATOM      3  C   UNL     1       7.336   4.939  16.608  0.00  0.00    +0.000 C 
ATOM      4  O   UNL     1       8.152   4.223  17.198  0.00  0.00    +0.000 OA
ENDROOT
BRANCH   3   5
ATOM      5  C   UNL     1       7.175   4.751  15.135  0.00  0.00    +0.000 A 
ATOM      6  N   UNL     1       7.937   5.539  14.321  0.00  0.00    +0.000 NA
ATOM      7  C   UNL     1       7.813   5.288  13.000  0.00  0.00    +0.000 A 
ATOM      8  C   UNL     1       7.001   4.282  12.511  0.00  0.00    +0.000 A 
ATOM      9  N   UNL     1       6.259   3.484  13.314  0.00  0.00    +0.000 NA
ATOM     10  C   UNL     1       6.350   3.722  14.643  0.00  0.00    +0.000 A 
BRANCH  10  11
ATOM     11  N   UNL     1       5.499   2.954  15.440  0.00  0.00    +0.000 N 
ATOM     12  H   UNL     1       6.062   2.420  16.095  0.00  0.00    +0.000 HD
ATOM     13  H   UNL     1       4.784   3.531  15.882  0.00  0.00    +0.000 HD
ENDBRANCH  10  11
ENDBRANCH   3   5
BRANCH   2  14
ATOM     14  C   UNL     1       5.353   6.503  16.748  0.00  0.00    +0.000 C 
BRANCH  14  15
ATOM     15  C   UNL     1       4.146   6.024  17.475  0.00  0.00    +0.000 A 
ATOM     16  C   UNL     1       3.253   6.609  18.350  0.00  0.00    +0.000 A 
ATOM     17  C   UNL     1       2.338   5.598  18.728  0.00  0.00    +0.000 A 
ATOM     18  C   UNL     1       2.722   4.461  18.054  0.00  0.00    +0.000 A 
ATOM     19 BR   UNL     1       1.877   2.804  18.177  0.00  0.00    +0.000 Br
ATOM     20  O   UNL     1       3.816   4.714  17.285  0.00  0.00    +0.000 OA
ENDBRANCH  14  15
ENDBRANCH   2  14
TORSDOF 4
ENDMDL
MODEL 3
REMARK VINA RESULT:      -6.3      2.265      4.243
REMARK  Name = 
REMARK  5 active torsions:
REMARK  status: ('A' for Active; 'I' for Inactive)
REMARK    1  A    between atoms: C_1  and  N_2
REMARK    2  A    between atoms: N_2  and  C_3
REMARK    3  A    between atoms: C_3  and  C_4
REMARK    4  A    between atoms: C_10  and  C_12
REMARK    5  A    between atoms: C_17  and  N_18
REMARK                            x       y       z     vdW  Elec       q    Type
REMARK                         _______ _______ _______ _____ _____    ______ ____
ROOT
ATOM      1  C   UNL     1       2.044   4.106  18.297  0.00  0.00    +0.000 C 
ATOM      2  N   UNL     1       3.254   4.830  18.643  0.00  0.00    +0.000 N 
ATOM      3  C   UNL     1       4.325   4.740  17.734  0.00  0.00    +0.000 C 
ATOM      4  O   UNL     1       4.242   4.059  16.706  0.00  0.00    +0.000 OA
ENDROOT
BRANCH   3   5
ATOM      5  C   UNL     1       5.600   5.478  17.985  0.00  0.00    +0.000 A 
ATOM      6  N   UNL     1       6.305   5.137  19.104  0.00  0.00    +0.000 NA
ATOM      7  C   UNL     1       7.484   5.776  19.255  0.00  0.00    +0.000 A 
ATOM      8  C   UNL     1       7.959   6.683  18.326  0.00  0.00    +0.000 A 
ATOM      9  N   UNL     1       7.274   7.009  17.204  0.00  0.00    +0.000 NA
ATOM     10  C   UNL     1       6.080   6.396  17.033  0.00  0.00    +0.000 A 
BRANCH  10  11
ATOM     11  N   UNL     1       5.350   6.825  15.923  0.00  0.00    +0.000 N 
ATOM     12  H   UNL     1       4.908   6.018  15.494  0.00  0.00    +0.000 HD
ATOM     13  H   UNL     1       4.702   7.571  16.173  0.00  0.00    +0.000 HD
ENDBRANCH  10  11
ENDBRANCH   3   5
BRANCH   2  14
ATOM     14  C   UNL     1       3.143   5.884  19.655  0.00  0.00    +0.000 C 
BRANCH  14  15
ATOM     15  C   UNL     1       2.524   7.111  19.086  0.00  0.00    +0.000 A 
ATOM     16  C   UNL     1       2.486   7.675  17.826  0.00  0.00    +0.000 A 
ATOM     17  C   UNL     1       1.762   8.885  17.947  0.00  0.00    +0.000 A 
ATOM     18  C   UNL     1       1.395   8.980  19.270  0.00  0.00    +0.000 A 
ATOM     19 BR   UNL     1       0.422  10.386  20.015  0.00  0.00    +0.000 Br
ATOM     20  O   UNL     1       1.847   7.903  19.967  0.00  0.00    +0.000 OA
ENDBRANCH  14  15
ENDBRANCH   2  14
TORSDOF 4
ENDMDL
MODEL 4
REMARK VINA RESULT:      -6.3      2.505      3.035
REMARK  Name = 
REMARK  5 active torsions:
REMARK  status: ('A' for Active; 'I' for Inactive)
REMARK    1  A    between atoms: C_1  and  N_2
REMARK    2  A    between atoms: N_2  and  C_3
REMARK    3  A    between atoms: C_3  and  C_4
REMARK    4  A    between atoms: C_10  and  C_12
REMARK    5  A    between atoms: C_17  and  N_18
REMARK                            x       y       z     vdW  Elec       q    Type
REMARK                         _______ _______ _______ _____ _____    ______ ____
ROOT
ATOM      1  C   UNL     1       4.928   3.867  15.809  0.00  0.00    +0.000 C 
ATOM      2  N   UNL     1       4.162   4.090  17.023  0.00  0.00    +0.000 N 
ATOM      3  C   UNL     1       3.776   2.945  17.745  0.00  0.00    +0.000 C 
ATOM      4  O   UNL     1       4.059   1.809  17.350  0.00  0.00    +0.000 OA
ENDROOT
BRANCH   3   5
ATOM      5  C   UNL     1       3.016   3.073  19.024  0.00  0.00    +0.000 A 
ATOM      6  N   UNL     1       1.760   3.605  18.950  0.00  0.00    +0.000 NA
ATOM      7  C   UNL     1       1.081   3.638  20.115  0.00  0.00    +0.000 A 
ATOM      8  C   UNL     1       1.605   3.135  21.292  0.00  0.00    +0.000 A 
ATOM      9  N   UNL     1       2.842   2.588  21.368  0.00  0.00    +0.000 NA
ATOM     10  C   UNL     1       3.553   2.556  20.217  0.00  0.00    +0.000 A 
BRANCH  10  11
ATOM     11  N   UNL     1       4.860   2.080  20.344  0.00  0.00    +0.000 N 
ATOM     12  H   UNL     1       5.495   2.768  19.952  0.00  0.00    +0.000 HD
ATOM     13  H   UNL     1       5.067   1.824  21.309  0.00  0.00    +0.000 HD
ENDBRANCH  10  11
ENDBRANCH   3   5
BRANCH   2  14
ATOM     14  C   UNL     1       4.194   5.435  17.602  0.00  0.00    +0.000 C 
BRANCH  14  15
ATOM     15  C   UNL     1       5.582   5.825  17.974  0.00  0.00    +0.000 A 
ATOM     16  C   UNL     1       6.593   5.219  18.693  0.00  0.00    +0.000 A 
ATOM     17  C   UNL     1       7.669   6.137  18.728  0.00  0.00    +0.000 A 
ATOM     18  C   UNL     1       7.254   7.241  18.019  0.00  0.00    +0.000 A 
ATOM     19 BR   UNL     1       8.268   8.781  17.740  0.00  0.00    +0.000 Br
ATOM     20  O   UNL     1       5.989   7.057  17.552  0.00  0.00    +0.000 OA
ENDBRANCH  14  15
ENDBRANCH   2  14
TORSDOF 4
ENDMDL
MODEL 5
REMARK VINA RESULT:      -6.2      3.754      5.097
REMARK  Name = 
REMARK  5 active torsions:
REMARK  status: ('A' for Active; 'I' for Inactive)
REMARK    1  A    between atoms: C_1  and  N_2
REMARK    2  A    between atoms: N_2  and  C_3
REMARK    3  A    between atoms: C_3  and  C_4
REMARK    4  A    between atoms: C_10  and  C_12
REMARK    5  A    between atoms: C_17  and  N_18
REMARK                            x       y       z     vdW  Elec       q    Type
REMARK                         _______ _______ _______ _____ _____    ______ ____
ROOT
ATOM      1  C   UNL     1       7.615   4.794  17.661  0.00  0.00    +0.000 C 
ATOM      2  N   UNL     1       6.194   4.729  17.370  0.00  0.00    +0.000 N 
ATOM      3  C   UNL     1       5.364   4.222  18.388  0.00  0.00    +0.000 C 
ATOM      4  O   UNL     1       5.829   3.834  19.465  0.00  0.00    +0.000 OA
ENDROOT
BRANCH   3   5
ATOM      5  C   UNL     1       3.885   4.147  18.196  0.00  0.00    +0.000 A 
ATOM      6  N   UNL     1       3.192   5.324  18.240  0.00  0.00    +0.000 NA
ATOM      7  C   UNL     1       1.870   5.221  17.991  0.00  0.00    +0.000 A 
ATOM      8  C   UNL     1       1.267   4.016  17.678  0.00  0.00    +0.000 A 
ATOM      9  N   UNL     1       1.952   2.850  17.613  0.00  0.00    +0.000 NA
ATOM     10  C   UNL     1       3.279   2.919  17.874  0.00  0.00    +0.000 A 
BRANCH  10  11
ATOM     11  N   UNL     1       3.940   1.690  17.899  0.00  0.00    +0.000 N 
ATOM     12  H   UNL     1       3.259   0.959  18.074  0.00  0.00    +0.000 HD
ATOM     13  H   UNL     1       4.493   1.550  17.054  0.00  0.00    +0.000 HD
ENDBRANCH  10  11
ENDBRANCH   3   5
BRANCH   2  14
ATOM     14  C   UNL     1       5.697   5.534  16.251  0.00  0.00    +0.000 C 
BRANCH  14  15
ATOM     15  C   UNL     1       6.101   4.944  14.946  0.00  0.00    +0.000 A 
ATOM     16  C   UNL     1       7.290   4.873  14.248  0.00  0.00    +0.000 A 
ATOM     17  C   UNL     1       7.004   4.209  13.031  0.00  0.00    +0.000 A 
ATOM     18  C   UNL     1       5.662   3.907  13.066  0.00  0.00    +0.000 A 
ATOM     19 BR   UNL     1       4.724   3.032  11.713  0.00  0.00    +0.000 Br
ATOM     20  O   UNL     1       5.108   4.343  14.230  0.00  0.00    +0.000 OA
ENDBRANCH  14  15
ENDBRANCH   2  14
TORSDOF 4
ENDMDL
MODEL 6
REMARK VINA RESULT:      -6.2      3.190      3.803
REMARK  Name = 
REMARK  5 active torsions:
REMARK  status: ('A' for Active; 'I' for Inactive)
REMARK    1  A    between atoms: C_1  and  N_2
REMARK    2  A    between atoms: N_2  and  C_3
REMARK    3  A    between atoms: C_3  and  C_4
REMARK    4  A    between atoms: C_10  and  C_12
REMARK    5  A    between atoms: C_17  and  N_18
REMARK                            x       y       z     vdW  Elec       q    Type
REMARK                         _______ _______ _______ _____ _____    ______ ____
ROOT
ATOM      1  C   UNL     1       6.409   5.081  14.879  0.00  0.00    +0.000 C 
ATOM      2  N   UNL     1       5.381   5.208  15.896  0.00  0.00    +0.000 N 
ATOM      3  C   UNL     1       4.905   4.012  16.465  0.00  0.00    +0.000 C 
ATOM      4  O   UNL     1       5.330   2.911  16.099  0.00  0.00    +0.000 OA
ENDROOT
BRANCH   3   5
ATOM      5  C   UNL     1       3.871   4.042  17.544  0.00  0.00    +0.000 A 
ATOM      6  N   UNL     1       2.589   4.324  17.168  0.00  0.00    +0.000 NA
ATOM      7  C   UNL     1       1.676   4.270  18.159  0.00  0.00    +0.000 A 
ATOM      8  C   UNL     1       2.009   3.919  19.455  0.00  0.00    +0.000 A 
ATOM      9  N   UNL     1       3.275   3.619  19.829  0.00  0.00    +0.000 NA
ATOM     10  C   UNL     1       4.216   3.680  18.859  0.00  0.00    +0.000 A 
BRANCH  10  11
ATOM     11  N   UNL     1       5.526   3.464  19.293  0.00  0.00    +0.000 N 
ATOM     12  H   UNL     1       5.560   3.597  20.298  0.00  0.00    +0.000 HD
ATOM     13  H   UNL     1       5.875   2.558  18.980  0.00  0.00    +0.000 HD
ENDBRANCH  10  11
ENDBRANCH   3   5
BRANCH   2  14
ATOM     14  C   UNL     1       5.210   6.522  16.521  0.00  0.00    +0.000 C 
BRANCH  14  15
ATOM     15  C   UNL     1       6.427   6.916  17.281  0.00  0.00    +0.000 A 
ATOM     16  C   UNL     1       7.285   6.254  18.136  0.00  0.00    +0.000 A 
ATOM     17  C   UNL     1       8.237   7.207  18.570  0.00  0.00    +0.000 A 
ATOM     18  C   UNL     1       7.908   8.389  17.945  0.00  0.00    +0.000 A 
ATOM     19 BR   UNL     1       8.821  10.002  18.152  0.00  0.00    +0.000 Br
ATOM     20  O   UNL     1       6.814   8.218  17.154  0.00  0.00    +0.000 OA
ENDBRANCH  14  15
ENDBRANCH   2  14
TORSDOF 4
ENDMDL
MODEL 7
REMARK VINA RESULT:      -6.2      3.266      4.631
REMARK  Name = 
REMARK  5 active torsions:
REMARK  status: ('A' for Active; 'I' for Inactive)
REMARK    1  A    between atoms: C_1  and  N_2
REMARK    2  A    between atoms: N_2  and  C_3
REMARK    3  A    between atoms: C_3  and  C_4
REMARK    4  A    between atoms: C_10  and  C_12
REMARK    5  A    between atoms: C_17  and  N_18
REMARK                            x       y       z     vdW  Elec       q    Type
REMARK                         _______ _______ _______ _____ _____    ______ ____
ROOT
ATOM      1  C   UNL     1       4.801   7.004  17.161  0.00  0.00    +0.000 C 
ATOM      2  N   UNL     1       4.180   5.859  17.804  0.00  0.00    +0.000 N 
ATOM      3  C   UNL     1       2.815   5.979  18.126  0.00  0.00    +0.000 C 
ATOM      4  O   UNL     1       2.187   7.016  17.892  0.00  0.00    +0.000 OA
ENDROOT
BRANCH   3   5
ATOM      5  C   UNL     1       2.080   4.842  18.758  0.00  0.00    +0.000 A 
ATOM      6  N   UNL     1       1.730   3.802  17.947  0.00  0.00    +0.000 NA
ATOM      7  C   UNL     1       1.131   2.765  18.570  0.00  0.00    +0.000 A 
ATOM      8  C   UNL     1       0.923   2.743  19.937  0.00  0.00    +0.000 A 
ATOM      9  N   UNL     1       1.287   3.763  20.749  0.00  0.00    +0.000 NA
ATOM     10  C   UNL     1       1.875   4.825  20.150  0.00  0.00    +0.000 A 
BRANCH  10  11
ATOM     11  N   UNL     1       2.148   5.902  20.995  0.00  0.00    +0.000 N 
ATOM     12  H   UNL     1       1.341   6.060  21.590  0.00  0.00    +0.000 HD
ATOM     13  H   UNL     1       3.020   5.762  21.504  0.00  0.00    +0.000 HD
ENDBRANCH  10  11
ENDBRANCH   3   5
BRANCH   2  14
ATOM     14  C   UNL     1       4.875   4.572  17.706  0.00  0.00    +0.000 C 
BRANCH  14  15
ATOM     15  C   UNL     1       5.699   4.502  16.469  0.00  0.00    +0.000 A 
ATOM     16  C   UNL     1       7.000   4.845  16.157  0.00  0.00    +0.000 A 
ATOM     17  C   UNL     1       7.170   4.571  14.779  0.00  0.00    +0.000 A 
ATOM     18  C   UNL     1       5.967   4.069  14.337  0.00  0.00    +0.000 A 
ATOM     19 BR   UNL     1       5.603   3.539  12.587  0.00  0.00    +0.000 Br
ATOM     20  O   UNL     1       5.071   4.017  15.360  0.00  0.00    +0.000 OA
ENDBRANCH  14  15
ENDBRANCH   2  14
TORSDOF 4
ENDMDL
MODEL 8
REMARK VINA RESULT:      -6.2      3.655      4.985
REMARK  Name = 
REMARK  5 active torsions:
REMARK  status: ('A' for Active; 'I' for Inactive)
REMARK    1  A    between atoms: C_1  and  N_2
REMARK    2  A    between atoms: N_2  and  C_3
REMARK    3  A    between atoms: C_3  and  C_4
REMARK    4  A    between atoms: C_10  and  C_12
REMARK    5  A    between atoms: C_17  and  N_18
REMARK                            x       y       z     vdW  Elec       q    Type
REMARK                         _______ _______ _______ _____ _____    ______ ____
ROOT
ATOM      1  C   UNL     1       7.282   5.844  17.914  0.00  0.00    +0.000 C 
ATOM      2  N   UNL     1       5.979   5.251  17.669  0.00  0.00    +0.000 N 
ATOM      3  C   UNL     1       5.355   4.624  18.765  0.00  0.00    +0.000 C 
ATOM      4  O   UNL     1       5.902   4.567  19.870  0.00  0.00    +0.000 OA
ENDROOT
BRANCH   3   5
ATOM      5  C   UNL     1       3.999   4.015  18.621  0.00  0.00    +0.000 A 
ATOM      6  N   UNL     1       3.903   2.886  17.859  0.00  0.00    +0.000 NA
ATOM      7  C   UNL     1       2.675   2.327  17.813  0.00  0.00    +0.000 A 
ATOM      8  C   UNL     1       1.601   2.842  18.516  0.00  0.00    +0.000 A 
ATOM      9  N   UNL     1       1.695   3.949  19.289  0.00  0.00    +0.000 NA
ATOM     10  C   UNL     1       2.912   4.541  19.342  0.00  0.00    +0.000 A 
BRANCH  10  11
ATOM     11  N   UNL     1       2.956   5.735  20.063  0.00  0.00    +0.000 N 
ATOM     12  H   UNL     1       3.919   5.919  20.328  0.00  0.00    +0.000 HD
ATOM     13  H   UNL     1       2.514   6.495  19.547  0.00  0.00    +0.000 HD
ENDBRANCH  10  11
ENDBRANCH   3   5
BRANCH   2  14
ATOM     14  C   UNL     1       5.258   5.679  16.467  0.00  0.00    +0.000 C 
BRANCH  14  15
ATOM     15  C   UNL     1       5.848   5.071  15.244  0.00  0.00    +0.000 A 
ATOM     16  C   UNL     1       7.124   5.007  14.719  0.00  0.00    +0.000 A 
ATOM     17  C   UNL     1       7.020   4.317  13.489  0.00  0.00    +0.000 A 
ATOM     18  C   UNL     1       5.690   3.993  13.343  0.00  0.00    +0.000 A 
ATOM     19 BR   UNL     1       4.962   3.076  11.891  0.00  0.00    +0.000 Br
ATOM     20  O   UNL     1       4.973   4.441  14.409  0.00  0.00    +0.000 OA
ENDBRANCH  14  15
ENDBRANCH   2  14
TORSDOF 4
ENDMDL
MODEL 9
REMARK VINA RESULT:      -6.1      2.376      3.793
REMARK  Name = 
REMARK  5 active torsions:
REMARK  status: ('A' for Active; 'I' for Inactive)
REMARK    1  A    between atoms: C_1  and  N_2
REMARK    2  A    between atoms: N_2  and  C_3
REMARK    3  A    between atoms: C_3  and  C_4
REMARK    4  A    between atoms: C_10  and  C_12
REMARK    5  A    between atoms: C_17  and  N_18
REMARK                            x       y       z     vdW  Elec       q    Type
REMARK                         _______ _______ _______ _____ _____    ______ ____
ROOT
ATOM      1  C   UNL     1       1.648   4.669  17.800  0.00  0.00    +0.000 C 
ATOM      2  N   UNL     1       2.942   5.145  18.257  0.00  0.00    +0.000 N 
ATOM      3  C   UNL     1       4.036   4.921  17.401  0.00  0.00    +0.000 C 
ATOM      4  O   UNL     1       3.900   4.329  16.325  0.00  0.00    +0.000 OA
ENDROOT
BRANCH   3   5
ATOM      5  C   UNL     1       5.401   5.404  17.768  0.00  0.00    +0.000 A 
ATOM      6  N   UNL     1       5.855   6.524  17.134  0.00  0.00    +0.000 NA
ATOM      7  C   UNL     1       7.061   6.967  17.546  0.00  0.00    +0.000 A 
ATOM      8  C   UNL     1       7.769   6.352  18.563  0.00  0.00    +0.000 A 
ATOM      9  N   UNL     1       7.314   5.252  19.209  0.00  0.00    +0.000 NA
ATOM     10  C   UNL     1       6.113   4.775  18.806  0.00  0.00    +0.000 A 
BRANCH  10  11
ATOM     11  N   UNL     1       5.716   3.585  19.419  0.00  0.00    +0.000 N 
ATOM     12  H   UNL     1       4.703   3.582  19.495  0.00  0.00    +0.000 HD
ATOM     13  H   UNL     1       6.099   2.774  18.934  0.00  0.00    +0.000 HD
ENDBRANCH  10  11
ENDBRANCH   3   5
BRANCH   2  14
ATOM     14  C   UNL     1       2.952   6.138  19.335  0.00  0.00    +0.000 C 
BRANCH  14  15
ATOM     15  C   UNL     1       2.432   7.449  18.860  0.00  0.00    +0.000 A 
ATOM     16  C   UNL     1       2.580   8.180  17.698  0.00  0.00    +0.000 A 
ATOM     17  C   UNL     1       1.858   9.383  17.884  0.00  0.00    +0.000 A 
ATOM     18  C   UNL     1       1.307   9.308  19.143  0.00  0.00    +0.000 A 
ATOM     19 BR   UNL     1       0.251  10.627  19.932  0.00  0.00    +0.000 Br
ATOM     20  O   UNL     1       1.645   8.133  19.739  0.00  0.00    +0.000 OA
ENDBRANCH  14  15
ENDBRANCH   2  14
TORSDOF 4
ENDMDL
