MODEL 1
REMARK VINA RESULT:      -9.1      0.000      0.000
REMARK  Name = 
REMARK  6 active torsions:
REMARK  status: ('A' for Active; 'I' for Inactive)
REMARK    1  A    between atoms: C_1  and  C_2
REMARK    2  A    between atoms: C_2  and  C_5
REMARK    3  A    between atoms: C_9  and  C_10
REMARK    4  A    between atoms: C_10  and  N_11
REMARK    5  A    between atoms: C_16  and  N_17
REMARK    6  A    between atoms: N_17  and  C_18
REMARK                            x       y       z     vdW  Elec       q    Type
REMARK                         _______ _______ _______ _____ _____    ______ ____
ROOT
ATOM      1  N   UNL     1       1.790   8.747  17.994  0.00  0.00    +0.000 N 
ATOM      2  C   UNL     1       0.584   9.375  18.149  0.00  0.00    +0.000 A 
ATOM      3  N   UNL     1      -0.310   9.548  17.183  0.00  0.00    +0.000 NA
ATOM      4  C   UNL     1      -1.293  10.377  17.707  0.00  0.00    +0.000 A 
ATOM      5  C   UNL     1      -2.520  10.889  17.154  0.00  0.00    +0.000 A 
ATOM      6  C   UNL     1      -3.351  11.700  17.936  0.00  0.00    +0.000 A 
ATOM      7  C   UNL     1      -2.887  12.028  19.244  0.00  0.00    +0.000 A 
ATOM      8  C   UNL     1      -1.691  11.536  19.819  0.00  0.00    +0.000 A 
ATOM      9  C   UNL     1      -0.935  10.692  19.014  0.00  0.00    +0.000 A 
ATOM     10  O   UNL     1       0.254  10.037  19.312  0.00  0.00    +0.000 OA
ATOM     11  H   UNL     1       1.836   8.332  17.071  0.00  0.00    +0.000 HD
ENDROOT
BRANCH   6  12
ATOM     12  N   UNL     1      -4.697  12.142  17.659  0.00  0.00    +0.000 N 
ATOM     13  H   UNL     1      -4.598  13.108  18.010  0.00  0.00    +0.000 HD
BRANCH  12  14
ATOM     14  C   UNL     1      -6.159  11.880  18.078  0.00  0.00    +0.000 A 
ATOM     15  C   UNL     1      -6.928  12.800  17.354  0.00  0.00    +0.000 A 
ATOM     16  C   UNL     1      -6.870  14.086  17.862  0.00  0.00    +0.000 A 
ATOM     17  N   UNL     1      -6.451  14.325  19.132  0.00  0.00    +0.000 NA
ATOM     18  C   UNL     1      -6.476  13.261  19.961  0.00  0.00    +0.000 A 
ATOM     19  C   UNL     1      -6.746  13.427  21.307  0.00  0.00    +0.000 A 
ATOM     20  C   UNL     1      -7.364  12.413  22.035  0.00  0.00    +0.000 A 
ATOM     21 CL   UNL     1      -7.769  12.665  23.688  0.00  0.00    +0.000 Cl
ATOM     22  C   UNL     1      -7.741  11.232  21.403  0.00  0.00    +0.000 A 
ATOM     23  C   UNL     1      -7.303  11.003  20.096  0.00  0.00    +0.000 A 
ATOM     24  C   UNL     1      -6.518  11.971  19.421  0.00  0.00    +0.000 A 
ENDBRANCH  12  14
ENDBRANCH   6  12
BRANCH   1  25
ATOM     25  C   UNL     1       2.469   7.874  18.967  0.00  0.00    +0.000 C 
BRANCH  25  30
ATOM     26  C   UNL     1       3.019   4.060  18.128  0.00  0.00    +0.000 A 
ATOM     27  C   UNL     1       4.073   4.151  17.211  0.00  0.00    +0.000 A 
ATOM     28  C   UNL     1       4.596   5.388  16.863  0.00  0.00    +0.000 A 
ATOM     29  C   UNL     1       4.070   6.571  17.412  0.00  0.00    +0.000 A 
ATOM     30  C   UNL     1       2.995   6.553  18.318  0.00  0.00    +0.000 A 
ATOM     31  C   UNL     1       2.492   5.268  18.676  0.00  0.00    +0.000 A 
BRANCH  26  33
ATOM     32  C   UNL     1       0.988   2.618  18.625  0.00  0.00    +0.000 C 
ATOM     33  C   UNL     1       2.506   2.675  18.509  0.00  0.00    +0.000 C 
ATOM     34  F   UNL     1       3.030   2.233  19.689  0.00  0.00    +0.000 F 
ATOM     35  F   UNL     1       2.859   1.721  17.589  0.00  0.00    +0.000 F 
ENDBRANCH  26  33
ENDBRANCH  25  30
ENDBRANCH   1  25
TORSDOF 5
ENDMDL
MODEL 2
REMARK VINA RESULT:      -9.0      3.754      5.291
REMARK  Name = 
REMARK  6 active torsions:
REMARK  status: ('A' for Active; 'I' for Inactive)
REMARK    1  A    between atoms: C_1  and  C_2
REMARK    2  A    between atoms: C_2  and  C_5
REMARK    3  A    between atoms: C_9  and  C_10
REMARK    4  A    between atoms: C_10  and  N_11
REMARK    5  A    between atoms: C_16  and  N_17
REMARK    6  A    between atoms: N_17  and  C_18
REMARK                            x       y       z     vdW  Elec       q    Type
REMARK                         _______ _______ _______ _____ _____    ______ ____
ROOT
ATOM      1  N   UNL     1       2.021   4.541  20.656  0.00  0.00    +0.000 N 
ATOM      2  C   UNL     1       2.001   5.850  20.257  0.00  0.00    +0.000 A 
ATOM      3  N   UNL     1       1.380   6.829  20.902  0.00  0.00    +0.000 NA
ATOM      4  C   UNL     1       1.453   7.946  20.078  0.00  0.00    +0.000 A 
ATOM      5  C   UNL     1       0.991   9.299  20.242  0.00  0.00    +0.000 A 
ATOM      6  C   UNL     1       1.230  10.243  19.237  0.00  0.00    +0.000 A 
ATOM      7  C   UNL     1       1.878   9.778  18.055  0.00  0.00    +0.000 A 
ATOM      8  C   UNL     1       2.349   8.456  17.865  0.00  0.00    +0.000 A 
ATOM      9  C   UNL     1       2.130   7.578  18.919  0.00  0.00    +0.000 A 
ATOM     10  O   UNL     1       2.504   6.245  19.035  0.00  0.00    +0.000 OA
ATOM     11  H   UNL     1       1.599   4.464  21.574  0.00  0.00    +0.000 HD
ENDROOT
BRANCH   6  12
ATOM     12  N   UNL     1       1.044  11.675  19.283  0.00  0.00    +0.000 N 
ATOM     13  H   UNL     1       1.562  11.851  20.159  0.00  0.00    +0.000 HD
BRANCH  12  14
ATOM     14  C   UNL     1      -0.061  12.740  19.434  0.00  0.00    +0.000 A 
ATOM     15  C   UNL     1       0.611  13.959  19.590  0.00  0.00    +0.000 A 
ATOM     16  C   UNL     1       1.143  14.136  20.855  0.00  0.00    +0.000 A 
ATOM     17  N   UNL     1       0.709  13.402  21.913  0.00  0.00    +0.000 NA
ATOM     18  C   UNL     1      -0.488  12.803  21.751  0.00  0.00    +0.000 A 
ATOM     19  C   UNL     1      -1.336  12.628  22.829  0.00  0.00    +0.000 A 
ATOM     20  C   UNL     1      -2.717  12.604  22.647  0.00  0.00    +0.000 A 
ATOM     21 CL   UNL     1      -3.761  12.470  24.008  0.00  0.00    +0.000 Cl
ATOM     22  C   UNL     1      -3.256  12.785  21.377  0.00  0.00    +0.000 A 
ATOM     23  C   UNL     1      -2.394  12.778  20.277  0.00  0.00    +0.000 A 
ATOM     24  C   UNL     1      -0.996  12.621  20.460  0.00  0.00    +0.000 A 
ENDBRANCH  12  14
ENDBRANCH   6  12
BRANCH   1  25
ATOM     25  C   UNL     1       3.144   3.595  20.543  0.00  0.00    +0.000 C 
BRANCH  25  30
ATOM     26  C   UNL     1       5.913   4.514  17.888  0.00  0.00    +0.000 A 
ATOM     27  C   UNL     1       5.259   4.152  16.704  0.00  0.00    +0.000 A 
ATOM     28  C   UNL     1       3.977   3.627  16.743  0.00  0.00    +0.000 A 
ATOM     29  C   UNL     1       3.315   3.435  17.968  0.00  0.00    +0.000 A 
ATOM     30  C   UNL     1       3.923   3.753  19.196  0.00  0.00    +0.000 A 
ATOM     31  C   UNL     1       5.231   4.313  19.126  0.00  0.00    +0.000 A 
BRANCH  26  33
ATOM     32  C   UNL     1       7.697   5.909  19.037  0.00  0.00    +0.000 C 
ATOM     33  C   UNL     1       7.307   5.126  17.791  0.00  0.00    +0.000 C 
ATOM     34  F   UNL     1       7.435   5.960  16.717  0.00  0.00    +0.000 F 
ATOM     35  F   UNL     1       8.279   4.173  17.613  0.00  0.00    +0.000 F 
ENDBRANCH  26  33
ENDBRANCH  25  30
ENDBRANCH   1  25
TORSDOF 5
ENDMDL
MODEL 3
REMARK VINA RESULT:      -8.9      2.877      3.855
REMARK  Name = 
REMARK  6 active torsions:
REMARK  status: ('A' for Active; 'I' for Inactive)
REMARK    1  A    between atoms: C_1  and  C_2
REMARK    2  A    between atoms: C_2  and  C_5
REMARK    3  A    between atoms: C_9  and  C_10
REMARK    4  A    between atoms: C_10  and  N_11
REMARK    5  A    between atoms: C_16  and  N_17
REMARK    6  A    between atoms: N_17  and  C_18
REMARK                            x       y       z     vdW  Elec       q    Type
REMARK                         _______ _______ _______ _____ _____    ______ ____
ROOT
ATOM      1  N   UNL     1       2.101   7.238  20.460  0.00  0.00    +0.000 N 
ATOM      2  C   UNL     1       1.303   8.294  20.808  0.00  0.00    +0.000 A 
ATOM      3  N   UNL     1       1.244   9.447  20.153  0.00  0.00    +0.000 NA
ATOM      4  C   UNL     1       0.464  10.295  20.929  0.00  0.00    +0.000 A 
ATOM      5  C   UNL     1       0.024  11.652  20.732  0.00  0.00    +0.000 A 
ATOM      6  C   UNL     1      -0.796  12.264  21.687  0.00  0.00    +0.000 A 
ATOM      7  C   UNL     1      -1.100  11.506  22.856  0.00  0.00    +0.000 A 
ATOM      8  C   UNL     1      -0.688  10.170  23.078  0.00  0.00    +0.000 A 
ATOM      9  C   UNL     1       0.078   9.598  22.069  0.00  0.00    +0.000 A 
ATOM     10  O   UNL     1       0.593   8.310  21.989  0.00  0.00    +0.000 OA
ATOM     11  H   UNL     1       2.538   7.428  19.566  0.00  0.00    +0.000 HD
ENDROOT
BRANCH   6  12
ATOM     12  N   UNL     1      -1.509  13.516  21.593  0.00  0.00    +0.000 N 
ATOM     13  H   UNL     1      -1.620  13.685  22.606  0.00  0.00    +0.000 HD
BRANCH  12  14
ATOM     14  C   UNL     1      -2.847  14.104  21.101  0.00  0.00    +0.000 A 
ATOM     15  C   UNL     1      -2.822  15.455  21.469  0.00  0.00    +0.000 A 
ATOM     16  C   UNL     1      -3.071  15.662  22.815  0.00  0.00    +0.000 A 
ATOM     17  N   UNL     1      -3.665  14.708  23.579  0.00  0.00    +0.000 NA
ATOM     18  C   UNL     1      -4.329  13.752  22.898  0.00  0.00    +0.000 A 
ATOM     19  C   UNL     1      -5.464  13.171  23.433  0.00  0.00    +0.000 A 
ATOM     20  C   UNL     1      -6.472  12.688  22.601  0.00  0.00    +0.000 A 
ATOM     21 CL   UNL     1      -7.915  12.044  23.281  0.00  0.00    +0.000 Cl
ATOM     22  C   UNL     1      -6.354  12.812  21.220  0.00  0.00    +0.000 A 
ATOM     23  C   UNL     1      -5.132  13.231  20.688  0.00  0.00    +0.000 A 
ATOM     24  C   UNL     1      -4.047  13.551  21.543  0.00  0.00    +0.000 A 
ENDBRANCH  12  14
ENDBRANCH   6  12
BRANCH   1  25
ATOM     25  C   UNL     1       1.772   5.806  20.561  0.00  0.00    +0.000 C 
BRANCH  25  30
ATOM     26  C   UNL     1       3.910   4.679  17.443  0.00  0.00    +0.000 A 
ATOM     27  C   UNL     1       3.218   3.521  17.067  0.00  0.00    +0.000 A 
ATOM     28  C   UNL     1       2.106   3.103  17.782  0.00  0.00    +0.000 A 
ATOM     29  C   UNL     1       1.660   3.825  18.904  0.00  0.00    +0.000 A 
ATOM     30  C   UNL     1       2.323   4.981  19.352  0.00  0.00    +0.000 A 
ATOM     31  C   UNL     1       3.449   5.401  18.585  0.00  0.00    +0.000 A 
BRANCH  26  33
ATOM     32  C   UNL     1       5.597   4.026  15.662  0.00  0.00    +0.000 C 
ATOM     33  C   UNL     1       5.102   5.118  16.601  0.00  0.00    +0.000 C 
ATOM     34  F   UNL     1       6.159   5.521  17.365  0.00  0.00    +0.000 F 
ATOM     35  F   UNL     1       4.807   6.201  15.811  0.00  0.00    +0.000 F 
ENDBRANCH  26  33
ENDBRANCH  25  30
ENDBRANCH   1  25
TORSDOF 5
ENDMDL
MODEL 4
REMARK VINA RESULT:      -8.7      3.213      4.404
REMARK  Name = 
REMARK  6 active torsions:
REMARK  status: ('A' for Active; 'I' for Inactive)
REMARK    1  A    between atoms: C_1  and  C_2
REMARK    2  A    between atoms: C_2  and  C_5
REMARK    3  A    between atoms: C_9  and  C_10
REMARK    4  A    between atoms: C_10  and  N_11
REMARK    5  A    between atoms: C_16  and  N_17
REMARK    6  A    between atoms: N_17  and  C_18
REMARK                            x       y       z     vdW  Elec       q    Type
REMARK                         _______ _______ _______ _____ _____    ______ ____
ROOT
ATOM      1  N   UNL     1       2.221   9.285  18.346  0.00  0.00    +0.000 N 
ATOM      2  C   UNL     1       1.391   9.725  19.341  0.00  0.00    +0.000 A 
ATOM      3  N   UNL     1       1.015  10.986  19.511  0.00  0.00    +0.000 NA
ATOM      4  C   UNL     1       0.334  11.030  20.721  0.00  0.00    +0.000 A 
ATOM      5  C   UNL     1      -0.326  12.101  21.420  0.00  0.00    +0.000 A 
ATOM      6  C   UNL     1      -0.968  11.847  22.637  0.00  0.00    +0.000 A 
ATOM      7  C   UNL     1      -0.872  10.522  23.153  0.00  0.00    +0.000 A 
ATOM      8  C   UNL     1      -0.236   9.445  22.489  0.00  0.00    +0.000 A 
ATOM      9  C   UNL     1       0.337   9.746  21.259  0.00  0.00    +0.000 A 
ATOM     10  O   UNL     1       0.992   8.901  20.372  0.00  0.00    +0.000 OA
ATOM     11  H   UNL     1       2.399  10.042  17.697  0.00  0.00    +0.000 HD
ENDROOT
BRANCH   6  12
ATOM     12  N   UNL     1      -1.851  12.710  23.387  0.00  0.00    +0.000 N 
ATOM     13  H   UNL     1      -2.521  11.985  23.693  0.00  0.00    +0.000 HD
BRANCH  12  14
ATOM     14  C   UNL     1      -2.833  13.884  23.197  0.00  0.00    +0.000 A 
ATOM     15  C   UNL     1      -3.532  13.989  24.407  0.00  0.00    +0.000 A 
ATOM     16  C   UNL     1      -4.508  13.021  24.563  0.00  0.00    +0.000 A 
ATOM     17  N   UNL     1      -4.990  12.325  23.500  0.00  0.00    +0.000 NA
ATOM     18  C   UNL     1      -4.764  12.881  22.293  0.00  0.00    +0.000 A 
ATOM     19  C   UNL     1      -5.680  12.728  21.268  0.00  0.00    +0.000 A 
ATOM     20  C   UNL     1      -5.817  13.710  20.289  0.00  0.00    +0.000 A 
ATOM     21 CL   UNL     1      -7.019  13.545  19.069  0.00  0.00    +0.000 Cl
ATOM     22  C   UNL     1      -5.050  14.869  20.352  0.00  0.00    +0.000 A 
ATOM     23  C   UNL     1      -4.007  14.931  21.279  0.00  0.00    +0.000 A 
ATOM     24  C   UNL     1      -3.760  13.846  22.158  0.00  0.00    +0.000 A 
ENDBRANCH  12  14
ENDBRANCH   6  12
BRANCH   1  25
ATOM     25  C   UNL     1       2.130   8.010  17.613  0.00  0.00    +0.000 C 
BRANCH  25  30
ATOM     26  C   UNL     1       5.393   5.798  17.746  0.00  0.00    +0.000 A 
ATOM     27  C   UNL     1       5.110   4.995  18.858  0.00  0.00    +0.000 A 
ATOM     28  C   UNL     1       3.920   5.152  19.552  0.00  0.00    +0.000 A 
ATOM     29  C   UNL     1       2.982   6.124  19.162  0.00  0.00    +0.000 A 
ATOM     30  C   UNL     1       3.214   6.981  18.071  0.00  0.00    +0.000 A 
ATOM     31  C   UNL     1       4.435   6.783  17.362  0.00  0.00    +0.000 A 
BRANCH  26  33
ATOM     32  C   UNL     1       7.643   4.621  17.729  0.00  0.00    +0.000 C 
ATOM     33  C   UNL     1       6.698   5.560  16.993  0.00  0.00    +0.000 C 
ATOM     34  F   UNL     1       7.373   6.720  16.744  0.00  0.00    +0.000 F 
ATOM     35  F   UNL     1       6.487   5.005  15.756  0.00  0.00    +0.000 F 
ENDBRANCH  26  33
ENDBRANCH  25  30
ENDBRANCH   1  25
TORSDOF 5
ENDMDL
MODEL 5
REMARK VINA RESULT:      -8.7      4.042      4.986
REMARK  Name = 
REMARK  6 active torsions:
REMARK  status: ('A' for Active; 'I' for Inactive)
REMARK    1  A    between atoms: C_1  and  C_2
REMARK    2  A    between atoms: C_2  and  C_5
REMARK    3  A    between atoms: C_9  and  C_10
REMARK    4  A    between atoms: C_10  and  N_11
REMARK    5  A    between atoms: C_16  and  N_17
REMARK    6  A    between atoms: N_17  and  C_18
REMARK                            x       y       z     vdW  Elec       q    Type
REMARK                         _______ _______ _______ _____ _____    ______ ____
ROOT
ATOM      1  N   UNL     1       2.504   7.275  19.805  0.00  0.00    +0.000 N 
ATOM      2  C   UNL     1       1.593   8.126  20.370  0.00  0.00    +0.000 A 
ATOM      3  N   UNL     1       1.162   9.252  19.815  0.00  0.00    +0.000 NA
ATOM      4  C   UNL     1       0.399   9.896  20.781  0.00  0.00    +0.000 A 
ATOM      5  C   UNL     1      -0.344  11.128  20.761  0.00  0.00    +0.000 A 
ATOM      6  C   UNL     1      -1.059  11.528  21.895  0.00  0.00    +0.000 A 
ATOM      7  C   UNL     1      -0.953  10.700  23.051  0.00  0.00    +0.000 A 
ATOM      8  C   UNL     1      -0.236   9.480  23.101  0.00  0.00    +0.000 A 
ATOM      9  C   UNL     1       0.409   9.108  21.928  0.00  0.00    +0.000 A 
ATOM     10  O   UNL     1       1.153   7.964  21.666  0.00  0.00    +0.000 OA
ATOM     11  H   UNL     1       2.699   7.573  18.857  0.00  0.00    +0.000 HD
ENDROOT
BRANCH   6  12
ATOM     12  N   UNL     1      -2.021  12.598  22.024  0.00  0.00    +0.000 N 
ATOM     13  H   UNL     1      -2.752  12.197  21.413  0.00  0.00    +0.000 HD
BRANCH  12  14
ATOM     14  C   UNL     1      -2.213  14.091  21.684  0.00  0.00    +0.000 A 
ATOM     15  C   UNL     1      -0.921  14.617  21.559  0.00  0.00    +0.000 A 
ATOM     16  C   UNL     1      -0.296  14.834  22.775  0.00  0.00    +0.000 A 
ATOM     17  N   UNL     1      -1.006  14.910  23.931  0.00  0.00    +0.000 NA
ATOM     18  C   UNL     1      -2.325  15.150  23.786  0.00  0.00    +0.000 A 
ATOM     19  C   UNL     1      -3.011  15.890  24.731  0.00  0.00    +0.000 A 
ATOM     20  C   UNL     1      -4.119  16.652  24.367  0.00  0.00    +0.000 A 
ATOM     21 CL   UNL     1      -4.912  17.632  25.539  0.00  0.00    +0.000 Cl
ATOM     22  C   UNL     1      -4.528  16.696  23.038  0.00  0.00    +0.000 A 
ATOM     23  C   UNL     1      -3.945  15.809  22.129  0.00  0.00    +0.000 A 
ATOM     24  C   UNL     1      -2.937  14.907  22.551  0.00  0.00    +0.000 A 
ENDBRANCH  12  14
ENDBRANCH   6  12
BRANCH   1  25
ATOM     25  C   UNL     1       2.508   5.804  19.877  0.00  0.00    +0.000 C 
BRANCH  25  30
ATOM     26  C   UNL     1       5.811   4.942  17.902  0.00  0.00    +0.000 A 
ATOM     27  C   UNL     1       5.305   4.071  16.929  0.00  0.00    +0.000 A 
ATOM     28  C   UNL     1       3.954   3.760  16.900  0.00  0.00    +0.000 A 
ATOM     29  C   UNL     1       3.071   4.301  17.851  0.00  0.00    +0.000 A 
ATOM     30  C   UNL     1       3.517   5.161  18.870  0.00  0.00    +0.000 A 
ATOM     31  C   UNL     1       4.905   5.482  18.863  0.00  0.00    +0.000 A 
BRANCH  26  33
ATOM     32  C   UNL     1       7.819   5.788  19.207  0.00  0.00    +0.000 C 
ATOM     33  C   UNL     1       7.297   5.285  17.867  0.00  0.00    +0.000 C 
ATOM     34  F   UNL     1       7.592   6.227  16.925  0.00  0.00    +0.000 F 
ATOM     35  F   UNL     1       8.071   4.201  17.534  0.00  0.00    +0.000 F 
ENDBRANCH  26  33
ENDBRANCH  25  30
ENDBRANCH   1  25
TORSDOF 5
ENDMDL
MODEL 6
REMARK VINA RESULT:      -8.7      5.190      6.433
REMARK  Name = 
REMARK  6 active torsions:
REMARK  status: ('A' for Active; 'I' for Inactive)
REMARK    1  A    between atoms: C_1  and  C_2
REMARK    2  A    between atoms: C_2  and  C_5
REMARK    3  A    between atoms: C_9  and  C_10
REMARK    4  A    between atoms: C_10  and  N_11
REMARK    5  A    between atoms: C_16  and  N_17
REMARK    6  A    between atoms: N_17  and  C_18
REMARK                            x       y       z     vdW  Elec       q    Type
REMARK                         _______ _______ _______ _____ _____    ______ ____
ROOT
ATOM      1  N   UNL     1       1.952   4.929  20.709  0.00  0.00    +0.000 N 
ATOM      2  C   UNL     1       1.954   6.225  20.267  0.00  0.00    +0.000 A 
ATOM      3  N   UNL     1       1.309   7.226  20.851  0.00  0.00    +0.000 NA
ATOM      4  C   UNL     1       1.422   8.315  19.996  0.00  0.00    +0.000 A 
ATOM      5  C   UNL     1       0.958   9.674  20.096  0.00  0.00    +0.000 A 
ATOM      6  C   UNL     1       1.246  10.585  19.073  0.00  0.00    +0.000 A 
ATOM      7  C   UNL     1       1.945  10.080  17.938  0.00  0.00    +0.000 A 
ATOM      8  C   UNL     1       2.419   8.752  17.811  0.00  0.00    +0.000 A 
ATOM      9  C   UNL     1       2.150   7.909  18.882  0.00  0.00    +0.000 A 
ATOM     10  O   UNL     1       2.513   6.579  19.057  0.00  0.00    +0.000 OA
ATOM     11  H   UNL     1       1.488   4.883  21.608  0.00  0.00    +0.000 HD
ENDROOT
BRANCH   6  12
ATOM     12  N   UNL     1       1.063  12.017  19.065  0.00  0.00    +0.000 N 
ATOM     13  H   UNL     1       1.227  12.169  18.056  0.00  0.00    +0.000 HD
BRANCH  12  14
ATOM     14  C   UNL     1       1.694  13.314  19.612  0.00  0.00    +0.000 A 
ATOM     15  C   UNL     1       1.330  13.368  20.963  0.00  0.00    +0.000 A 
ATOM     16  C   UNL     1       0.018  13.762  21.163  0.00  0.00    +0.000 A 
ATOM     17  N   UNL     1      -0.683  14.403  20.192  0.00  0.00    +0.000 NA
ATOM     18  C   UNL     1       0.059  14.963  19.215  0.00  0.00    +0.000 A 
ATOM     19  C   UNL     1      -0.357  16.130  18.601  0.00  0.00    +0.000 A 
ATOM     20  C   UNL     1       0.574  17.030  18.086  0.00  0.00    +0.000 A 
ATOM     21 CL   UNL     1       0.045  18.517  17.400  0.00  0.00    +0.000 Cl
ATOM     22  C   UNL     1       1.936  16.773  18.213  0.00  0.00    +0.000 A 
ATOM     23  C   UNL     1       2.340  15.516  18.669  0.00  0.00    +0.000 A 
ATOM     24  C   UNL     1       1.378  14.536  19.022  0.00  0.00    +0.000 A 
ENDBRANCH  12  14
ENDBRANCH   6  12
BRANCH   1  25
ATOM     25  C   UNL     1       3.076   3.978  20.676  0.00  0.00    +0.000 C 
BRANCH  25  30
ATOM     26  C   UNL     1       5.861   4.617  17.958  0.00  0.00    +0.000 A 
ATOM     27  C   UNL     1       5.188   4.202  16.802  0.00  0.00    +0.000 A 
ATOM     28  C   UNL     1       3.887   3.729  16.880  0.00  0.00    +0.000 A 
ATOM     29  C   UNL     1       3.225   3.643  18.117  0.00  0.00    +0.000 A 
ATOM     30  C   UNL     1       3.851   4.018  19.319  0.00  0.00    +0.000 A 
ATOM     31  C   UNL     1       5.180   4.523  19.209  0.00  0.00    +0.000 A 
BRANCH  26  33
ATOM     32  C   UNL     1       7.773   5.854  19.081  0.00  0.00    +0.000 C 
ATOM     33  C   UNL     1       7.276   5.168  17.815  0.00  0.00    +0.000 C 
ATOM     34  F   UNL     1       7.386   6.059  16.787  0.00  0.00    +0.000 F 
ATOM     35  F   UNL     1       8.188   4.184  17.526  0.00  0.00    +0.000 F 
ENDBRANCH  26  33
ENDBRANCH  25  30
ENDBRANCH   1  25
TORSDOF 5
ENDMDL
MODEL 7
REMARK VINA RESULT:      -8.7      5.197     11.022
REMARK  Name = 
REMARK  6 active torsions:
REMARK  status: ('A' for Active; 'I' for Inactive)
REMARK    1  A    between atoms: C_1  and  C_2
REMARK    2  A    between atoms: C_2  and  C_5
REMARK    3  A    between atoms: C_9  and  C_10
REMARK    4  A    between atoms: C_10  and  N_11
REMARK    5  A    between atoms: C_16  and  N_17
REMARK    6  A    between atoms: N_17  and  C_18
REMARK                            x       y       z     vdW  Elec       q    Type
REMARK                         _______ _______ _______ _____ _____    ______ ____
ROOT
ATOM      1  N   UNL     1       0.540  12.170  20.532  0.00  0.00    +0.000 N 
ATOM      2  C   UNL     1       0.851  10.915  20.084  0.00  0.00    +0.000 A 
ATOM      3  N   UNL     1       0.938   9.837  20.852  0.00  0.00    +0.000 NA
ATOM      4  C   UNL     1       1.447   8.825  20.047  0.00  0.00    +0.000 A 
ATOM      5  C   UNL     1       1.733   7.438  20.304  0.00  0.00    +0.000 A 
ATOM      6  C   UNL     1       2.226   6.627  19.276  0.00  0.00    +0.000 A 
ATOM      7  C   UNL     1       2.479   7.257  18.022  0.00  0.00    +0.000 A 
ATOM      8  C   UNL     1       2.203   8.615  17.735  0.00  0.00    +0.000 A 
ATOM      9  C   UNL     1       1.665   9.357  18.780  0.00  0.00    +0.000 A 
ATOM     10  O   UNL     1       1.265  10.688  18.789  0.00  0.00    +0.000 OA
ATOM     11  H   UNL     1       0.269  12.121  21.507  0.00  0.00    +0.000 HD
ENDROOT
BRANCH   6  12
ATOM     12  N   UNL     1       2.381   5.191  19.256  0.00  0.00    +0.000 N 
ATOM     13  H   UNL     1       3.027   5.114  20.059  0.00  0.00    +0.000 HD
BRANCH  12  14
ATOM     14  C   UNL     1       2.944   4.054  18.380  0.00  0.00    +0.000 A 
ATOM     15  C   UNL     1       3.322   3.043  19.272  0.00  0.00    +0.000 A 
ATOM     16  C   UNL     1       4.511   3.307  19.930  0.00  0.00    +0.000 A 
ATOM     17  N   UNL     1       5.389   4.231  19.459  0.00  0.00    +0.000 NA
ATOM     18  C   UNL     1       5.232   4.571  18.163  0.00  0.00    +0.000 A 
ATOM     19  C   UNL     1       6.328   4.906  17.389  0.00  0.00    +0.000 A 
ATOM     20  C   UNL     1       6.325   4.667  16.017  0.00  0.00    +0.000 A 
ATOM     21 CL   UNL     1       7.728   5.012  15.081  0.00  0.00    +0.000 Cl
ATOM     22  C   UNL     1       5.226   4.061  15.417  0.00  0.00    +0.000 A 
ATOM     23  C   UNL     1       4.061   3.894  16.170  0.00  0.00    +0.000 A 
ATOM     24  C   UNL     1       4.015   4.308  17.526  0.00  0.00    +0.000 A 
ENDBRANCH  12  14
ENDBRANCH   6  12
BRANCH   1  25
ATOM     25  C   UNL     1      -0.273  13.185  19.839  0.00  0.00    +0.000 C 
BRANCH  25  30
ATOM     26  C   UNL     1      -3.160  11.532  17.720  0.00  0.00    +0.000 A 
ATOM     27  C   UNL     1      -4.254  11.754  18.565  0.00  0.00    +0.000 A 
ATOM     28  C   UNL     1      -4.084  12.406  19.777  0.00  0.00    +0.000 A 
ATOM     29  C   UNL     1      -2.812  12.844  20.186  0.00  0.00    +0.000 A 
ATOM     30  C   UNL     1      -1.667  12.631  19.398  0.00  0.00    +0.000 A 
ATOM     31  C   UNL     1      -1.874  11.980  18.147  0.00  0.00    +0.000 A 
BRANCH  26  33
ATOM     32  C   UNL     1      -2.596   9.568  16.213  0.00  0.00    +0.000 C 
ATOM     33  C   UNL     1      -3.405  10.847  16.379  0.00  0.00    +0.000 C 
ATOM     34  F   UNL     1      -3.121  11.660  15.320  0.00  0.00    +0.000 F 
ATOM     35  F   UNL     1      -4.721  10.497  16.210  0.00  0.00    +0.000 F 
ENDBRANCH  26  33
ENDBRANCH  25  30
ENDBRANCH   1  25
TORSDOF 5
ENDMDL
MODEL 8
REMARK VINA RESULT:      -8.6      3.676      5.215
REMARK  Name = 
REMARK  6 active torsions:
REMARK  status: ('A' for Active; 'I' for Inactive)
REMARK    1  A    between atoms: C_1  and  C_2
REMARK    2  A    between atoms: C_2  and  C_5
REMARK    3  A    between atoms: C_9  and  C_10
REMARK    4  A    between atoms: C_10  and  N_11
REMARK    5  A    between atoms: C_16  and  N_17
REMARK    6  A    between atoms: N_17  and  C_18
REMARK                            x       y       z     vdW  Elec       q    Type
REMARK                         _______ _______ _______ _____ _____    ______ ____
ROOT
ATOM      1  N   UNL     1       2.477   4.480  20.164  0.00  0.00    +0.000 N 
ATOM      2  C   UNL     1       2.318   5.814  19.904  0.00  0.00    +0.000 A 
ATOM      3  N   UNL     1       1.769   6.688  20.738  0.00  0.00    +0.000 NA
ATOM      4  C   UNL     1       1.637   7.874  20.026  0.00  0.00    +0.000 A 
ATOM      5  C   UNL     1       1.140   9.173  20.398  0.00  0.00    +0.000 A 
ATOM      6  C   UNL     1       1.149  10.216  19.464  0.00  0.00    +0.000 A 
ATOM      7  C   UNL     1       1.603   9.901  18.150  0.00  0.00    +0.000 A 
ATOM      8  C   UNL     1       2.103   8.637  17.754  0.00  0.00    +0.000 A 
ATOM      9  C   UNL     1       2.119   7.657  18.739  0.00  0.00    +0.000 A 
ATOM     10  O   UNL     1       2.577   6.348  18.660  0.00  0.00    +0.000 OA
ATOM     11  H   UNL     1       2.227   4.294  21.128  0.00  0.00    +0.000 HD
ENDROOT
BRANCH   6  12
ATOM     12  N   UNL     1       0.898  11.621  19.681  0.00  0.00    +0.000 N 
ATOM     13  H   UNL     1       1.231  11.669  20.658  0.00  0.00    +0.000 HD
BRANCH  12  14
ATOM     14  C   UNL     1      -0.259  12.638  19.767  0.00  0.00    +0.000 A 
ATOM     15  C   UNL     1       0.351  13.896  19.840  0.00  0.00    +0.000 A 
ATOM     16  C   UNL     1       0.875  14.182  21.088  0.00  0.00    +0.000 A 
ATOM     17  N   UNL     1       0.479  13.498  22.194  0.00  0.00    +0.000 NA
ATOM     18  C   UNL     1      -0.687  12.830  22.076  0.00  0.00    +0.000 A 
ATOM     19  C   UNL     1      -1.524  12.684  23.166  0.00  0.00    +0.000 A 
ATOM     20  C   UNL     1      -2.903  12.579  22.992  0.00  0.00    +0.000 A 
ATOM     21 CL   UNL     1      -3.938  12.482  24.363  0.00  0.00    +0.000 Cl
ATOM     22  C   UNL     1      -3.451  12.649  21.715  0.00  0.00    +0.000 A 
ATOM     23  C   UNL     1      -2.590  12.614  20.615  0.00  0.00    +0.000 A 
ATOM     24  C   UNL     1      -1.187  12.539  20.802  0.00  0.00    +0.000 A 
ENDBRANCH  12  14
ENDBRANCH   6  12
BRANCH   1  25
ATOM     25  C   UNL     1       3.612   3.627  19.770  0.00  0.00    +0.000 C 
BRANCH  25  30
ATOM     26  C   UNL     1       5.682   5.105  16.756  0.00  0.00    +0.000 A 
ATOM     27  C   UNL     1       6.730   5.724  17.448  0.00  0.00    +0.000 A 
ATOM     28  C   UNL     1       6.779   5.680  18.833  0.00  0.00    +0.000 A 
ATOM     29  C   UNL     1       5.776   5.026  19.568  0.00  0.00    +0.000 A 
ATOM     30  C   UNL     1       4.682   4.406  18.938  0.00  0.00    +0.000 A 
ATOM     31  C   UNL     1       4.667   4.446  17.514  0.00  0.00    +0.000 A 
BRANCH  26  33
ATOM     32  C   UNL     1       7.084   4.940  14.645  0.00  0.00    +0.000 C 
ATOM     33  C   UNL     1       5.693   5.147  15.231  0.00  0.00    +0.000 C 
ATOM     34  F   UNL     1       5.205   6.322  14.739  0.00  0.00    +0.000 F 
ATOM     35  F   UNL     1       4.894   4.177  14.681  0.00  0.00    +0.000 F 
ENDBRANCH  26  33
ENDBRANCH  25  30
ENDBRANCH   1  25
TORSDOF 5
ENDMDL
MODEL 9
REMARK VINA RESULT:      -8.6      2.684      3.438
REMARK  Name = 
REMARK  6 active torsions:
REMARK  status: ('A' for Active; 'I' for Inactive)
REMARK    1  A    between atoms: C_1  and  C_2
REMARK    2  A    between atoms: C_2  and  C_5
REMARK    3  A    between atoms: C_9  and  C_10
REMARK    4  A    between atoms: C_10  and  N_11
REMARK    5  A    between atoms: C_16  and  N_17
REMARK    6  A    between atoms: N_17  and  C_18
REMARK                            x       y       z     vdW  Elec       q    Type
REMARK                         _______ _______ _______ _____ _____    ______ ____
ROOT
ATOM      1  N   UNL     1       1.644   8.456  17.784  0.00  0.00    +0.000 N 
ATOM      2  C   UNL     1       1.088   9.585  18.322  0.00  0.00    +0.000 A 
ATOM      3  N   UNL     1      -0.155   9.674  18.779  0.00  0.00    +0.000 NA
ATOM      4  C   UNL     1      -0.370  11.016  19.063  0.00  0.00    +0.000 A 
ATOM      5  C   UNL     1      -1.504  11.718  19.606  0.00  0.00    +0.000 A 
ATOM      6  C   UNL     1      -1.432  13.100  19.816  0.00  0.00    +0.000 A 
ATOM      7  C   UNL     1      -0.231  13.753  19.409  0.00  0.00    +0.000 A 
ATOM      8  C   UNL     1       0.903  13.091  18.878  0.00  0.00    +0.000 A 
ATOM      9  C   UNL     1       0.791  11.713  18.743  0.00  0.00    +0.000 A 
ATOM     10  O   UNL     1       1.736  10.801  18.289  0.00  0.00    +0.000 OA
ATOM     11  H   UNL     1       1.006   7.679  17.903  0.00  0.00    +0.000 HD
ENDROOT
BRANCH   6  12
ATOM     12  N   UNL     1      -2.354  13.953  20.528  0.00  0.00    +0.000 N 
ATOM     13  H   UNL     1      -2.149  14.829  20.021  0.00  0.00    +0.000 HD
BRANCH  12  14
ATOM     14  C   UNL     1      -2.610  14.540  21.932  0.00  0.00    +0.000 A 
ATOM     15  C   UNL     1      -1.736  13.860  22.789  0.00  0.00    +0.000 A 
ATOM     16  C   UNL     1      -2.156  12.579  23.100  0.00  0.00    +0.000 A 
ATOM     17  N   UNL     1      -3.448  12.196  22.922  0.00  0.00    +0.000 NA
ATOM     18  C   UNL     1      -4.340  13.202  22.809  0.00  0.00    +0.000 A 
ATOM     19  C   UNL     1      -5.628  13.053  23.288  0.00  0.00    +0.000 A 
ATOM     20  C   UNL     1      -6.346  14.156  23.745  0.00  0.00    +0.000 A 
ATOM     21 CL   UNL     1      -7.917  13.942  24.415  0.00  0.00    +0.000 Cl
ATOM     22  C   UNL     1      -5.758  15.416  23.750  0.00  0.00    +0.000 A 
ATOM     23  C   UNL     1      -4.532  15.585  23.100  0.00  0.00    +0.000 A 
ATOM     24  C   UNL     1      -3.891  14.485  22.478  0.00  0.00    +0.000 A 
ENDBRANCH  12  14
ENDBRANCH   6  12
BRANCH   1  25
ATOM     25  C   UNL     1       3.033   7.991  17.937  0.00  0.00    +0.000 C 
BRANCH  25  30
ATOM     26  C   UNL     1       2.546   4.226  19.006  0.00  0.00    +0.000 A 
ATOM     27  C   UNL     1       3.455   3.598  18.146  0.00  0.00    +0.000 A 
ATOM     28  C   UNL     1       4.201   4.345  17.247  0.00  0.00    +0.000 A 
ATOM     29  C   UNL     1       4.051   5.741  17.173  0.00  0.00    +0.000 A 
ATOM     30  C   UNL     1       3.137   6.432  17.989  0.00  0.00    +0.000 A 
ATOM     31  C   UNL     1       2.400   5.643  18.919  0.00  0.00    +0.000 A 
BRANCH  26  33
ATOM     32  C   UNL     1       2.096   3.715  21.453  0.00  0.00    +0.000 C 
ATOM     33  C   UNL     1       1.778   3.366  20.005  0.00  0.00    +0.000 C 
ATOM     34  F   UNL     1       2.019   2.033  19.836  0.00  0.00    +0.000 F 
ATOM     35  F   UNL     1       0.419   3.498  19.865  0.00  0.00    +0.000 F 
ENDBRANCH  26  33
ENDBRANCH  25  30
ENDBRANCH   1  25
TORSDOF 5
ENDMDL
