MODEL 1
REMARK VINA RESULT:      -7.7      0.000      0.000
REMARK  Name = 
REMARK  7 active torsions:
REMARK  status: ('A' for Active; 'I' for Inactive)
REMARK    1  A    between atoms: C_1  and  C_2
REMARK    2  A    between atoms: C_2  and  C_3
REMARK    3  A    between atoms: C_3  and  C_4
REMARK    4  A    between atoms: C_4  and  N_5
REMARK    5  A    between atoms: C_9  and  N_10
REMARK    6  A    between atoms: C_9  and  C_18
REMARK    7  A    between atoms: C_11  and  C_13
REMARK                            x       y       z     vdW  Elec       q    Type
REMARK                         _______ _______ _______ _____ _____    ______ ____
ROOT
ATOM      1  N   UNL     1       3.879   5.022  19.197  0.00  0.00    +0.000 N 
ATOM      2  C   UNL     1       3.772   6.265  18.656  0.00  0.00    +0.000 C 
ATOM      3  O   UNL     1       2.902   7.094  18.864  0.00  0.00    +0.000 OA
ATOM      4  N   UNL     1       4.812   6.457  17.789  0.00  0.00    +0.000 N 
ATOM      5  C   UNL     1       5.764   5.368  17.792  0.00  0.00    +0.000 C 
ATOM      6  C   UNL     1       5.014   4.410  18.741  0.00  0.00    +0.000 C 
ATOM      7  O   UNL     1       5.344   3.251  18.967  0.00  0.00    +0.000 OA
ATOM      8  H   UNL     1       4.944   7.320  17.279  0.00  0.00    +0.000 HD
ENDROOT
BRANCH   5   9
ATOM      9  N   UNL     1       5.806   4.737  16.488  0.00  0.00    +0.000 N 
ATOM     10  C   UNL     1       5.799   5.475  15.324  0.00  0.00    +0.000 C 
ATOM     11  O   UNL     1       5.624   6.690  15.335  0.00  0.00    +0.000 OA
ATOM     12  H   UNL     1       6.071   3.758  16.411  0.00  0.00    +0.000 HD
BRANCH  10  13
ATOM     13  C   UNL     1       5.987   4.673  14.128  0.00  0.00    +0.000 A 
ATOM     14  C   UNL     1       5.183   3.735  13.511  0.00  0.00    +0.000 A 
ATOM     15  C   UNL     1       5.902   3.259  12.389  0.00  0.00    +0.000 A 
ATOM     16  C   UNL     1       7.095   3.943  12.380  0.00  0.00    +0.000 A 
ATOM     17  O   UNL     1       7.155   4.805  13.426  0.00  0.00    +0.000 OA
ENDBRANCH  10  13
ENDBRANCH   5   9
BRANCH   5  18
ATOM     18  C   UNL     1       7.137   5.690  18.467  0.00  0.00    +0.000 C 
ATOM     19  F   UNL     1       8.055   4.725  18.200  0.00  0.00    +0.000 F 
ATOM     20  F   UNL     1       7.681   6.856  18.053  0.00  0.00    +0.000 F 
ATOM     21  F   UNL     1       7.037   5.773  19.817  0.00  0.00    +0.000 F 
ENDBRANCH   5  18
BRANCH   1  22
ATOM     22  C   UNL     1       2.899   4.408  20.074  0.00  0.00    +0.000 C 
BRANCH  22  23
ATOM     23  C   UNL     1       1.645   3.919  19.339  0.00  0.00    +0.000 C 
BRANCH  23  25
ATOM     24  C   UNL     1       1.435   2.663  21.504  0.00  0.00    +0.000 C 
ATOM     25  C   UNL     1       0.901   2.811  20.088  0.00  0.00    +0.000 C 
ENDBRANCH  23  25
ENDBRANCH  22  23
ENDBRANCH   1  22
TORSDOF 6
ENDMDL
MODEL 2
REMARK VINA RESULT:      -7.6      1.335      1.770
REMARK  Name = 
REMARK  7 active torsions:
REMARK  status: ('A' for Active; 'I' for Inactive)
REMARK    1  A    between atoms: C_1  and  C_2
REMARK    2  A    between atoms: C_2  and  C_3
REMARK    3  A    between atoms: C_3  and  C_4
REMARK    4  A    between atoms: C_4  and  N_5
REMARK    5  A    between atoms: C_9  and  N_10
REMARK    6  A    between atoms: C_9  and  C_18
REMARK    7  A    between atoms: C_11  and  C_13
REMARK                            x       y       z     vdW  Elec       q    Type
REMARK                         _______ _______ _______ _____ _____    ______ ____
ROOT
ATOM      1  N   UNL     1       2.413   4.303  18.013  0.00  0.00    +0.000 N 
ATOM      2  C   UNL     1       2.650   5.640  17.942  0.00  0.00    +0.000 C 
ATOM      3  O   UNL     1       1.859   6.547  18.135  0.00  0.00    +0.000 OA
ATOM      4  N   UNL     1       3.956   5.834  17.584  0.00  0.00    +0.000 N 
ATOM      5  C   UNL     1       4.715   4.605  17.511  0.00  0.00    +0.000 C 
ATOM      6  C   UNL     1       3.565   3.609  17.764  0.00  0.00    +0.000 C 
ATOM      7  O   UNL     1       3.659   2.391  17.660  0.00  0.00    +0.000 OA
ATOM      8  H   UNL     1       4.362   6.755  17.483  0.00  0.00    +0.000 HD
ENDROOT
BRANCH   5   9
ATOM      9  N   UNL     1       5.184   4.387  16.156  0.00  0.00    +0.000 N 
ATOM     10  C   UNL     1       5.970   5.311  15.503  0.00  0.00    +0.000 C 
ATOM     11  O   UNL     1       6.200   6.416  15.987  0.00  0.00    +0.000 OA
ATOM     12  H   UNL     1       5.133   3.456  15.750  0.00  0.00    +0.000 HD
BRANCH  10  13
ATOM     13  C   UNL     1       6.452   4.853  14.212  0.00  0.00    +0.000 A 
ATOM     14  C   UNL     1       6.063   3.806  13.401  0.00  0.00    +0.000 A 
ATOM     15  C   UNL     1       6.915   3.828  12.271  0.00  0.00    +0.000 A 
ATOM     16  C   UNL     1       7.764   4.895  12.453  0.00  0.00    +0.000 A 
ATOM     17  O   UNL     1       7.490   5.525  13.623  0.00  0.00    +0.000 OA
ENDBRANCH  10  13
ENDBRANCH   5   9
BRANCH   5  18
ATOM     18  C   UNL     1       5.754   4.398  18.660  0.00  0.00    +0.000 C 
ATOM     19  F   UNL     1       5.917   5.534  19.387  0.00  0.00    +0.000 F 
ATOM     20  F   UNL     1       5.401   3.433  19.539  0.00  0.00    +0.000 F 
ATOM     21  F   UNL     1       6.978   4.056  18.188  0.00  0.00    +0.000 F 
ENDBRANCH   5  18
BRANCH   1  22
ATOM     22  C   UNL     1       1.114   3.699  18.250  0.00  0.00    +0.000 C 
BRANCH  22  23
ATOM     23  C   UNL     1       1.069   2.823  19.508  0.00  0.00    +0.000 C 
BRANCH  23  25
ATOM     24  C   UNL     1       2.446   3.074  21.594  0.00  0.00    +0.000 C 
ATOM     25  C   UNL     1       1.267   3.616  20.802  0.00  0.00    +0.000 C 
ENDBRANCH  23  25
ENDBRANCH  22  23
ENDBRANCH   1  22
TORSDOF 6
ENDMDL
MODEL 3
REMARK VINA RESULT:      -7.6      1.180      1.553
REMARK  Name = 
REMARK  7 active torsions:
REMARK  status: ('A' for Active; 'I' for Inactive)
REMARK    1  A    between atoms: C_1  and  C_2
REMARK    2  A    between atoms: C_2  and  C_3
REMARK    3  A    between atoms: C_3  and  C_4
REMARK    4  A    between atoms: C_4  and  N_5
REMARK    5  A    between atoms: C_9  and  N_10
REMARK    6  A    between atoms: C_9  and  C_18
REMARK    7  A    between atoms: C_11  and  C_13
REMARK                            x       y       z     vdW  Elec       q    Type
REMARK                         _______ _______ _______ _____ _____    ______ ____
ROOT
ATOM      1  N   UNL     1       2.703   4.528  18.324  0.00  0.00    +0.000 N 
ATOM      2  C   UNL     1       2.821   5.835  17.969  0.00  0.00    +0.000 C 
ATOM      3  O   UNL     1       1.999   6.723  18.118  0.00  0.00    +0.000 OA
ATOM      4  N   UNL     1       4.039   6.018  17.373  0.00  0.00    +0.000 N 
ATOM      5  C   UNL     1       4.872   4.836  17.405  0.00  0.00    +0.000 C 
ATOM      6  C   UNL     1       3.855   3.854  18.023  0.00  0.00    +0.000 C 
ATOM      7  O   UNL     1       4.028   2.646  18.133  0.00  0.00    +0.000 OA
ATOM      8  H   UNL     1       4.351   6.920  17.038  0.00  0.00    +0.000 HD
ENDROOT
BRANCH   5   9
ATOM      9  N   UNL     1       5.146   4.381  16.056  0.00  0.00    +0.000 N 
ATOM     10  C   UNL     1       5.745   5.198  15.122  0.00  0.00    +0.000 C 
ATOM     11  O   UNL     1       5.952   6.388  15.348  0.00  0.00    +0.000 OA
ATOM     12  H   UNL     1       5.112   3.386  15.845  0.00  0.00    +0.000 HD
BRANCH  10  13
ATOM     13  C   UNL     1       6.062   4.521  13.878  0.00  0.00    +0.000 A 
ATOM     14  C   UNL     1       7.229   4.434  13.145  0.00  0.00    +0.000 A 
ATOM     15  C   UNL     1       6.933   3.659  11.999  0.00  0.00    +0.000 A 
ATOM     16  C   UNL     1       5.607   3.307  12.106  0.00  0.00    +0.000 A 
ATOM     17  O   UNL     1       5.071   3.820  13.242  0.00  0.00    +0.000 OA
ENDBRANCH  10  13
ENDBRANCH   5   9
BRANCH   5  18
ATOM     18  C   UNL     1       6.086   4.908  18.388  0.00  0.00    +0.000 C 
ATOM     19  F   UNL     1       5.732   4.511  19.638  0.00  0.00    +0.000 F 
ATOM     20  F   UNL     1       7.124   4.124  18.021  0.00  0.00    +0.000 F 
ATOM     21  F   UNL     1       6.578   6.167  18.502  0.00  0.00    +0.000 F 
ENDBRANCH   5  18
BRANCH   1  22
ATOM     22  C   UNL     1       1.506   3.920  18.878  0.00  0.00    +0.000 C 
BRANCH  22  23
ATOM     23  C   UNL     1       1.227   4.334  20.328  0.00  0.00    +0.000 C 
BRANCH  23  25
ATOM     24  C   UNL     1       2.717   2.619  21.398  0.00  0.00    +0.000 C 
ATOM     25  C   UNL     1       1.301   3.166  21.313  0.00  0.00    +0.000 C 
ENDBRANCH  23  25
ENDBRANCH  22  23
ENDBRANCH   1  22
TORSDOF 6
ENDMDL
MODEL 4
REMARK VINA RESULT:      -7.6      0.910      1.003
REMARK  Name = 
REMARK  7 active torsions:
REMARK  status: ('A' for Active; 'I' for Inactive)
REMARK    1  A    between atoms: C_1  and  C_2
REMARK    2  A    between atoms: C_2  and  C_3
REMARK    3  A    between atoms: C_3  and  C_4
REMARK    4  A    between atoms: C_4  and  N_5
REMARK    5  A    between atoms: C_9  and  N_10
REMARK    6  A    between atoms: C_9  and  C_18
REMARK    7  A    between atoms: C_11  and  C_13
REMARK                            x       y       z     vdW  Elec       q    Type
REMARK                         _______ _______ _______ _____ _____    ______ ____
ROOT
ATOM      1  N   UNL     1       2.872   4.841  18.512  0.00  0.00    +0.000 N 
ATOM      2  C   UNL     1       2.982   6.118  18.058  0.00  0.00    +0.000 C 
ATOM      3  O   UNL     1       2.180   7.027  18.191  0.00  0.00    +0.000 OA
ATOM      4  N   UNL     1       4.164   6.241  17.380  0.00  0.00    +0.000 N 
ATOM      5  C   UNL     1       4.986   5.052  17.449  0.00  0.00    +0.000 C 
ATOM      6  C   UNL     1       3.997   4.132  18.193  0.00  0.00    +0.000 C 
ATOM      7  O   UNL     1       4.164   2.931  18.378  0.00  0.00    +0.000 OA
ATOM      8  H   UNL     1       4.466   7.113  16.965  0.00  0.00    +0.000 HD
ENDROOT
BRANCH   5   9
ATOM      9  N   UNL     1       5.175   4.499  16.122  0.00  0.00    +0.000 N 
ATOM     10  C   UNL     1       5.633   5.267  15.073  0.00  0.00    +0.000 C 
ATOM     11  O   UNL     1       5.775   6.482  15.182  0.00  0.00    +0.000 OA
ATOM     12  H   UNL     1       5.192   3.490  15.996  0.00  0.00    +0.000 HD
BRANCH  10  13
ATOM     13  C   UNL     1       5.888   4.505  13.865  0.00  0.00    +0.000 A 
ATOM     14  C   UNL     1       5.116   3.599  13.165  0.00  0.00    +0.000 A 
ATOM     15  C   UNL     1       5.902   3.152  12.075  0.00  0.00    +0.000 A 
ATOM     16  C   UNL     1       7.100   3.821  12.167  0.00  0.00    +0.000 A 
ATOM     17  O   UNL     1       7.101   4.646  13.244  0.00  0.00    +0.000 OA
ENDBRANCH  10  13
ENDBRANCH   5   9
BRANCH   5  18
ATOM     18  C   UNL     1       6.256   5.176  18.351  0.00  0.00    +0.000 C 
ATOM     19  F   UNL     1       7.161   4.205  18.063  0.00  0.00    +0.000 F 
ATOM     20  F   UNL     1       6.906   6.353  18.211  0.00  0.00    +0.000 F 
ATOM     21  F   UNL     1       5.960   5.058  19.669  0.00  0.00    +0.000 F 
ENDBRANCH   5  18
BRANCH   1  22
ATOM     22  C   UNL     1       1.704   4.292  19.176  0.00  0.00    +0.000 C 
BRANCH  22  23
ATOM     23  C   UNL     1       1.684   4.550  20.688  0.00  0.00    +0.000 C 
BRANCH  23  25
ATOM     24  C   UNL     1       2.778   2.444  21.509  0.00  0.00    +0.000 C 
ATOM     25  C   UNL     1       1.505   3.276  21.515  0.00  0.00    +0.000 C 
ENDBRANCH  23  25
ENDBRANCH  22  23
ENDBRANCH   1  22
TORSDOF 6
ENDMDL
MODEL 5
REMARK VINA RESULT:      -7.4      2.821      4.380
REMARK  Name = 
REMARK  7 active torsions:
REMARK  status: ('A' for Active; 'I' for Inactive)
REMARK    1  A    between atoms: C_1  and  C_2
REMARK    2  A    between atoms: C_2  and  C_3
REMARK    3  A    between atoms: C_3  and  C_4
REMARK    4  A    between atoms: C_4  and  N_5
REMARK    5  A    between atoms: C_9  and  N_10
REMARK    6  A    between atoms: C_9  and  C_18
REMARK    7  A    between atoms: C_11  and  C_13
REMARK                            x       y       z     vdW  Elec       q    Type
REMARK                         _______ _______ _______ _____ _____    ______ ____
ROOT
ATOM      1  N   UNL     1       3.682   3.693  20.047  0.00  0.00    +0.000 N 
ATOM      2  C   UNL     1       4.794   2.918  19.940  0.00  0.00    +0.000 C 
ATOM      3  O   UNL     1       5.097   1.953  20.621  0.00  0.00    +0.000 OA
ATOM      4  N   UNL     1       5.575   3.409  18.929  0.00  0.00    +0.000 N 
ATOM      5  C   UNL     1       4.952   4.496  18.207  0.00  0.00    +0.000 C 
ATOM      6  C   UNL     1       3.689   4.657  19.077  0.00  0.00    +0.000 C 
ATOM      7  O   UNL     1       2.876   5.568  18.967  0.00  0.00    +0.000 OA
ATOM      8  H   UNL     1       6.450   2.980  18.660  0.00  0.00    +0.000 HD
ENDROOT
BRANCH   5   9
ATOM      9  N   UNL     1       5.735   5.707  18.355  0.00  0.00    +0.000 N 
ATOM     10  C   UNL     1       7.039   5.787  17.916  0.00  0.00    +0.000 C 
ATOM     11  O   UNL     1       7.638   4.799  17.500  0.00  0.00    +0.000 OA
ATOM     12  H   UNL     1       5.269   6.584  18.576  0.00  0.00    +0.000 HD
BRANCH  10  13
ATOM     13  C   UNL     1       7.608   7.118  18.027  0.00  0.00    +0.000 A 
ATOM     14  C   UNL     1       7.414   8.268  17.288  0.00  0.00    +0.000 A 
ATOM     15  C   UNL     1       8.263   9.256  17.843  0.00  0.00    +0.000 A 
ATOM     16  C   UNL     1       8.913   8.654  18.896  0.00  0.00    +0.000 A 
ATOM     17  O   UNL     1       8.521   7.361  19.019  0.00  0.00    +0.000 OA
ENDBRANCH  10  13
ENDBRANCH   5   9
BRANCH   5  18
ATOM     18  C   UNL     1       4.466   4.141  16.764  0.00  0.00    +0.000 C 
ATOM     19  F   UNL     1       5.309   3.263  16.162  0.00  0.00    +0.000 F 
ATOM     20  F   UNL     1       3.240   3.571  16.733  0.00  0.00    +0.000 F 
ATOM     21  F   UNL     1       4.400   5.234  15.963  0.00  0.00    +0.000 F 
ENDBRANCH   5  18
BRANCH   1  22
ATOM     22  C   UNL     1       2.671   3.561  21.080  0.00  0.00    +0.000 C 
BRANCH  22  23
ATOM     23  C   UNL     1       1.651   2.451  20.797  0.00  0.00    +0.000 C 
BRANCH  23  25
ATOM     24  C   UNL     1       0.775   2.363  18.445  0.00  0.00    +0.000 C 
ATOM     25  C   UNL     1       0.532   2.889  19.851  0.00  0.00    +0.000 C 
ENDBRANCH  23  25
ENDBRANCH  22  23
ENDBRANCH   1  22
TORSDOF 6
ENDMDL
MODEL 6
REMARK VINA RESULT:      -7.4      0.837      1.424
REMARK  Name = 
REMARK  7 active torsions:
REMARK  status: ('A' for Active; 'I' for Inactive)
REMARK    1  A    between atoms: C_1  and  C_2
REMARK    2  A    between atoms: C_2  and  C_3
REMARK    3  A    between atoms: C_3  and  C_4
REMARK    4  A    between atoms: C_4  and  N_5
REMARK    5  A    between atoms: C_9  and  N_10
REMARK    6  A    between atoms: C_9  and  C_18
REMARK    7  A    between atoms: C_11  and  C_13
REMARK                            x       y       z     vdW  Elec       q    Type
REMARK                         _______ _______ _______ _____ _____    ______ ____
ROOT
ATOM      1  N   UNL     1       3.783   5.002  19.314  0.00  0.00    +0.000 N 
ATOM      2  C   UNL     1       3.632   6.241  18.774  0.00  0.00    +0.000 C 
ATOM      3  O   UNL     1       2.731   7.037  18.980  0.00  0.00    +0.000 OA
ATOM      4  N   UNL     1       4.668   6.472  17.911  0.00  0.00    +0.000 N 
ATOM      5  C   UNL     1       5.659   5.419  17.917  0.00  0.00    +0.000 C 
ATOM      6  C   UNL     1       4.941   4.432  18.861  0.00  0.00    +0.000 C 
ATOM      7  O   UNL     1       5.312   3.286  19.087  0.00  0.00    +0.000 OA
ATOM      8  H   UNL     1       4.769   7.340  17.402  0.00  0.00    +0.000 HD
ENDROOT
BRANCH   5   9
ATOM      9  N   UNL     1       5.729   4.792  16.611  0.00  0.00    +0.000 N 
ATOM     10  C   UNL     1       5.744   5.533  15.449  0.00  0.00    +0.000 C 
ATOM     11  O   UNL     1       5.565   6.748  15.461  0.00  0.00    +0.000 OA
ATOM     12  H   UNL     1       5.998   3.813  16.537  0.00  0.00    +0.000 HD
BRANCH  10  13
ATOM     13  C   UNL     1       5.957   4.735  14.256  0.00  0.00    +0.000 A 
ATOM     14  C   UNL     1       7.077   4.520  13.478  0.00  0.00    +0.000 A 
ATOM     15  C   UNL     1       6.680   3.668  12.420  0.00  0.00    +0.000 A 
ATOM     16  C   UNL     1       5.345   3.404  12.621  0.00  0.00    +0.000 A 
ATOM     17  O   UNL     1       4.898   4.041  13.733  0.00  0.00    +0.000 OA
ENDBRANCH  10  13
ENDBRANCH   5   9
BRANCH   5  18
ATOM     18  C   UNL     1       7.017   5.790  18.597  0.00  0.00    +0.000 C 
ATOM     19  F   UNL     1       7.418   7.039  18.244  0.00  0.00    +0.000 F 
ATOM     20  F   UNL     1       6.965   5.776  19.948  0.00  0.00    +0.000 F 
ATOM     21  F   UNL     1       8.015   4.943  18.243  0.00  0.00    +0.000 F 
ENDBRANCH   5  18
BRANCH   1  22
ATOM     22  C   UNL     1       2.823   4.351  20.186  0.00  0.00    +0.000 C 
BRANCH  22  23
ATOM     23  C   UNL     1       1.554   3.890  19.460  0.00  0.00    +0.000 C 
BRANCH  23  25
ATOM     24  C   UNL     1       2.271   2.230  17.716  0.00  0.00    +0.000 C 
ATOM     25  C   UNL     1       1.589   2.413  19.063  0.00  0.00    +0.000 C 
ENDBRANCH  23  25
ENDBRANCH  22  23
ENDBRANCH   1  22
TORSDOF 6
ENDMDL
MODEL 7
REMARK VINA RESULT:      -7.4      2.842      4.376
REMARK  Name = 
REMARK  7 active torsions:
REMARK  status: ('A' for Active; 'I' for Inactive)
REMARK    1  A    between atoms: C_1  and  C_2
REMARK    2  A    between atoms: C_2  and  C_3
REMARK    3  A    between atoms: C_3  and  C_4
REMARK    4  A    between atoms: C_4  and  N_5
REMARK    5  A    between atoms: C_9  and  N_10
REMARK    6  A    between atoms: C_9  and  C_18
REMARK    7  A    between atoms: C_11  and  C_13
REMARK                            x       y       z     vdW  Elec       q    Type
REMARK                         _______ _______ _______ _____ _____    ______ ____
ROOT
ATOM      1  N   UNL     1       3.605   3.660  20.096  0.00  0.00    +0.000 N 
ATOM      2  C   UNL     1       4.700   2.862  19.980  0.00  0.00    +0.000 C 
ATOM      3  O   UNL     1       4.988   1.890  20.659  0.00  0.00    +0.000 OA
ATOM      4  N   UNL     1       5.483   3.337  18.964  0.00  0.00    +0.000 N 
ATOM      5  C   UNL     1       4.878   4.438  18.247  0.00  0.00    +0.000 C 
ATOM      6  C   UNL     1       3.625   4.625  19.126  0.00  0.00    +0.000 C 
ATOM      7  O   UNL     1       2.830   5.552  19.022  0.00  0.00    +0.000 OA
ATOM      8  H   UNL     1       6.348   2.891  18.688  0.00  0.00    +0.000 HD
ENDROOT
BRANCH   5   9
ATOM      9  N   UNL     1       5.687   5.633  18.390  0.00  0.00    +0.000 N 
ATOM     10  C   UNL     1       7.005   5.670  17.988  0.00  0.00    +0.000 C 
ATOM     11  O   UNL     1       7.591   4.657  17.613  0.00  0.00    +0.000 OA
ATOM     12  H   UNL     1       5.237   6.526  18.577  0.00  0.00    +0.000 HD
BRANCH  10  13
ATOM     13  C   UNL     1       7.603   6.989  18.085  0.00  0.00    +0.000 A 
ATOM     14  C   UNL     1       8.512   7.527  18.974  0.00  0.00    +0.000 A 
ATOM     15  C   UNL     1       8.707   8.875  18.590  0.00  0.00    +0.000 A 
ATOM     16  C   UNL     1       7.918   9.076  17.482  0.00  0.00    +0.000 A 
ATOM     17  O   UNL     1       7.248   7.939  17.164  0.00  0.00    +0.000 OA
ENDBRANCH  10  13
ENDBRANCH   5   9
BRANCH   5  18
ATOM     18  C   UNL     1       4.374   4.094  16.807  0.00  0.00    +0.000 C 
ATOM     19  F   UNL     1       4.334   5.202  16.022  0.00  0.00    +0.000 F 
ATOM     20  F   UNL     1       5.155   3.200  16.161  0.00  0.00    +0.000 F 
ATOM     21  F   UNL     1       3.122   3.573  16.815  0.00  0.00    +0.000 F 
ENDBRANCH   5  18
BRANCH   1  22
ATOM     22  C   UNL     1       2.599   3.548  21.136  0.00  0.00    +0.000 C 
BRANCH  22  23
ATOM     23  C   UNL     1       1.525   2.496  20.834  0.00  0.00    +0.000 C 
BRANCH  23  25
ATOM     24  C   UNL     1       0.484   2.621  18.552  0.00  0.00    +0.000 C 
ATOM     25  C   UNL     1       1.575   1.980  19.395  0.00  0.00    +0.000 C 
ENDBRANCH  23  25
ENDBRANCH  22  23
ENDBRANCH   1  22
TORSDOF 6
ENDMDL
MODEL 8
REMARK VINA RESULT:      -7.3      1.079      1.563
REMARK  Name = 
REMARK  7 active torsions:
REMARK  status: ('A' for Active; 'I' for Inactive)
REMARK    1  A    between atoms: C_1  and  C_2
REMARK    2  A    between atoms: C_2  and  C_3
REMARK    3  A    between atoms: C_3  and  C_4
REMARK    4  A    between atoms: C_4  and  N_5
REMARK    5  A    between atoms: C_9  and  N_10
REMARK    6  A    between atoms: C_9  and  C_18
REMARK    7  A    between atoms: C_11  and  C_13
REMARK                            x       y       z     vdW  Elec       q    Type
REMARK                         _______ _______ _______ _____ _____    ______ ____
ROOT
ATOM      1  N   UNL     1       3.152   5.465  18.326  0.00  0.00    +0.000 N 
ATOM      2  C   UNL     1       3.539   6.739  18.050  0.00  0.00    +0.000 C 
ATOM      3  O   UNL     1       2.910   7.766  18.245  0.00  0.00    +0.000 OA
ATOM      4  N   UNL     1       4.779   6.705  17.474  0.00  0.00    +0.000 N 
ATOM      5  C   UNL     1       5.356   5.379  17.443  0.00  0.00    +0.000 C 
ATOM      6  C   UNL     1       4.150   4.591  17.994  0.00  0.00    +0.000 C 
ATOM      7  O   UNL     1       4.074   3.368  18.033  0.00  0.00    +0.000 OA
ATOM      8  H   UNL     1       5.274   7.543  17.196  0.00  0.00    +0.000 HD
ENDROOT
BRANCH   5   9
ATOM      9  N   UNL     1       5.559   4.955  16.071  0.00  0.00    +0.000 N 
ATOM     10  C   UNL     1       6.649   5.368  15.337  0.00  0.00    +0.000 C 
ATOM     11  O   UNL     1       7.427   6.217  15.765  0.00  0.00    +0.000 OA
ATOM     12  H   UNL     1       5.027   4.169  15.704  0.00  0.00    +0.000 HD
BRANCH  10  13
ATOM     13  C   UNL     1       6.749   4.729  14.038  0.00  0.00    +0.000 A 
ATOM     14  C   UNL     1       7.593   4.943  12.967  0.00  0.00    +0.000 A 
ATOM     15  C   UNL     1       7.204   4.034  11.954  0.00  0.00    +0.000 A 
ATOM     16  C   UNL     1       6.154   3.311  12.471  0.00  0.00    +0.000 A 
ATOM     17  O   UNL     1       5.873   3.720  13.734  0.00  0.00    +0.000 OA
ENDBRANCH  10  13
ENDBRANCH   5   9
BRANCH   5  18
ATOM     18  C   UNL     1       6.540   5.148  18.437  0.00  0.00    +0.000 C 
ATOM     19  F   UNL     1       7.283   6.275  18.589  0.00  0.00    +0.000 F 
ATOM     20  F   UNL     1       6.141   4.787  19.677  0.00  0.00    +0.000 F 
ATOM     21  F   UNL     1       7.385   4.177  18.010  0.00  0.00    +0.000 F 
ENDBRANCH   5  18
BRANCH   1  22
ATOM     22  C   UNL     1       1.847   5.082  18.834  0.00  0.00    +0.000 C 
BRANCH  22  23
ATOM     23  C   UNL     1       1.841   4.787  20.339  0.00  0.00    +0.000 C 
BRANCH  23  25
ATOM     24  C   UNL     1       0.842   2.664  19.441  0.00  0.00    +0.000 C 
ATOM     25  C   UNL     1       1.133   3.478  20.693  0.00  0.00    +0.000 C 
ENDBRANCH  23  25
ENDBRANCH  22  23
ENDBRANCH   1  22
TORSDOF 6
ENDMDL
MODEL 9
REMARK VINA RESULT:      -7.3      1.397      1.710
REMARK  Name = 
REMARK  7 active torsions:
REMARK  status: ('A' for Active; 'I' for Inactive)
REMARK    1  A    between atoms: C_1  and  C_2
REMARK    2  A    between atoms: C_2  and  C_3
REMARK    3  A    between atoms: C_3  and  C_4
REMARK    4  A    between atoms: C_4  and  N_5
REMARK    5  A    between atoms: C_9  and  N_10
REMARK    6  A    between atoms: C_9  and  C_18
REMARK    7  A    between atoms: C_11  and  C_13
REMARK                            x       y       z     vdW  Elec       q    Type
REMARK                         _______ _______ _______ _____ _____    ______ ____
ROOT
ATOM      1  N   UNL     1       2.443   4.328  17.943  0.00  0.00    +0.000 N 
ATOM      2  C   UNL     1       2.684   5.661  17.824  0.00  0.00    +0.000 C 
ATOM      3  O   UNL     1       1.899   6.578  17.997  0.00  0.00    +0.000 OA
ATOM      4  N   UNL     1       3.986   5.838  17.442  0.00  0.00    +0.000 N 
ATOM      5  C   UNL     1       4.739   4.603  17.400  0.00  0.00    +0.000 C 
ATOM      6  C   UNL     1       3.589   3.621  17.702  0.00  0.00    +0.000 C 
ATOM      7  O   UNL     1       3.677   2.400  17.638  0.00  0.00    +0.000 OA
ATOM      8  H   UNL     1       4.394   6.753  17.305  0.00  0.00    +0.000 HD
ENDROOT
BRANCH   5   9
ATOM      9  N   UNL     1       5.189   4.338  16.047  0.00  0.00    +0.000 N 
ATOM     10  C   UNL     1       5.956   5.244  15.346  0.00  0.00    +0.000 C 
ATOM     11  O   UNL     1       6.180   6.370  15.784  0.00  0.00    +0.000 OA
ATOM     12  H   UNL     1       5.142   3.392  15.678  0.00  0.00    +0.000 HD
BRANCH  10  13
ATOM     13  C   UNL     1       6.422   4.742  14.067  0.00  0.00    +0.000 A 
ATOM     14  C   UNL     1       7.503   5.084  13.280  0.00  0.00    +0.000 A 
ATOM     15  C   UNL     1       7.436   4.272  12.122  0.00  0.00    +0.000 A 
ATOM     16  C   UNL     1       6.327   3.474  12.277  0.00  0.00    +0.000 A 
ATOM     17  O   UNL     1       5.708   3.747  13.453  0.00  0.00    +0.000 OA
ENDBRANCH  10  13
ENDBRANCH   5   9
BRANCH   5  18
ATOM     18  C   UNL     1       5.793   4.431  18.542  0.00  0.00    +0.000 C 
ATOM     19  F   UNL     1       7.007   4.084  18.044  0.00  0.00    +0.000 F 
ATOM     20  F   UNL     1       5.989   5.553  19.270  0.00  0.00    +0.000 F 
ATOM     21  F   UNL     1       5.439   3.462  19.422  0.00  0.00    +0.000 F 
ENDBRANCH   5  18
BRANCH   1  22
ATOM     22  C   UNL     1       1.145   3.738  18.217  0.00  0.00    +0.000 C 
BRANCH  22  23
ATOM     23  C   UNL     1       1.069   3.039  19.579  0.00  0.00    +0.000 C 
BRANCH  23  25
ATOM     24  C   UNL     1       2.243   3.461  21.759  0.00  0.00    +0.000 C 
ATOM     25  C   UNL     1       1.231   3.999  20.759  0.00  0.00    +0.000 C 
ENDBRANCH  23  25
ENDBRANCH  22  23
ENDBRANCH   1  22
TORSDOF 6
ENDMDL
