MODEL 1
REMARK VINA RESULT:      -8.2      0.000      0.000
REMARK  Name = 
REMARK  11 active torsions:
REMARK  status: ('A' for Active; 'I' for Inactive)
REMARK    1  A    between atoms: C_1  and  C_2
REMARK    2  A    between atoms: C_5  and  C_6
REMARK    3  A    between atoms: C_13  and  C_14
REMARK    4  A    between atoms: C_14  and  O_15
REMARK    5  A    between atoms: O_15  and  C_16
REMARK    6  A    between atoms: C_19  and  C_20
REMARK    7  A    between atoms: C_20  and  C_21
REMARK    8  A    between atoms: C_21  and  C_22
REMARK    9  A    between atoms: C_22  and  O_24
REMARK   10  A    between atoms: C_25  and  C_26
REMARK   11  A    between atoms: C_27  and  C_28
REMARK                            x       y       z     vdW  Elec       q    Type
REMARK                         _______ _______ _______ _____ _____    ______ ____
ROOT
ATOM      1  O   UNL     1       2.985   6.702  19.306  0.00  0.00    +0.000 OA
ENDROOT
BRANCH   1   2
ATOM      2  C   UNL     1       2.187   7.802  19.115  0.00  0.00    +0.000 A 
ATOM      3  C   UNL     1       2.021   8.424  17.879  0.00  0.00    +0.000 A 
ATOM      4  C   UNL     1       1.151   9.500  17.750  0.00  0.00    +0.000 A 
ATOM      5  C   UNL     1       0.412   9.972  18.847  0.00  0.00    +0.000 A 
ATOM      6  C   UNL     1       0.575   9.357  20.112  0.00  0.00    +0.000 A 
ATOM      7  C   UNL     1      -0.201   9.821  21.320  0.00  0.00    +0.000 C 
ATOM      8  C   UNL     1       1.464   8.255  20.240  0.00  0.00    +0.000 A 
ATOM      9  C   UNL     1       1.675   7.535  21.552  0.00  0.00    +0.000 C 
BRANCH   5  10
ATOM     10  C   UNL     1      -0.528  11.128  18.588  0.00  0.00    +0.000 C 
BRANCH  10  11
ATOM     11  C   UNL     1      -1.954  10.661  18.298  0.00  0.00    +0.000 C 
BRANCH  11  12
ATOM     12  C   UNL     1      -2.211  10.613  16.812  0.00  0.00    +0.000 C 
ATOM     13  O   UNL     1      -2.424   9.597  16.168  0.00  0.00    +0.000 OA
BRANCH  12  14
ATOM     14  O   UNL     1      -2.177  11.837  16.240  0.00  0.00    +0.000 OA
ATOM     15  H   UNL     1      -1.398  11.988  15.676  0.00  0.00    +0.000 HD
ENDBRANCH  12  14
ENDBRANCH  11  12
ENDBRANCH  10  11
ENDBRANCH   5  10
ENDBRANCH   1   2
BRANCH   1  16
ATOM     16  C   UNL     1       2.384   5.440  19.021  0.00  0.00    +0.000 C 
BRANCH  16  22
ATOM     17  C   UNL     1       2.016   3.455  21.625  0.00  0.00    +0.000 C 
ATOM     18  C   UNL     1       3.050   3.415  20.565  0.00  0.00    +0.000 A 
ATOM     19  N   UNL     1       3.980   2.454  20.580  0.00  0.00    +0.000 NA
ATOM     20  O   UNL     1       4.780   2.686  19.480  0.00  0.00    +0.000 OA
ATOM     21  C   UNL     1       4.339   3.788  18.809  0.00  0.00    +0.000 A 
ATOM     22  C   UNL     1       3.222   4.289  19.454  0.00  0.00    +0.000 A 
BRANCH  21  23
ATOM     23  C   UNL     1       5.122   4.165  17.636  0.00  0.00    +0.000 A 
ATOM     24  C   UNL     1       4.568   4.089  16.348  0.00  0.00    +0.000 A 
ATOM     25  C   UNL     1       5.330   4.411  15.220  0.00  0.00    +0.000 A 
ATOM     26  C   UNL     1       6.653   4.820  15.370  0.00  0.00    +0.000 A 
ATOM     27 CL   UNL     1       7.604   5.181  13.984  0.00  0.00    +0.000 Cl
ATOM     28  C   UNL     1       7.214   4.920  16.638  0.00  0.00    +0.000 A 
ATOM     29  C   UNL     1       6.452   4.592  17.763  0.00  0.00    +0.000 A 
ENDBRANCH  21  23
ENDBRANCH  16  22
ENDBRANCH   1  16
TORSDOF 8
ENDMDL
MODEL 2
REMARK VINA RESULT:      -8.1      2.590      3.717
REMARK  Name = 
REMARK  11 active torsions:
REMARK  status: ('A' for Active; 'I' for Inactive)
REMARK    1  A    between atoms: C_1  and  C_2
REMARK    2  A    between atoms: C_5  and  C_6
REMARK    3  A    between atoms: C_13  and  C_14
REMARK    4  A    between atoms: C_14  and  O_15
REMARK    5  A    between atoms: O_15  and  C_16
REMARK    6  A    between atoms: C_19  and  C_20
REMARK    7  A    between atoms: C_20  and  C_21
REMARK    8  A    between atoms: C_21  and  C_22
REMARK    9  A    between atoms: C_22  and  O_24
REMARK   10  A    between atoms: C_25  and  C_26
REMARK   11  A    between atoms: C_27  and  C_28
REMARK                            x       y       z     vdW  Elec       q    Type
REMARK                         _______ _______ _______ _____ _____    ______ ____
ROOT
ATOM      1  O   UNL     1       3.239   6.879  17.874  0.00  0.00    +0.000 OA
ENDROOT
BRANCH   1   2
ATOM      2  C   UNL     1       2.525   7.935  18.382  0.00  0.00    +0.000 A 
ATOM      3  C   UNL     1       2.331   9.131  17.695  0.00  0.00    +0.000 A 
ATOM      4  C   UNL     1       1.548  10.136  18.250  0.00  0.00    +0.000 A 
ATOM      5  C   UNL     1       0.925   9.967  19.496  0.00  0.00    +0.000 A 
ATOM      6  C   UNL     1       1.119   8.760  20.213  0.00  0.00    +0.000 A 
ATOM      7  C   UNL     1       0.466   8.525  21.553  0.00  0.00    +0.000 C 
ATOM      8  C   UNL     1       1.919   7.734  19.641  0.00  0.00    +0.000 A 
ATOM      9  C   UNL     1       2.155   6.412  20.336  0.00  0.00    +0.000 C 
BRANCH   5  10
ATOM     10  C   UNL     1       0.071  11.112  19.993  0.00  0.00    +0.000 C 
BRANCH  10  11
ATOM     11  C   UNL     1      -0.162  12.169  18.914  0.00  0.00    +0.000 C 
BRANCH  11  12
ATOM     12  C   UNL     1      -1.556  12.059  18.347  0.00  0.00    +0.000 C 
ATOM     13  O   UNL     1      -2.553  11.757  18.984  0.00  0.00    +0.000 OA
BRANCH  12  14
ATOM     14  O   UNL     1      -1.600  12.328  17.023  0.00  0.00    +0.000 OA
ATOM     15  H   UNL     1      -0.728  12.494  16.625  0.00  0.00    +0.000 HD
ENDBRANCH  12  14
ENDBRANCH  11  12
ENDBRANCH  10  11
ENDBRANCH   5  10
ENDBRANCH   1   2
BRANCH   1  16
ATOM     16  C   UNL     1       4.515   7.199  17.320  0.00  0.00    +0.000 C 
BRANCH  16  22
ATOM     17  C   UNL     1       7.766   7.696  17.514  0.00  0.00    +0.000 C 
ATOM     18  C   UNL     1       6.988   6.485  17.865  0.00  0.00    +0.000 A 
ATOM     19  N   UNL     1       7.616   5.413  18.361  0.00  0.00    +0.000 NA
ATOM     20  O   UNL     1       6.634   4.470  18.582  0.00  0.00    +0.000 OA
ATOM     21  C   UNL     1       5.420   4.967  18.213  0.00  0.00    +0.000 A 
ATOM     22  C   UNL     1       5.586   6.263  17.757  0.00  0.00    +0.000 A 
BRANCH  21  23
ATOM     23  C   UNL     1       4.293   4.052  18.365  0.00  0.00    +0.000 A 
ATOM     24  C   UNL     1       3.481   3.723  17.268  0.00  0.00    +0.000 A 
ATOM     25  C   UNL     1       2.377   2.880  17.421  0.00  0.00    +0.000 A 
ATOM     26  C   UNL     1       2.075   2.350  18.674  0.00  0.00    +0.000 A 
ATOM     27 CL   UNL     1       0.697   1.343  18.875  0.00  0.00    +0.000 Cl
ATOM     28  C   UNL     1       2.878   2.648  19.770  0.00  0.00    +0.000 A 
ATOM     29  C   UNL     1       3.978   3.497  19.615  0.00  0.00    +0.000 A 
ENDBRANCH  21  23
ENDBRANCH  16  22
ENDBRANCH   1  16
TORSDOF 8
ENDMDL
MODEL 3
REMARK VINA RESULT:      -8.0      2.716      3.474
REMARK  Name = 
REMARK  11 active torsions:
REMARK  status: ('A' for Active; 'I' for Inactive)
REMARK    1  A    between atoms: C_1  and  C_2
REMARK    2  A    between atoms: C_5  and  C_6
REMARK    3  A    between atoms: C_13  and  C_14
REMARK    4  A    between atoms: C_14  and  O_15
REMARK    5  A    between atoms: O_15  and  C_16
REMARK    6  A    between atoms: C_19  and  C_20
REMARK    7  A    between atoms: C_20  and  C_21
REMARK    8  A    between atoms: C_21  and  C_22
REMARK    9  A    between atoms: C_22  and  O_24
REMARK   10  A    between atoms: C_25  and  C_26
REMARK   11  A    between atoms: C_27  and  C_28
REMARK                            x       y       z     vdW  Elec       q    Type
REMARK                         _______ _______ _______ _____ _____    ______ ____
ROOT
ATOM      1  O   UNL     1       2.450   6.563  19.450  0.00  0.00    +0.000 OA
ENDROOT
BRANCH   1   2
ATOM      2  C   UNL     1       1.764   7.625  19.982  0.00  0.00    +0.000 A 
ATOM      3  C   UNL     1       1.270   7.645  21.285  0.00  0.00    +0.000 A 
ATOM      4  C   UNL     1       0.634   8.780  21.773  0.00  0.00    +0.000 A 
ATOM      5  C   UNL     1       0.488   9.929  20.980  0.00  0.00    +0.000 A 
ATOM      6  C   UNL     1       0.976   9.924  19.650  0.00  0.00    +0.000 A 
ATOM      7  C   UNL     1       0.852  11.135  18.759  0.00  0.00    +0.000 C 
ATOM      8  C   UNL     1       1.628   8.762  19.155  0.00  0.00    +0.000 A 
ATOM      9  C   UNL     1       2.193   8.687  17.755  0.00  0.00    +0.000 C 
BRANCH   5  10
ATOM     10  C   UNL     1      -0.193  11.118  21.621  0.00  0.00    +0.000 C 
BRANCH  10  11
ATOM     11  C   UNL     1      -1.019  10.721  22.844  0.00  0.00    +0.000 C 
BRANCH  11  12
ATOM     12  C   UNL     1      -1.919  11.853  23.274  0.00  0.00    +0.000 C 
ATOM     13  O   UNL     1      -3.090  11.735  23.602  0.00  0.00    +0.000 OA
BRANCH  12  14
ATOM     14  O   UNL     1      -1.291  13.050  23.258  0.00  0.00    +0.000 OA
ATOM     15  H   UNL     1      -1.871  13.797  23.026  0.00  0.00    +0.000 HD
ENDBRANCH  12  14
ENDBRANCH  11  12
ENDBRANCH  10  11
ENDBRANCH   5  10
ENDBRANCH   1   2
BRANCH   1  16
ATOM     16  C   UNL     1       1.928   5.270  19.752  0.00  0.00    +0.000 C 
BRANCH  16  22
ATOM     17  C   UNL     1       0.648   2.329  18.998  0.00  0.00    +0.000 C 
ATOM     18  C   UNL     1       1.910   2.943  18.523  0.00  0.00    +0.000 A 
ATOM     19  N   UNL     1       2.677   2.290  17.644  0.00  0.00    +0.000 NA
ATOM     20  O   UNL     1       3.760   3.111  17.404  0.00  0.00    +0.000 OA
ATOM     21  C   UNL     1       3.650   4.252  18.142  0.00  0.00    +0.000 A 
ATOM     22  C   UNL     1       2.474   4.204  18.869  0.00  0.00    +0.000 A 
BRANCH  21  23
ATOM     23  C   UNL     1       4.753   5.198  18.005  0.00  0.00    +0.000 A 
ATOM     24  C   UNL     1       4.739   6.177  16.999  0.00  0.00    +0.000 A 
ATOM     25  C   UNL     1       5.813   7.058  16.841  0.00  0.00    +0.000 A 
ATOM     26  C   UNL     1       6.912   6.973  17.693  0.00  0.00    +0.000 A 
ATOM     27 CL   UNL     1       8.251   8.029  17.479  0.00  0.00    +0.000 Cl
ATOM     28  C   UNL     1       6.937   6.023  18.708  0.00  0.00    +0.000 A 
ATOM     29  C   UNL     1       5.864   5.140  18.860  0.00  0.00    +0.000 A 
ENDBRANCH  21  23
ENDBRANCH  16  22
ENDBRANCH   1  16
TORSDOF 8
ENDMDL
MODEL 4
REMARK VINA RESULT:      -8.0      0.785      1.212
REMARK  Name = 
REMARK  11 active torsions:
REMARK  status: ('A' for Active; 'I' for Inactive)
REMARK    1  A    between atoms: C_1  and  C_2
REMARK    2  A    between atoms: C_5  and  C_6
REMARK    3  A    between atoms: C_13  and  C_14
REMARK    4  A    between atoms: C_14  and  O_15
REMARK    5  A    between atoms: O_15  and  C_16
REMARK    6  A    between atoms: C_19  and  C_20
REMARK    7  A    between atoms: C_20  and  C_21
REMARK    8  A    between atoms: C_21  and  C_22
REMARK    9  A    between atoms: C_22  and  O_24
REMARK   10  A    between atoms: C_25  and  C_26
REMARK   11  A    between atoms: C_27  and  C_28
REMARK                            x       y       z     vdW  Elec       q    Type
REMARK                         _______ _______ _______ _____ _____    ______ ____
ROOT
ATOM      1  O   UNL     1       2.745   7.274  19.258  0.00  0.00    +0.000 OA
ENDROOT
BRANCH   1   2
ATOM      2  C   UNL     1       1.834   8.285  19.084  0.00  0.00    +0.000 A 
ATOM      3  C   UNL     1       1.498   8.809  17.837  0.00  0.00    +0.000 A 
ATOM      4  C   UNL     1       0.524   9.794  17.732  0.00  0.00    +0.000 A 
ATOM      5  C   UNL     1      -0.153  10.269  18.867  0.00  0.00    +0.000 A 
ATOM      6  C   UNL     1       0.182   9.754  20.144  0.00  0.00    +0.000 A 
ATOM      7  C   UNL     1      -0.521  10.226  21.393  0.00  0.00    +0.000 C 
ATOM      8  C   UNL     1       1.177   8.745  20.246  0.00  0.00    +0.000 A 
ATOM      9  C   UNL     1       1.574   8.132  21.570  0.00  0.00    +0.000 C 
BRANCH   5  10
ATOM     10  C   UNL     1      -1.217  11.320  18.636  0.00  0.00    +0.000 C 
BRANCH  10  11
ATOM     11  C   UNL     1      -2.561  10.706  18.250  0.00  0.00    +0.000 C 
BRANCH  11  12
ATOM     12  C   UNL     1      -3.000  11.188  16.889  0.00  0.00    +0.000 C 
ATOM     13  O   UNL     1      -2.498  10.851  15.828  0.00  0.00    +0.000 OA
BRANCH  12  14
ATOM     14  O   UNL     1      -4.032  12.059  16.956  0.00  0.00    +0.000 OA
ATOM     15  H   UNL     1      -4.586  11.955  17.750  0.00  0.00    +0.000 HD
ENDBRANCH  12  14
ENDBRANCH  11  12
ENDBRANCH  10  11
ENDBRANCH   5  10
ENDBRANCH   1   2
BRANCH   1  16
ATOM     16  C   UNL     1       2.618   6.162  18.373  0.00  0.00    +0.000 C 
BRANCH  16  22
ATOM     17  C   UNL     1       1.900   4.414  21.072  0.00  0.00    +0.000 C 
ATOM     18  C   UNL     1       2.940   4.158  20.048  0.00  0.00    +0.000 A 
ATOM     19  N   UNL     1       3.717   3.074  20.147  0.00  0.00    +0.000 NA
ATOM     20  O   UNL     1       4.567   3.119  19.061  0.00  0.00    +0.000 OA
ATOM     21  C   UNL     1       4.310   4.231  18.316  0.00  0.00    +0.000 A 
ATOM     22  C   UNL     1       3.265   4.928  18.896  0.00  0.00    +0.000 A 
BRANCH  21  23
ATOM     23  C   UNL     1       5.167   4.418  17.149  0.00  0.00    +0.000 A 
ATOM     24  C   UNL     1       6.468   4.926  17.287  0.00  0.00    +0.000 A 
ATOM     25  C   UNL     1       7.276   5.144  16.166  0.00  0.00    +0.000 A 
ATOM     26  C   UNL     1       6.791   4.849  14.894  0.00  0.00    +0.000 A 
ATOM     27 CL   UNL     1       7.766   5.149  13.511  0.00  0.00    +0.000 Cl
ATOM     28  C   UNL     1       5.513   4.326  14.737  0.00  0.00    +0.000 A 
ATOM     29  C   UNL     1       4.706   4.115  15.858  0.00  0.00    +0.000 A 
ENDBRANCH  21  23
ENDBRANCH  16  22
ENDBRANCH   1  16
TORSDOF 8
ENDMDL
MODEL 5
REMARK VINA RESULT:      -7.9      2.004      2.866
REMARK  Name = 
REMARK  11 active torsions:
REMARK  status: ('A' for Active; 'I' for Inactive)
REMARK    1  A    between atoms: C_1  and  C_2
REMARK    2  A    between atoms: C_5  and  C_6
REMARK    3  A    between atoms: C_13  and  C_14
REMARK    4  A    between atoms: C_14  and  O_15
REMARK    5  A    between atoms: O_15  and  C_16
REMARK    6  A    between atoms: C_19  and  C_20
REMARK    7  A    between atoms: C_20  and  C_21
REMARK    8  A    between atoms: C_21  and  C_22
REMARK    9  A    between atoms: C_22  and  O_24
REMARK   10  A    between atoms: C_25  and  C_26
REMARK   11  A    between atoms: C_27  and  C_28
REMARK                            x       y       z     vdW  Elec       q    Type
REMARK                         _______ _______ _______ _____ _____    ______ ____
ROOT
ATOM      1  O   UNL     1       2.876   6.512  19.590  0.00  0.00    +0.000 OA
ENDROOT
BRANCH   1   2
ATOM      2  C   UNL     1       1.967   7.483  19.923  0.00  0.00    +0.000 A 
ATOM      3  C   UNL     1       1.268   7.499  21.129  0.00  0.00    +0.000 A 
ATOM      4  C   UNL     1       0.404   8.547  21.421  0.00  0.00    +0.000 A 
ATOM      5  C   UNL     1       0.227   9.615  20.526  0.00  0.00    +0.000 A 
ATOM      6  C   UNL     1       0.923   9.611  19.292  0.00  0.00    +0.000 A 
ATOM      7  C   UNL     1       0.774  10.737  18.299  0.00  0.00    +0.000 C 
ATOM      8  C   UNL     1       1.808   8.538  18.997  0.00  0.00    +0.000 A 
ATOM      9  C   UNL     1       2.600   8.474  17.712  0.00  0.00    +0.000 C 
BRANCH   5  10
ATOM     10  C   UNL     1      -0.714  10.718  20.958  0.00  0.00    +0.000 C 
BRANCH  10  11
ATOM     11  C   UNL     1      -0.510  11.111  22.420  0.00  0.00    +0.000 C 
BRANCH  11  12
ATOM     12  C   UNL     1      -1.350  12.314  22.774  0.00  0.00    +0.000 C 
ATOM     13  O   UNL     1      -1.063  13.149  23.618  0.00  0.00    +0.000 OA
BRANCH  12  14
ATOM     14  O   UNL     1      -2.490  12.383  22.049  0.00  0.00    +0.000 OA
ATOM     15  H   UNL     1      -2.560  11.700  21.359  0.00  0.00    +0.000 HD
ENDBRANCH  12  14
ENDBRANCH  11  12
ENDBRANCH  10  11
ENDBRANCH   5  10
ENDBRANCH   1   2
BRANCH   1  16
ATOM     16  C   UNL     1       2.329   5.245  19.227  0.00  0.00    +0.000 C 
BRANCH  16  22
ATOM     17  C   UNL     1       2.019   3.201  21.792  0.00  0.00    +0.000 C 
ATOM     18  C   UNL     1       3.047   3.204  20.726  0.00  0.00    +0.000 A 
ATOM     19  N   UNL     1       3.998   2.264  20.716  0.00  0.00    +0.000 NA
ATOM     20  O   UNL     1       4.786   2.535  19.617  0.00  0.00    +0.000 OA
ATOM     21  C   UNL     1       4.318   3.640  18.971  0.00  0.00    +0.000 A 
ATOM     22  C   UNL     1       3.194   4.104  19.632  0.00  0.00    +0.000 A 
BRANCH  21  23
ATOM     23  C   UNL     1       5.086   4.058  17.802  0.00  0.00    +0.000 A 
ATOM     24  C   UNL     1       4.550   3.939  16.511  0.00  0.00    +0.000 A 
ATOM     25  C   UNL     1       5.300   4.301  15.387  0.00  0.00    +0.000 A 
ATOM     26  C   UNL     1       6.594   4.792  15.545  0.00  0.00    +0.000 A 
ATOM     27 CL   UNL     1       7.533   5.203  14.165  0.00  0.00    +0.000 Cl
ATOM     28  C   UNL     1       7.137   4.936  16.817  0.00  0.00    +0.000 A 
ATOM     29  C   UNL     1       6.387   4.568  17.937  0.00  0.00    +0.000 A 
ENDBRANCH  21  23
ENDBRANCH  16  22
ENDBRANCH   1  16
TORSDOF 8
ENDMDL
MODEL 6
REMARK VINA RESULT:      -7.8      4.003      8.141
REMARK  Name = 
REMARK  11 active torsions:
REMARK  status: ('A' for Active; 'I' for Inactive)
REMARK    1  A    between atoms: C_1  and  C_2
REMARK    2  A    between atoms: C_5  and  C_6
REMARK    3  A    between atoms: C_13  and  C_14
REMARK    4  A    between atoms: C_14  and  O_15
REMARK    5  A    between atoms: O_15  and  C_16
REMARK    6  A    between atoms: C_19  and  C_20
REMARK    7  A    between atoms: C_20  and  C_21
REMARK    8  A    between atoms: C_21  and  C_22
REMARK    9  A    between atoms: C_22  and  O_24
REMARK   10  A    between atoms: C_25  and  C_26
REMARK   11  A    between atoms: C_27  and  C_28
REMARK                            x       y       z     vdW  Elec       q    Type
REMARK                         _______ _______ _______ _____ _____    ______ ____
ROOT
ATOM      1  O   UNL     1       1.779   8.021  20.091  0.00  0.00    +0.000 OA
ENDROOT
BRANCH   1   2
ATOM      2  C   UNL     1       2.451   7.250  19.177  0.00  0.00    +0.000 A 
ATOM      3  C   UNL     1       3.123   7.777  18.076  0.00  0.00    +0.000 A 
ATOM      4  C   UNL     1       3.831   6.938  17.223  0.00  0.00    +0.000 A 
ATOM      5  C   UNL     1       3.901   5.556  17.457  0.00  0.00    +0.000 A 
ATOM      6  C   UNL     1       3.216   5.002  18.567  0.00  0.00    +0.000 A 
ATOM      7  C   UNL     1       3.265   3.524  18.866  0.00  0.00    +0.000 C 
ATOM      8  C   UNL     1       2.495   5.863  19.438  0.00  0.00    +0.000 A 
ATOM      9  C   UNL     1       1.758   5.350  20.653  0.00  0.00    +0.000 C 
BRANCH   5  10
ATOM     10  C   UNL     1       4.723   4.740  16.484  0.00  0.00    +0.000 C 
BRANCH  10  11
ATOM     11  C   UNL     1       5.703   5.604  15.690  0.00  0.00    +0.000 C 
BRANCH  11  12
ATOM     12  C   UNL     1       7.089   5.525  16.282  0.00  0.00    +0.000 C 
ATOM     13  O   UNL     1       7.723   4.495  16.454  0.00  0.00    +0.000 OA
BRANCH  12  14
ATOM     14  O   UNL     1       7.578   6.739  16.622  0.00  0.00    +0.000 OA
ATOM     15  H   UNL     1       8.533   6.838  16.462  0.00  0.00    +0.000 HD
ENDBRANCH  12  14
ENDBRANCH  11  12
ENDBRANCH  10  11
ENDBRANCH   5  10
ENDBRANCH   1   2
BRANCH   1  16
ATOM     16  C   UNL     1       1.208   9.228  19.588  0.00  0.00    +0.000 C 
BRANCH  16  22
ATOM     17  C   UNL     1      -0.603   8.588  22.264  0.00  0.00    +0.000 C 
ATOM     18  C   UNL     1       0.001   9.872  21.836  0.00  0.00    +0.000 A 
ATOM     19  N   UNL     1      -0.140  10.960  22.600  0.00  0.00    +0.000 NA
ATOM     20  O   UNL     1       0.525  11.973  21.940  0.00  0.00    +0.000 OA
ATOM     21  C   UNL     1       1.057  11.500  20.778  0.00  0.00    +0.000 A 
ATOM     22  C   UNL     1       0.762  10.152  20.666  0.00  0.00    +0.000 A 
BRANCH  21  23
ATOM     23  C   UNL     1       1.763  12.483  19.962  0.00  0.00    +0.000 A 
ATOM     24  C   UNL     1       2.440  13.558  20.560  0.00  0.00    +0.000 A 
ATOM     25  C   UNL     1       3.082  14.523  19.778  0.00  0.00    +0.000 A 
ATOM     26  C   UNL     1       3.059  14.420  18.389  0.00  0.00    +0.000 A 
ATOM     27 CL   UNL     1       3.815  15.625  17.423  0.00  0.00    +0.000 Cl
ATOM     28  C   UNL     1       2.410  13.353  17.778  0.00  0.00    +0.000 A 
ATOM     29  C   UNL     1       1.764  12.393  18.562  0.00  0.00    +0.000 A 
ENDBRANCH  21  23
ENDBRANCH  16  22
ENDBRANCH   1  16
TORSDOF 8
ENDMDL
MODEL 7
REMARK VINA RESULT:      -7.8      2.691      3.517
REMARK  Name = 
REMARK  11 active torsions:
REMARK  status: ('A' for Active; 'I' for Inactive)
REMARK    1  A    between atoms: C_1  and  C_2
REMARK    2  A    between atoms: C_5  and  C_6
REMARK    3  A    between atoms: C_13  and  C_14
REMARK    4  A    between atoms: C_14  and  O_15
REMARK    5  A    between atoms: O_15  and  C_16
REMARK    6  A    between atoms: C_19  and  C_20
REMARK    7  A    between atoms: C_20  and  C_21
REMARK    8  A    between atoms: C_21  and  C_22
REMARK    9  A    between atoms: C_22  and  O_24
REMARK   10  A    between atoms: C_25  and  C_26
REMARK   11  A    between atoms: C_27  and  C_28
REMARK                            x       y       z     vdW  Elec       q    Type
REMARK                         _______ _______ _______ _____ _____    ______ ____
ROOT
ATOM      1  O   UNL     1       2.701   6.408  19.772  0.00  0.00    +0.000 OA
ENDROOT
BRANCH   1   2
ATOM      2  C   UNL     1       1.836   7.445  20.012  0.00  0.00    +0.000 A 
ATOM      3  C   UNL     1       1.090   7.567  21.183  0.00  0.00    +0.000 A 
ATOM      4  C   UNL     1       0.276   8.676  21.379  0.00  0.00    +0.000 A 
ATOM      5  C   UNL     1       0.198   9.699  20.421  0.00  0.00    +0.000 A 
ATOM      6  C   UNL     1       0.942   9.587  19.221  0.00  0.00    +0.000 A 
ATOM      7  C   UNL     1       0.899  10.662  18.163  0.00  0.00    +0.000 C 
ATOM      8  C   UNL     1       1.776   8.453  19.024  0.00  0.00    +0.000 A 
ATOM      9  C   UNL     1       2.615   8.273  17.780  0.00  0.00    +0.000 C 
BRANCH   5  10
ATOM     10  C   UNL     1      -0.695  10.875  20.751  0.00  0.00    +0.000 C 
BRANCH  10  11
ATOM     11  C   UNL     1      -0.065  11.808  21.783  0.00  0.00    +0.000 C 
BRANCH  11  12
ATOM     12  C   UNL     1      -1.042  12.121  22.890  0.00  0.00    +0.000 C 
ATOM     13  O   UNL     1      -1.263  13.235  23.339  0.00  0.00    +0.000 OA
BRANCH  12  14
ATOM     14  O   UNL     1      -1.667  11.017  23.358  0.00  0.00    +0.000 OA
ATOM     15  H   UNL     1      -2.488  10.797  22.882  0.00  0.00    +0.000 HD
ENDBRANCH  12  14
ENDBRANCH  11  12
ENDBRANCH  10  11
ENDBRANCH   5  10
ENDBRANCH   1   2
BRANCH   1  16
ATOM     16  C   UNL     1       2.190   5.099  20.024  0.00  0.00    +0.000 C 
BRANCH  16  22
ATOM     17  C   UNL     1       0.634   2.345  19.104  0.00  0.00    +0.000 C 
ATOM     18  C   UNL     1       1.870   2.944  18.548  0.00  0.00    +0.000 A 
ATOM     19  N   UNL     1       2.482   2.362  17.511  0.00  0.00    +0.000 NA
ATOM     20  O   UNL     1       3.582   3.148  17.233  0.00  0.00    +0.000 OA
ATOM     21  C   UNL     1       3.638   4.195  18.104  0.00  0.00    +0.000 A 
ATOM     22  C   UNL     1       2.555   4.121  18.963  0.00  0.00    +0.000 A 
BRANCH  21  23
ATOM     23  C   UNL     1       4.778   5.091  17.940  0.00  0.00    +0.000 A 
ATOM     24  C   UNL     1       5.819   5.107  18.881  0.00  0.00    +0.000 A 
ATOM     25  C   UNL     1       6.893   5.994  18.747  0.00  0.00    +0.000 A 
ATOM     26  C   UNL     1       6.939   6.870  17.664  0.00  0.00    +0.000 A 
ATOM     27 CL   UNL     1       8.237   7.986  17.514  0.00  0.00    +0.000 Cl
ATOM     28  C   UNL     1       5.927   6.855  16.710  0.00  0.00    +0.000 A 
ATOM     29  C   UNL     1       4.853   5.972  16.851  0.00  0.00    +0.000 A 
ENDBRANCH  21  23
ENDBRANCH  16  22
ENDBRANCH   1  16
TORSDOF 8
ENDMDL
MODEL 8
REMARK VINA RESULT:      -7.8      2.532      3.722
REMARK  Name = 
REMARK  11 active torsions:
REMARK  status: ('A' for Active; 'I' for Inactive)
REMARK    1  A    between atoms: C_1  and  C_2
REMARK    2  A    between atoms: C_5  and  C_6
REMARK    3  A    between atoms: C_13  and  C_14
REMARK    4  A    between atoms: C_14  and  O_15
REMARK    5  A    between atoms: O_15  and  C_16
REMARK    6  A    between atoms: C_19  and  C_20
REMARK    7  A    between atoms: C_20  and  C_21
REMARK    8  A    between atoms: C_21  and  C_22
REMARK    9  A    between atoms: C_22  and  O_24
REMARK   10  A    between atoms: C_25  and  C_26
REMARK   11  A    between atoms: C_27  and  C_28
REMARK                            x       y       z     vdW  Elec       q    Type
REMARK                         _______ _______ _______ _____ _____    ______ ____
ROOT
ATOM      1  O   UNL     1       3.197   6.963  18.064  0.00  0.00    +0.000 OA
ENDROOT
BRANCH   1   2
ATOM      2  C   UNL     1       2.448   8.047  18.447  0.00  0.00    +0.000 A 
ATOM      3  C   UNL     1       2.277   9.180  17.655  0.00  0.00    +0.000 A 
ATOM      4  C   UNL     1       1.457  10.216  18.086  0.00  0.00    +0.000 A 
ATOM      5  C   UNL     1       0.773  10.140  19.310  0.00  0.00    +0.000 A 
ATOM      6  C   UNL     1       0.943   8.999  20.132  0.00  0.00    +0.000 A 
ATOM      7  C   UNL     1       0.225   8.865  21.453  0.00  0.00    +0.000 C 
ATOM      8  C   UNL     1       1.781   7.941  19.687  0.00  0.00    +0.000 A 
ATOM      9  C   UNL     1       1.994   6.684  20.498  0.00  0.00    +0.000 C 
BRANCH   5  10
ATOM     10  C   UNL     1      -0.117  11.310  19.667  0.00  0.00    +0.000 C 
BRANCH  10  11
ATOM     11  C   UNL     1      -1.542  11.132  19.148  0.00  0.00    +0.000 C 
BRANCH  11  12
ATOM     12  C   UNL     1      -1.690  11.730  17.770  0.00  0.00    +0.000 C 
ATOM     13  O   UNL     1      -2.320  11.232  16.850  0.00  0.00    +0.000 OA
BRANCH  12  14
ATOM     14  O   UNL     1      -1.035  12.906  17.643  0.00  0.00    +0.000 OA
ATOM     15  H   UNL     1      -1.053  13.272  16.741  0.00  0.00    +0.000 HD
ENDBRANCH  12  14
ENDBRANCH  11  12
ENDBRANCH  10  11
ENDBRANCH   5  10
ENDBRANCH   1   2
BRANCH   1  16
ATOM     16  C   UNL     1       4.446   7.259  17.440  0.00  0.00    +0.000 C 
BRANCH  16  22
ATOM     17  C   UNL     1       7.716   7.660  17.468  0.00  0.00    +0.000 C 
ATOM     18  C   UNL     1       6.924   6.460  17.822  0.00  0.00    +0.000 A 
ATOM     19  N   UNL     1       7.546   5.355  18.249  0.00  0.00    +0.000 NA
ATOM     20  O   UNL     1       6.551   4.432  18.495  0.00  0.00    +0.000 OA
ATOM     21  C   UNL     1       5.334   4.975  18.210  0.00  0.00    +0.000 A 
ATOM     22  C   UNL     1       5.512   6.280  17.786  0.00  0.00    +0.000 A 
BRANCH  21  23
ATOM     23  C   UNL     1       4.190   4.087  18.396  0.00  0.00    +0.000 A 
ATOM     24  C   UNL     1       3.819   3.653  19.679  0.00  0.00    +0.000 A 
ATOM     25  C   UNL     1       2.749   2.771  19.856  0.00  0.00    +0.000 A 
ATOM     26  C   UNL     1       2.034   2.317  18.749  0.00  0.00    +0.000 A 
ATOM     27 CL   UNL     1       0.741   1.203  18.958  0.00  0.00    +0.000 Cl
ATOM     28  C   UNL     1       2.372   2.750  17.472  0.00  0.00    +0.000 A 
ATOM     29  C   UNL     1       3.446   3.627  17.299  0.00  0.00    +0.000 A 
ENDBRANCH  21  23
ENDBRANCH  16  22
ENDBRANCH   1  16
TORSDOF 8
ENDMDL
MODEL 9
REMARK VINA RESULT:      -7.8      1.364      1.597
REMARK  Name = 
REMARK  11 active torsions:
REMARK  status: ('A' for Active; 'I' for Inactive)
REMARK    1  A    between atoms: C_1  and  C_2
REMARK    2  A    between atoms: C_5  and  C_6
REMARK    3  A    between atoms: C_13  and  C_14
REMARK    4  A    between atoms: C_14  and  O_15
REMARK    5  A    between atoms: O_15  and  C_16
REMARK    6  A    between atoms: C_19  and  C_20
REMARK    7  A    between atoms: C_20  and  C_21
REMARK    8  A    between atoms: C_21  and  C_22
REMARK    9  A    between atoms: C_22  and  O_24
REMARK   10  A    between atoms: C_25  and  C_26
REMARK   11  A    between atoms: C_27  and  C_28
REMARK                            x       y       z     vdW  Elec       q    Type
REMARK                         _______ _______ _______ _____ _____    ______ ____
ROOT
ATOM      1  O   UNL     1       2.997   6.495  18.704  0.00  0.00    +0.000 OA
ENDROOT
BRANCH   1   2
ATOM      2  C   UNL     1       2.322   7.656  18.981  0.00  0.00    +0.000 A 
ATOM      3  C   UNL     1       2.221   8.718  18.083  0.00  0.00    +0.000 A 
ATOM      4  C   UNL     1       1.472   9.841  18.412  0.00  0.00    +0.000 A 
ATOM      5  C   UNL     1       0.791   9.927  19.637  0.00  0.00    +0.000 A 
ATOM      6  C   UNL     1       0.890   8.862  20.565  0.00  0.00    +0.000 A 
ATOM      7  C   UNL     1       0.172   8.901  21.891  0.00  0.00    +0.000 C 
ATOM      8  C   UNL     1       1.655   7.713  20.224  0.00  0.00    +0.000 A 
ATOM      9  C   UNL     1       1.791   6.528  21.153  0.00  0.00    +0.000 C 
BRANCH   5  10
ATOM     10  C   UNL     1      -0.020  11.181  19.879  0.00  0.00    +0.000 C 
BRANCH  10  11
ATOM     11  C   UNL     1      -1.284  11.227  19.023  0.00  0.00    +0.000 C 
BRANCH  11  12
ATOM     12  C   UNL     1      -1.211  12.350  18.018  0.00  0.00    +0.000 C 
ATOM     13  O   UNL     1      -0.600  13.396  18.175  0.00  0.00    +0.000 OA
BRANCH  12  14
ATOM     14  O   UNL     1      -1.910  12.085  16.892  0.00  0.00    +0.000 OA
ATOM     15  H   UNL     1      -2.719  12.618  16.794  0.00  0.00    +0.000 HD
ENDBRANCH  12  14
ENDBRANCH  11  12
ENDBRANCH  10  11
ENDBRANCH   5  10
ENDBRANCH   1   2
BRANCH   1  16
ATOM     16  C   UNL     1       2.357   5.606  17.790  0.00  0.00    +0.000 C 
BRANCH  16  22
ATOM     17  C   UNL     1       1.163   3.162  19.650  0.00  0.00    +0.000 C 
ATOM     18  C   UNL     1       2.302   3.138  18.704  0.00  0.00    +0.000 A 
ATOM     19  N   UNL     1       2.971   1.999  18.499  0.00  0.00    +0.000 NA
ATOM     20  O   UNL     1       3.955   2.298  17.579  0.00  0.00    +0.000 OA
ATOM     21  C   UNL     1       3.884   3.616  17.237  0.00  0.00    +0.000 A 
ATOM     22  C   UNL     1       2.832   4.201  17.919  0.00  0.00    +0.000 A 
BRANCH  21  23
ATOM     23  C   UNL     1       4.896   4.075  16.289  0.00  0.00    +0.000 A 
ATOM     24  C   UNL     1       4.788   3.774  14.923  0.00  0.00    +0.000 A 
ATOM     25  C   UNL     1       5.777   4.178  14.020  0.00  0.00    +0.000 A 
ATOM     26  C   UNL     1       6.883   4.894  14.475  0.00  0.00    +0.000 A 
ATOM     27 CL   UNL     1       8.119   5.360  13.376  0.00  0.00    +0.000 Cl
ATOM     28  C   UNL     1       6.998   5.219  15.822  0.00  0.00    +0.000 A 
ATOM     29  C   UNL     1       6.011   4.809  16.723  0.00  0.00    +0.000 A 
ENDBRANCH  21  23
ENDBRANCH  16  22
ENDBRANCH   1  16
TORSDOF 8
ENDMDL
