MODEL 1
REMARK VINA RESULT:      -7.3      0.000      0.000
REMARK  Name = 
REMARK  7 active torsions:
REMARK  status: ('A' for Active; 'I' for Inactive)
REMARK    1  A    between atoms: C_1  and  C_2
REMARK    2  A    between atoms: C_2  and  O_4
REMARK    3  A    between atoms: O_4  and  C_5
REMARK    4  A    between atoms: C_10  and  C_11
REMARK    5  A    between atoms: C_20  and  O_21
REMARK    6  A    between atoms: O_21  and  C_22
REMARK    7  A    between atoms: C_22  and  C_23
REMARK                            x       y       z     vdW  Elec       q    Type
REMARK                         _______ _______ _______ _____ _____    ______ ____
ROOT
ATOM      1  C   UNL     1       3.620   5.719  18.751  0.00  0.00    +0.000 A 
ATOM      2  C   UNL     1       3.671   6.640  17.692  0.00  0.00    +0.000 A 
ATOM      3  C   UNL     1       2.956   7.834  17.754  0.00  0.00    +0.000 A 
ATOM      4  C   UNL     1       2.146   8.100  18.856  0.00  0.00    +0.000 A 
ATOM      5  C   UNL     1       1.438   9.361  18.979  0.00  0.00    +0.000 A 
ATOM      6  C   UNL     1       0.653   9.615  20.038  0.00  0.00    +0.000 A 
ATOM      7  C   UNL     1       0.418   8.559  21.069  0.00  0.00    +0.000 A 
ATOM      8  O   UNL     1      -0.389   8.698  21.982  0.00  0.00    +0.000 OA
ATOM      9  O   UNL     1       1.178   7.392  20.960  0.00  0.00    +0.000 OA
ATOM     10  C   UNL     1       2.055   7.158  19.879  0.00  0.00    +0.000 A 
ATOM     11  C   UNL     1       2.801   5.971  19.853  0.00  0.00    +0.000 A 
ENDROOT
BRANCH   6  12
ATOM     12  C   UNL     1       0.072  10.913  20.228  0.00  0.00    +0.000 A 
ATOM     13  C   UNL     1      -1.194  11.347  19.733  0.00  0.00    +0.000 A 
ATOM     14  C   UNL     1      -1.456  12.658  20.072  0.00  0.00    +0.000 A 
ATOM     15  S   UNL     1      -0.182  13.362  20.971  0.00  0.00    +0.000 S 
ATOM     16  C   UNL     1       0.726  11.912  20.919  0.00  0.00    +0.000 A 
ENDBRANCH   6  12
BRANCH   1  17
ATOM     17  O   UNL     1       4.281   4.495  18.607  0.00  0.00    +0.000 OA
BRANCH  17  19
ATOM     18  C   UNL     1       2.711   3.230  17.381  0.00  0.00    +0.000 C 
ATOM     19  C   UNL     1       4.078   3.837  17.386  0.00  0.00    +0.000 C 
ATOM     20  O   UNL     1       4.848   3.794  16.439  0.00  0.00    +0.000 OA
ENDBRANCH  17  19
ENDBRANCH   1  17
BRANCH  11  21
ATOM     21  O   UNL     1       2.583   5.072  20.919  0.00  0.00    +0.000 OA
BRANCH  21  22
ATOM     22  C   UNL     1       1.685   4.011  20.818  0.00  0.00    +0.000 C 
ATOM     23  C   UNL     1       2.225   2.841  21.593  0.00  0.00    +0.000 C 
ATOM     24  O   UNL     1       0.626   3.998  20.206  0.00  0.00    +0.000 OA
ENDBRANCH  21  22
ENDBRANCH  11  21
TORSDOF 5
ENDMDL
MODEL 2
REMARK VINA RESULT:      -7.3      0.939      1.231
REMARK  Name = 
REMARK  7 active torsions:
REMARK  status: ('A' for Active; 'I' for Inactive)
REMARK    1  A    between atoms: C_1  and  C_2
REMARK    2  A    between atoms: C_2  and  O_4
REMARK    3  A    between atoms: O_4  and  C_5
REMARK    4  A    between atoms: C_10  and  C_11
REMARK    5  A    between atoms: C_20  and  O_21
REMARK    6  A    between atoms: O_21  and  C_22
REMARK    7  A    between atoms: C_22  and  C_23
REMARK                            x       y       z     vdW  Elec       q    Type
REMARK                         _______ _______ _______ _____ _____    ______ ____
ROOT
ATOM      1  C   UNL     1       3.658   5.895  18.703  0.00  0.00    +0.000 A 
ATOM      2  C   UNL     1       3.667   6.833  17.658  0.00  0.00    +0.000 A 
ATOM      3  C   UNL     1       2.910   7.999  17.743  0.00  0.00    +0.000 A 
ATOM      4  C   UNL     1       2.100   8.220  18.855  0.00  0.00    +0.000 A 
ATOM      5  C   UNL     1       1.348   9.452  19.002  0.00  0.00    +0.000 A 
ATOM      6  C   UNL     1       0.563   9.662  20.071  0.00  0.00    +0.000 A 
ATOM      7  C   UNL     1       0.375   8.583  21.088  0.00  0.00    +0.000 A 
ATOM      8  O   UNL     1      -0.429   8.680  22.009  0.00  0.00    +0.000 OA
ATOM      9  O   UNL     1       1.175   7.447  20.955  0.00  0.00    +0.000 OA
ATOM     10  C   UNL     1       2.052   7.260  19.864  0.00  0.00    +0.000 A 
ATOM     11  C   UNL     1       2.839   6.101  19.815  0.00  0.00    +0.000 A 
ENDROOT
BRANCH   6  12
ATOM     12  C   UNL     1      -0.063  10.935  20.285  0.00  0.00    +0.000 A 
ATOM     13  C   UNL     1      -1.337  11.340  19.785  0.00  0.00    +0.000 A 
ATOM     14  C   UNL     1      -1.646  12.632  20.152  0.00  0.00    +0.000 A 
ATOM     15  S   UNL     1      -0.405  13.356  21.083  0.00  0.00    +0.000 S 
ATOM     16  C   UNL     1       0.551  11.939  21.007  0.00  0.00    +0.000 A 
ENDBRANCH   6  12
BRANCH   1  17
ATOM     17  O   UNL     1       4.361   4.698  18.536  0.00  0.00    +0.000 OA
BRANCH  17  19
ATOM     18  C   UNL     1       6.433   4.536  17.418  0.00  0.00    +0.000 C 
ATOM     19  C   UNL     1       5.748   4.780  18.725  0.00  0.00    +0.000 C 
ATOM     20  O   UNL     1       6.331   5.058  19.762  0.00  0.00    +0.000 OA
ENDBRANCH  17  19
ENDBRANCH   1  17
BRANCH  11  21
ATOM     21  O   UNL     1       2.663   5.179  20.869  0.00  0.00    +0.000 OA
BRANCH  21  22
ATOM     22  C   UNL     1       1.758   4.123  20.782  0.00  0.00    +0.000 C 
ATOM     23  C   UNL     1       2.285   2.964  21.582  0.00  0.00    +0.000 C 
ATOM     24  O   UNL     1       0.703   4.106  20.163  0.00  0.00    +0.000 OA
ENDBRANCH  21  22
ENDBRANCH  11  21
TORSDOF 5
ENDMDL
MODEL 3
REMARK VINA RESULT:      -7.1      0.931      1.363
REMARK  Name = 
REMARK  7 active torsions:
REMARK  status: ('A' for Active; 'I' for Inactive)
REMARK    1  A    between atoms: C_1  and  C_2
REMARK    2  A    between atoms: C_2  and  O_4
REMARK    3  A    between atoms: O_4  and  C_5
REMARK    4  A    between atoms: C_10  and  C_11
REMARK    5  A    between atoms: C_20  and  O_21
REMARK    6  A    between atoms: O_21  and  C_22
REMARK    7  A    between atoms: C_22  and  C_23
REMARK                            x       y       z     vdW  Elec       q    Type
REMARK                         _______ _______ _______ _____ _____    ______ ____
ROOT
ATOM      1  C   UNL     1       3.643   5.786  18.634  0.00  0.00    +0.000 A 
ATOM      2  C   UNL     1       3.632   6.704  17.572  0.00  0.00    +0.000 A 
ATOM      3  C   UNL     1       2.895   7.883  17.659  0.00  0.00    +0.000 A 
ATOM      4  C   UNL     1       2.124   8.136  18.793  0.00  0.00    +0.000 A 
ATOM      5  C   UNL     1       1.396   9.382  18.942  0.00  0.00    +0.000 A 
ATOM      6  C   UNL     1       0.649   9.623  20.030  0.00  0.00    +0.000 A 
ATOM      7  C   UNL     1       0.479   8.566  21.073  0.00  0.00    +0.000 A 
ATOM      8  O   UNL     1      -0.293   8.691  22.018  0.00  0.00    +0.000 OA
ATOM      9  O   UNL     1       1.259   7.415  20.936  0.00  0.00    +0.000 OA
ATOM     10  C   UNL     1       2.096   7.196  19.821  0.00  0.00    +0.000 A 
ATOM     11  C   UNL     1       2.865   6.025  19.769  0.00  0.00    +0.000 A 
ENDROOT
BRANCH   6  12
ATOM     12  C   UNL     1       0.048  10.909  20.241  0.00  0.00    +0.000 A 
ATOM     13  C   UNL     1       0.599  11.978  21.009  0.00  0.00    +0.000 A 
ATOM     14  C   UNL     1      -0.234  13.076  21.033  0.00  0.00    +0.000 A 
ATOM     15  S   UNL     1      -1.673  12.816  20.144  0.00  0.00    +0.000 S 
ATOM     16  C   UNL     1      -1.186  11.233  19.716  0.00  0.00    +0.000 A 
ENDBRANCH   6  12
BRANCH   1  17
ATOM     17  O   UNL     1       4.324   4.576  18.467  0.00  0.00    +0.000 OA
BRANCH  17  19
ATOM     18  C   UNL     1       6.439   5.302  19.223  0.00  0.00    +0.000 C 
ATOM     19  C   UNL     1       5.672   4.686  18.096  0.00  0.00    +0.000 C 
ATOM     20  O   UNL     1       6.179   4.301  17.054  0.00  0.00    +0.000 OA
ENDBRANCH  17  19
ENDBRANCH   1  17
BRANCH  11  21
ATOM     21  O   UNL     1       2.710   5.125  20.845  0.00  0.00    +0.000 OA
BRANCH  21  22
ATOM     22  C   UNL     1       1.788   4.080  20.807  0.00  0.00    +0.000 C 
ATOM     23  C   UNL     1       2.314   2.937  21.630  0.00  0.00    +0.000 C 
ATOM     24  O   UNL     1       0.720   4.062  20.211  0.00  0.00    +0.000 OA
ENDBRANCH  21  22
ENDBRANCH  11  21
TORSDOF 5
ENDMDL
MODEL 4
REMARK VINA RESULT:      -7.0      2.023      3.329
REMARK  Name = 
REMARK  7 active torsions:
REMARK  status: ('A' for Active; 'I' for Inactive)
REMARK    1  A    between atoms: C_1  and  C_2
REMARK    2  A    between atoms: C_2  and  O_4
REMARK    3  A    between atoms: O_4  and  C_5
REMARK    4  A    between atoms: C_10  and  C_11
REMARK    5  A    between atoms: C_20  and  O_21
REMARK    6  A    between atoms: O_21  and  C_22
REMARK    7  A    between atoms: C_22  and  C_23
REMARK                            x       y       z     vdW  Elec       q    Type
REMARK                         _______ _______ _______ _____ _____    ______ ____
ROOT
ATOM      1  C   UNL     1       5.272   4.930  16.506  0.00  0.00    +0.000 A 
ATOM      2  C   UNL     1       5.161   6.220  15.963  0.00  0.00    +0.000 A 
ATOM      3  C   UNL     1       4.356   7.181  16.571  0.00  0.00    +0.000 A 
ATOM      4  C   UNL     1       3.617   6.848  17.706  0.00  0.00    +0.000 A 
ATOM      5  C   UNL     1       2.819   7.843  18.398  0.00  0.00    +0.000 A 
ATOM      6  C   UNL     1       2.103   7.521  19.487  0.00  0.00    +0.000 A 
ATOM      7  C   UNL     1       2.041   6.102  19.952  0.00  0.00    +0.000 A 
ATOM      8  O   UNL     1       1.301   5.739  20.861  0.00  0.00    +0.000 OA
ATOM      9  O   UNL     1       2.884   5.192  19.312  0.00  0.00    +0.000 OA
ATOM     10  C   UNL     1       3.689   5.551  18.209  0.00  0.00    +0.000 A 
ATOM     11  C   UNL     1       4.526   4.584  17.635  0.00  0.00    +0.000 A 
ENDROOT
BRANCH   6  12
ATOM     12  C   UNL     1       1.432   8.533  20.252  0.00  0.00    +0.000 A 
ATOM     13  C   UNL     1       1.356   8.597  21.675  0.00  0.00    +0.000 A 
ATOM     14  C   UNL     1       0.622   9.683  22.102  0.00  0.00    +0.000 A 
ATOM     15  S   UNL     1       0.021  10.612  20.796  0.00  0.00    +0.000 S 
ATOM     16  C   UNL     1       0.747   9.569  19.651  0.00  0.00    +0.000 A 
ENDBRANCH   6  12
BRANCH   1  17
ATOM     17  O   UNL     1       6.020   3.973  15.814  0.00  0.00    +0.000 OA
BRANCH  17  19
ATOM     18  C   UNL     1       6.171   3.883  13.460  0.00  0.00    +0.000 C 
ATOM     19  C   UNL     1       6.749   4.452  14.717  0.00  0.00    +0.000 C 
ATOM     20  O   UNL     1       7.675   5.249  14.744  0.00  0.00    +0.000 OA
ENDBRANCH  17  19
ENDBRANCH   1  17
BRANCH  11  21
ATOM     21  O   UNL     1       4.471   3.292  18.201  0.00  0.00    +0.000 OA
BRANCH  21  22
ATOM     22  C   UNL     1       3.447   2.397  17.896  0.00  0.00    +0.000 C 
ATOM     23  C   UNL     1       3.709   1.098  18.609  0.00  0.00    +0.000 C 
ATOM     24  O   UNL     1       2.482   2.599  17.172  0.00  0.00    +0.000 OA
ENDBRANCH  21  22
ENDBRANCH  11  21
TORSDOF 5
ENDMDL
MODEL 5
REMARK VINA RESULT:      -7.0      0.886      1.201
REMARK  Name = 
REMARK  7 active torsions:
REMARK  status: ('A' for Active; 'I' for Inactive)
REMARK    1  A    between atoms: C_1  and  C_2
REMARK    2  A    between atoms: C_2  and  O_4
REMARK    3  A    between atoms: O_4  and  C_5
REMARK    4  A    between atoms: C_10  and  C_11
REMARK    5  A    between atoms: C_20  and  O_21
REMARK    6  A    between atoms: O_21  and  C_22
REMARK    7  A    between atoms: C_22  and  C_23
REMARK                            x       y       z     vdW  Elec       q    Type
REMARK                         _______ _______ _______ _____ _____    ______ ____
ROOT
ATOM      1  C   UNL     1       3.604   5.247  18.986  0.00  0.00    +0.000 A 
ATOM      2  C   UNL     1       3.680   6.026  17.820  0.00  0.00    +0.000 A 
ATOM      3  C   UNL     1       3.040   7.262  17.748  0.00  0.00    +0.000 A 
ATOM      4  C   UNL     1       2.278   7.711  18.825  0.00  0.00    +0.000 A 
ATOM      5  C   UNL     1       1.650   9.019  18.806  0.00  0.00    +0.000 A 
ATOM      6  C   UNL     1       0.912   9.450  19.840  0.00  0.00    +0.000 A 
ATOM      7  C   UNL     1       0.644   8.544  20.999  0.00  0.00    +0.000 A 
ATOM      8  O   UNL     1      -0.128   8.845  21.904  0.00  0.00    +0.000 OA
ATOM      9  O   UNL     1       1.329   7.328  21.020  0.00  0.00    +0.000 OA
ATOM     10  C   UNL     1       2.160   6.909  19.959  0.00  0.00    +0.000 A 
ATOM     11  C   UNL     1       2.832   5.683  20.065  0.00  0.00    +0.000 A 
ENDROOT
BRANCH   6  12
ATOM     12  C   UNL     1       0.414  10.795  19.881  0.00  0.00    +0.000 A 
ATOM     13  C   UNL     1       1.038  11.902  20.529  0.00  0.00    +0.000 A 
ATOM     14  C   UNL     1       0.297  13.057  20.400  0.00  0.00    +0.000 A 
ATOM     15  S   UNL     1      -1.144  12.806  19.512  0.00  0.00    +0.000 S 
ATOM     16  C   UNL     1      -0.781  11.150  19.289  0.00  0.00    +0.000 A 
ENDBRANCH   6  12
BRANCH   1  17
ATOM     17  O   UNL     1       4.186   3.976  18.982  0.00  0.00    +0.000 OA
BRANCH  17  19
ATOM     18  C   UNL     1       2.922   2.372  17.799  0.00  0.00    +0.000 C 
ATOM     19  C   UNL     1       4.111   3.279  17.768  0.00  0.00    +0.000 C 
ATOM     20  O   UNL     1       4.846   3.409  16.801  0.00  0.00    +0.000 OA
ENDBRANCH  17  19
ENDBRANCH   1  17
BRANCH  11  21
ATOM     21  O   UNL     1       2.592   4.937  21.238  0.00  0.00    +0.000 OA
BRANCH  21  22
ATOM     22  C   UNL     1       1.956   3.696  21.207  0.00  0.00    +0.000 C 
ATOM     23  C   UNL     1       0.778   3.777  20.275  0.00  0.00    +0.000 C 
ATOM     24  O   UNL     1       2.274   2.689  21.823  0.00  0.00    +0.000 OA
ENDBRANCH  21  22
ENDBRANCH  11  21
TORSDOF 5
ENDMDL
MODEL 6
REMARK VINA RESULT:      -7.0      1.863      2.301
REMARK  Name = 
REMARK  7 active torsions:
REMARK  status: ('A' for Active; 'I' for Inactive)
REMARK    1  A    between atoms: C_1  and  C_2
REMARK    2  A    between atoms: C_2  and  O_4
REMARK    3  A    between atoms: O_4  and  C_5
REMARK    4  A    between atoms: C_10  and  C_11
REMARK    5  A    between atoms: C_20  and  O_21
REMARK    6  A    between atoms: O_21  and  C_22
REMARK    7  A    between atoms: C_22  and  C_23
REMARK                            x       y       z     vdW  Elec       q    Type
REMARK                         _______ _______ _______ _____ _____    ______ ____
ROOT
ATOM      1  C   UNL     1       4.981   5.508  17.690  0.00  0.00    +0.000 A 
ATOM      2  C   UNL     1       4.838   6.390  16.607  0.00  0.00    +0.000 A 
ATOM      3  C   UNL     1       3.948   7.460  16.674  0.00  0.00    +0.000 A 
ATOM      4  C   UNL     1       3.158   7.633  17.809  0.00  0.00    +0.000 A 
ATOM      5  C   UNL     1       2.268   8.772  17.936  0.00  0.00    +0.000 A 
ATOM      6  C   UNL     1       1.502   8.936  19.026  0.00  0.00    +0.000 A 
ATOM      7  C   UNL     1       1.484   7.891  20.095  0.00  0.00    +0.000 A 
ATOM      8  O   UNL     1       0.708   7.933  21.043  0.00  0.00    +0.000 OA
ATOM      9  O   UNL     1       2.412   6.854  19.977  0.00  0.00    +0.000 OA
ATOM     10  C   UNL     1       3.264   6.723  18.859  0.00  0.00    +0.000 A 
ATOM     11  C   UNL     1       4.184   5.666  18.826  0.00  0.00    +0.000 A 
ENDROOT
BRANCH   6  12
ATOM     12  C   UNL     1       0.734  10.133  19.213  0.00  0.00    +0.000 A 
ATOM     13  C   UNL     1       1.104  11.252  20.017  0.00  0.00    +0.000 A 
ATOM     14  C   UNL     1       0.139  12.237  20.003  0.00  0.00    +0.000 A 
ATOM     15  S   UNL     1      -1.207  11.810  19.037  0.00  0.00    +0.000 S 
ATOM     16  C   UNL     1      -0.502  10.307  18.624  0.00  0.00    +0.000 A 
ENDBRANCH   6  12
BRANCH   1  17
ATOM     17  O   UNL     1       5.819   4.398  17.544  0.00  0.00    +0.000 OA
BRANCH  17  19
ATOM     18  C   UNL     1       7.698   5.335  18.622  0.00  0.00    +0.000 C 
ATOM     19  C   UNL     1       7.181   4.685  17.378  0.00  0.00    +0.000 C 
ATOM     20  O   UNL     1       7.875   4.413  16.410  0.00  0.00    +0.000 OA
ENDBRANCH  17  19
ENDBRANCH   1  17
BRANCH  11  21
ATOM     21  O   UNL     1       4.160   4.780  19.924  0.00  0.00    +0.000 OA
BRANCH  21  22
ATOM     22  C   UNL     1       3.414   3.603  19.906  0.00  0.00    +0.000 C 
ATOM     23  C   UNL     1       4.353   2.430  19.962  0.00  0.00    +0.000 C 
ATOM     24  O   UNL     1       2.196   3.504  19.852  0.00  0.00    +0.000 OA
ENDBRANCH  21  22
ENDBRANCH  11  21
TORSDOF 5
ENDMDL
MODEL 7
REMARK VINA RESULT:      -7.0      1.747      2.113
REMARK  Name = 
REMARK  7 active torsions:
REMARK  status: ('A' for Active; 'I' for Inactive)
REMARK    1  A    between atoms: C_1  and  C_2
REMARK    2  A    between atoms: C_2  and  O_4
REMARK    3  A    between atoms: O_4  and  C_5
REMARK    4  A    between atoms: C_10  and  C_11
REMARK    5  A    between atoms: C_20  and  O_21
REMARK    6  A    between atoms: O_21  and  C_22
REMARK    7  A    between atoms: C_22  and  C_23
REMARK                            x       y       z     vdW  Elec       q    Type
REMARK                         _______ _______ _______ _____ _____    ______ ____
ROOT
ATOM      1  C   UNL     1       4.945   5.558  17.865  0.00  0.00    +0.000 A 
ATOM      2  C   UNL     1       4.863   6.398  16.742  0.00  0.00    +0.000 A 
ATOM      3  C   UNL     1       3.981   7.476  16.725  0.00  0.00    +0.000 A 
ATOM      4  C   UNL     1       3.139   7.700  17.812  0.00  0.00    +0.000 A 
ATOM      5  C   UNL     1       2.254   8.850  17.851  0.00  0.00    +0.000 A 
ATOM      6  C   UNL     1       1.439   9.062  18.895  0.00  0.00    +0.000 A 
ATOM      7  C   UNL     1       1.359   8.060  20.001  0.00  0.00    +0.000 A 
ATOM      8  O   UNL     1       0.538   8.146  20.909  0.00  0.00    +0.000 OA
ATOM      9  O   UNL     1       2.281   7.012  19.969  0.00  0.00    +0.000 OA
ATOM     10  C   UNL     1       3.185   6.831  18.901  0.00  0.00    +0.000 A 
ATOM     11  C   UNL     1       4.096   5.767  18.954  0.00  0.00    +0.000 A 
ENDROOT
BRANCH   6  12
ATOM     12  C   UNL     1       0.674  10.272  18.997  0.00  0.00    +0.000 A 
ATOM     13  C   UNL     1      -0.619  10.498  18.437  0.00  0.00    +0.000 A 
ATOM     14  C   UNL     1      -1.076  11.773  18.697  0.00  0.00    +0.000 A 
ATOM     15  S   UNL     1       0.049  12.692  19.602  0.00  0.00    +0.000 S 
ATOM     16  C   UNL     1       1.152  11.386  19.657  0.00  0.00    +0.000 A 
ENDBRANCH   6  12
BRANCH   1  17
ATOM     17  O   UNL     1       5.778   4.436  17.804  0.00  0.00    +0.000 OA
BRANCH  17  19
ATOM     18  C   UNL     1       7.632   5.463  18.842  0.00  0.00    +0.000 C 
ATOM     19  C   UNL     1       7.145   4.706  17.647  0.00  0.00    +0.000 C 
ATOM     20  O   UNL     1       7.862   4.347  16.726  0.00  0.00    +0.000 OA
ENDBRANCH  17  19
ENDBRANCH   1  17
BRANCH  11  21
ATOM     21  O   UNL     1       4.010   4.925  20.083  0.00  0.00    +0.000 OA
BRANCH  21  22
ATOM     22  C   UNL     1       3.202   3.789  20.097  0.00  0.00    +0.000 C 
ATOM     23  C   UNL     1       2.326   3.830  21.319  0.00  0.00    +0.000 C 
ATOM     24  O   UNL     1       3.184   2.888  19.270  0.00  0.00    +0.000 OA
ENDBRANCH  21  22
ENDBRANCH  11  21
TORSDOF 5
ENDMDL
MODEL 8
REMARK VINA RESULT:      -7.0      2.102      3.467
REMARK  Name = 
REMARK  7 active torsions:
REMARK  status: ('A' for Active; 'I' for Inactive)
REMARK    1  A    between atoms: C_1  and  C_2
REMARK    2  A    between atoms: C_2  and  O_4
REMARK    3  A    between atoms: O_4  and  C_5
REMARK    4  A    between atoms: C_10  and  C_11
REMARK    5  A    between atoms: C_20  and  O_21
REMARK    6  A    between atoms: O_21  and  C_22
REMARK    7  A    between atoms: C_22  and  C_23
REMARK                            x       y       z     vdW  Elec       q    Type
REMARK                         _______ _______ _______ _____ _____    ______ ____
ROOT
ATOM      1  C   UNL     1       3.696   4.720  18.905  0.00  0.00    +0.000 A 
ATOM      2  C   UNL     1       3.090   4.735  20.172  0.00  0.00    +0.000 A 
ATOM      3  C   UNL     1       2.343   5.834  20.590  0.00  0.00    +0.000 A 
ATOM      4  C   UNL     1       2.231   6.950  19.763  0.00  0.00    +0.000 A 
ATOM      5  C   UNL     1       1.410   8.085  20.142  0.00  0.00    +0.000 A 
ATOM      6  C   UNL     1       1.307   9.162  19.349  0.00  0.00    +0.000 A 
ATOM      7  C   UNL     1       2.116   9.252  18.095  0.00  0.00    +0.000 A 
ATOM      8  O   UNL     1       2.154  10.267  17.407  0.00  0.00    +0.000 OA
ATOM      9  O   UNL     1       2.830   8.111  17.724  0.00  0.00    +0.000 OA
ATOM     10  C   UNL     1       2.880   6.953  18.530  0.00  0.00    +0.000 A 
ATOM     11  C   UNL     1       3.600   5.839  18.075  0.00  0.00    +0.000 A 
ENDROOT
BRANCH   6  12
ATOM     12  C   UNL     1       0.384  10.217  19.656  0.00  0.00    +0.000 A 
ATOM     13  C   UNL     1      -0.907  10.398  19.077  0.00  0.00    +0.000 A 
ATOM     14  C   UNL     1      -1.539  11.520  19.571  0.00  0.00    +0.000 A 
ATOM     15  S   UNL     1      -0.579  12.353  20.717  0.00  0.00    +0.000 S 
ATOM     16  C   UNL     1       0.687  11.212  20.563  0.00  0.00    +0.000 A 
ENDBRANCH   6  12
BRANCH   1  17
ATOM     17  O   UNL     1       4.509   3.635  18.564  0.00  0.00    +0.000 OA
BRANCH  17  19
ATOM     18  C   UNL     1       3.195   1.676  18.512  0.00  0.00    +0.000 C 
ATOM     19  C   UNL     1       4.246   2.442  19.250  0.00  0.00    +0.000 C 
ATOM     20  O   UNL     1       4.805   2.037  20.259  0.00  0.00    +0.000 OA
ENDBRANCH  17  19
ENDBRANCH   1  17
BRANCH  11  21
ATOM     21  O   UNL     1       4.257   5.982  16.835  0.00  0.00    +0.000 OA
BRANCH  21  22
ATOM     22  C   UNL     1       5.618   6.271  16.750  0.00  0.00    +0.000 C 
ATOM     23  C   UNL     1       6.261   5.309  15.789  0.00  0.00    +0.000 C 
ATOM     24  O   UNL     1       6.223   7.152  17.345  0.00  0.00    +0.000 OA
ENDBRANCH  21  22
ENDBRANCH  11  21
TORSDOF 5
ENDMDL
MODEL 9
REMARK VINA RESULT:      -6.9      4.017      7.587
REMARK  Name = 
REMARK  7 active torsions:
REMARK  status: ('A' for Active; 'I' for Inactive)
REMARK    1  A    between atoms: C_1  and  C_2
REMARK    2  A    between atoms: C_2  and  O_4
REMARK    3  A    between atoms: O_4  and  C_5
REMARK    4  A    between atoms: C_10  and  C_11
REMARK    5  A    between atoms: C_20  and  O_21
REMARK    6  A    between atoms: O_21  and  C_22
REMARK    7  A    between atoms: C_22  and  C_23
REMARK                            x       y       z     vdW  Elec       q    Type
REMARK                         _______ _______ _______ _____ _____    ______ ____
ROOT
ATOM      1  C   UNL     1       3.370   3.947  19.967  0.00  0.00    +0.000 A 
ATOM      2  C   UNL     1       3.482   2.676  19.379  0.00  0.00    +0.000 A 
ATOM      3  C   UNL     1       4.030   2.528  18.106  0.00  0.00    +0.000 A 
ATOM      4  C   UNL     1       4.430   3.654  17.389  0.00  0.00    +0.000 A 
ATOM      5  C   UNL     1       5.061   3.528  16.088  0.00  0.00    +0.000 A 
ATOM      6  C   UNL     1       5.441   4.613  15.394  0.00  0.00    +0.000 A 
ATOM      7  C   UNL     1       5.134   5.981  15.912  0.00  0.00    +0.000 A 
ATOM      8  O   UNL     1       5.345   6.996  15.256  0.00  0.00    +0.000 OA
ATOM      9  O   UNL     1       4.601   6.062  17.200  0.00  0.00    +0.000 OA
ATOM     10  C   UNL     1       4.266   4.917  17.955  0.00  0.00    +0.000 A 
ATOM     11  C   UNL     1       3.757   5.081  19.251  0.00  0.00    +0.000 A 
ENDROOT
BRANCH   6  12
ATOM     12  C   UNL     1       6.192   4.483  14.179  0.00  0.00    +0.000 A 
ATOM     13  C   UNL     1       7.387   5.190  13.850  0.00  0.00    +0.000 A 
ATOM     14  C   UNL     1       7.854   4.855  12.597  0.00  0.00    +0.000 A 
ATOM     15  S   UNL     1       6.855   3.703  11.820  0.00  0.00    +0.000 S 
ATOM     16  C   UNL     1       5.794   3.641  13.160  0.00  0.00    +0.000 A 
ENDBRANCH   6  12
BRANCH   1  17
ATOM     17  O   UNL     1       2.734   4.058  21.207  0.00  0.00    +0.000 OA
BRANCH  17  19
ATOM     18  C   UNL     1       0.619   3.541  20.295  0.00  0.00    +0.000 C 
ATOM     19  C   UNL     1       1.604   3.246  21.382  0.00  0.00    +0.000 C 
ATOM     20  O   UNL     1       1.441   2.390  22.238  0.00  0.00    +0.000 OA
ENDBRANCH  17  19
ENDBRANCH   1  17
BRANCH  11  21
ATOM     21  O   UNL     1       3.588   6.411  19.693  0.00  0.00    +0.000 OA
BRANCH  21  22
ATOM     22  C   UNL     1       2.334   7.019  19.740  0.00  0.00    +0.000 C 
ATOM     23  C   UNL     1       2.144   7.838  18.493  0.00  0.00    +0.000 C 
ATOM     24  O   UNL     1       1.503   6.925  20.632  0.00  0.00    +0.000 OA
ENDBRANCH  21  22
ENDBRANCH  11  21
TORSDOF 5
ENDMDL
