MODEL 1
REMARK VINA RESULT:      -7.7      0.000      0.000
REMARK  Name = 
REMARK  7 active torsions:
REMARK  status: ('A' for Active; 'I' for Inactive)
REMARK    1  A    between atoms: C_1  and  C_2
REMARK    2  A    between atoms: C_2  and  CA_3
REMARK    3  A    between atoms: CA_3  and  N_4
REMARK    4  A    between atoms: CA_3  and  C_19
REMARK    5  A    between atoms: N_4  and  C_5
REMARK    6  A    between atoms: C_7  and  C_8
REMARK    7  A    between atoms: C_19  and  OXT_21
REMARK                            x       y       z     vdW  Elec       q    Type
REMARK                         _______ _______ _______ _____ _____    ______ ____
ROOT
ATOM      1  C   UNL     1       4.019   5.212  18.145  0.00  0.00    +0.000 A 
ATOM      2  N   UNL     1       3.913   4.105  18.902  0.00  0.00    +0.000 NA
ATOM      3  C   UNL     1       3.094   4.140  19.979  0.00  0.00    +0.000 A 
ATOM      4  N   UNL     1       2.406   5.239  20.357  0.00  0.00    +0.000 NA
ATOM      5  C   UNL     1       2.496   6.327  19.589  0.00  0.00    +0.000 A 
ATOM      6  C   UNL     1       1.779   7.455  19.970  0.00  0.00    +0.000 A 
ATOM      7  C   UNL     1       1.760   8.616  19.194  0.00  0.00    +0.000 A 
ATOM      8  C   UNL     1       2.471   8.653  18.004  0.00  0.00    +0.000 A 
ATOM      9  C   UNL     1       3.234   7.551  17.627  0.00  0.00    +0.000 A 
ATOM     10  C   UNL     1       3.274   6.376  18.424  0.00  0.00    +0.000 A 
ENDROOT
BRANCH   3  11
ATOM     11  C   UNL     1       2.908   2.862  20.802  0.00  0.00    +0.000 C 
ATOM     12  F   UNL     1       4.070   2.167  21.008  0.00  0.00    +0.000 F 
ATOM     13  F   UNL     1       2.397   3.086  22.050  0.00  0.00    +0.000 F 
ATOM     14  F   UNL     1       2.058   1.966  20.211  0.00  0.00    +0.000 F 
ENDBRANCH   3  11
BRANCH   1  15
ATOM     15  N   UNL     1       5.021   5.231  17.149  0.00  0.00    +0.000 N 
ATOM     16  H   UNL     1       5.106   4.301  16.736  0.00  0.00    +0.000 HD
BRANCH  15  17
ATOM     17  CA  UNL     1       6.368   5.651  17.597  0.00  0.00    +0.000 C 
BRANCH  17  19
ATOM     18  C   UNL     1       7.829   7.740  17.853  0.00  0.00    +0.000 C 
ATOM     19  C   UNL     1       6.637   7.099  17.155  0.00  0.00    +0.000 C 
ENDBRANCH  17  19
BRANCH  17  20
ATOM     20  C   UNL     1       7.398   4.744  16.884  0.00  0.00    +0.000 C 
ATOM     21  O   UNL     1       7.491   4.681  15.664  0.00  0.00    +0.000 OA
BRANCH  20  22
ATOM     22  OXT UNL     1       8.206   4.048  17.710  0.00  0.00    +0.000 OA
ATOM     23  HXT UNL     1       8.939   4.571  18.101  0.00  0.00    +0.000 HD
ENDBRANCH  20  22
ENDBRANCH  17  20
ENDBRANCH  15  17
ENDBRANCH   1  15
TORSDOF 6
ENDMDL
MODEL 2
REMARK VINA RESULT:      -7.6      1.225      1.426
REMARK  Name = 
REMARK  7 active torsions:
REMARK  status: ('A' for Active; 'I' for Inactive)
REMARK    1  A    between atoms: C_1  and  C_2
REMARK    2  A    between atoms: C_2  and  CA_3
REMARK    3  A    between atoms: CA_3  and  N_4
REMARK    4  A    between atoms: CA_3  and  C_19
REMARK    5  A    between atoms: N_4  and  C_5
REMARK    6  A    between atoms: C_7  and  C_8
REMARK    7  A    between atoms: C_19  and  OXT_21
REMARK                            x       y       z     vdW  Elec       q    Type
REMARK                         _______ _______ _______ _____ _____    ______ ____
ROOT
ATOM      1  C   UNL     1       4.112   5.220  17.440  0.00  0.00    +0.000 A 
ATOM      2  N   UNL     1       4.150   3.990  17.985  0.00  0.00    +0.000 NA
ATOM      3  C   UNL     1       3.493   3.784  19.150  0.00  0.00    +0.000 A 
ATOM      4  N   UNL     1       2.832   4.756  19.815  0.00  0.00    +0.000 NA
ATOM      5  C   UNL     1       2.777   5.967  19.259  0.00  0.00    +0.000 A 
ATOM      6  C   UNL     1       2.085   6.966  19.936  0.00  0.00    +0.000 A 
ATOM      7  C   UNL     1       1.919   8.244  19.398  0.00  0.00    +0.000 A 
ATOM      8  C   UNL     1       2.451   8.535  18.152  0.00  0.00    +0.000 A 
ATOM      9  C   UNL     1       3.187   7.564  17.477  0.00  0.00    +0.000 A 
ATOM     10  C   UNL     1       3.377   6.269  18.029  0.00  0.00    +0.000 A 
ENDROOT
BRANCH   3  11
ATOM     11  C   UNL     1       3.467   2.370  19.739  0.00  0.00    +0.000 C 
ATOM     12  F   UNL     1       3.692   1.385  18.813  0.00  0.00    +0.000 F 
ATOM     13  F   UNL     1       4.403   2.168  20.714  0.00  0.00    +0.000 F 
ATOM     14  F   UNL     1       2.264   2.052  20.311  0.00  0.00    +0.000 F 
ENDBRANCH   3  11
BRANCH   1  15
ATOM     15  N   UNL     1       4.959   5.474  16.339  0.00  0.00    +0.000 N 
ATOM     16  H   UNL     1       4.603   4.986  15.516  0.00  0.00    +0.000 HD
BRANCH  15  17
ATOM     17  CA  UNL     1       6.377   5.088  16.514  0.00  0.00    +0.000 C 
BRANCH  17  19
ATOM     18  C   UNL     1       7.639   6.122  18.490  0.00  0.00    +0.000 C 
ATOM     19  C   UNL     1       7.183   6.284  17.045  0.00  0.00    +0.000 C 
ENDBRANCH  17  19
BRANCH  17  20
ATOM     20  C   UNL     1       6.937   4.729  15.117  0.00  0.00    +0.000 C 
ATOM     21  O   UNL     1       7.786   5.408  14.551  0.00  0.00    +0.000 OA
BRANCH  20  22
ATOM     22  OXT UNL     1       6.438   3.597  14.581  0.00  0.00    +0.000 OA
ATOM     23  HXT UNL     1       5.856   3.736  13.802  0.00  0.00    +0.000 HD
ENDBRANCH  20  22
ENDBRANCH  17  20
ENDBRANCH  15  17
ENDBRANCH   1  15
TORSDOF 6
ENDMDL
MODEL 3
REMARK VINA RESULT:      -7.6      3.596      5.294
REMARK  Name = 
REMARK  7 active torsions:
REMARK  status: ('A' for Active; 'I' for Inactive)
REMARK    1  A    between atoms: C_1  and  C_2
REMARK    2  A    between atoms: C_2  and  CA_3
REMARK    3  A    between atoms: CA_3  and  N_4
REMARK    4  A    between atoms: CA_3  and  C_19
REMARK    5  A    between atoms: N_4  and  C_5
REMARK    6  A    between atoms: C_7  and  C_8
REMARK    7  A    between atoms: C_19  and  OXT_21
REMARK                            x       y       z     vdW  Elec       q    Type
REMARK                         _______ _______ _______ _____ _____    ______ ____
ROOT
ATOM      1  C   UNL     1       2.965   6.044  19.707  0.00  0.00    +0.000 A 
ATOM      2  N   UNL     1       3.800   5.689  18.714  0.00  0.00    +0.000 NA
ATOM      3  C   UNL     1       3.920   6.517  17.650  0.00  0.00    +0.000 A 
ATOM      4  N   UNL     1       3.218   7.662  17.514  0.00  0.00    +0.000 NA
ATOM      5  C   UNL     1       2.409   8.022  18.512  0.00  0.00    +0.000 A 
ATOM      6  C   UNL     1       1.695   9.207  18.379  0.00  0.00    +0.000 A 
ATOM      7  C   UNL     1       0.877   9.695  19.399  0.00  0.00    +0.000 A 
ATOM      8  C   UNL     1       0.768   8.987  20.586  0.00  0.00    +0.000 A 
ATOM      9  C   UNL     1       1.438   7.773  20.723  0.00  0.00    +0.000 A 
ATOM     10  C   UNL     1       2.255   7.262  19.679  0.00  0.00    +0.000 A 
ENDROOT
BRANCH   3  11
ATOM     11  C   UNL     1       4.926   6.159  16.551  0.00  0.00    +0.000 C 
ATOM     12  F   UNL     1       6.233   6.244  16.953  0.00  0.00    +0.000 F 
ATOM     13  F   UNL     1       4.779   4.889  16.070  0.00  0.00    +0.000 F 
ATOM     14  F   UNL     1       4.836   6.980  15.459  0.00  0.00    +0.000 F 
ENDBRANCH   3  11
BRANCH   1  15
ATOM     15  N   UNL     1       2.695   5.086  20.710  0.00  0.00    +0.000 N 
ATOM     16  H   UNL     1       3.490   5.031  21.349  0.00  0.00    +0.000 HD
BRANCH  15  17
ATOM     17  CA  UNL     1       2.405   3.715  20.231  0.00  0.00    +0.000 C 
BRANCH  17  19
ATOM     18  C   UNL     1       0.675   2.504  18.781  0.00  0.00    +0.000 C 
ATOM     19  C   UNL     1       0.937   3.617  19.787  0.00  0.00    +0.000 C 
ENDBRANCH  17  19
BRANCH  17  20
ATOM     20  C   UNL     1       2.598   2.755  21.428  0.00  0.00    +0.000 C 
ATOM     21  O   UNL     1       3.648   2.156  21.632  0.00  0.00    +0.000 OA
BRANCH  20  22
ATOM     22  OXT UNL     1       1.532   2.647  22.245  0.00  0.00    +0.000 OA
ATOM     23  HXT UNL     1       1.584   1.909  22.891  0.00  0.00    +0.000 HD
ENDBRANCH  20  22
ENDBRANCH  17  20
ENDBRANCH  15  17
ENDBRANCH   1  15
TORSDOF 6
ENDMDL
MODEL 4
REMARK VINA RESULT:      -7.5      2.830      4.293
REMARK  Name = 
REMARK  7 active torsions:
REMARK  status: ('A' for Active; 'I' for Inactive)
REMARK    1  A    between atoms: C_1  and  C_2
REMARK    2  A    between atoms: C_2  and  CA_3
REMARK    3  A    between atoms: CA_3  and  N_4
REMARK    4  A    between atoms: CA_3  and  C_19
REMARK    5  A    between atoms: N_4  and  C_5
REMARK    6  A    between atoms: C_7  and  C_8
REMARK    7  A    between atoms: C_19  and  OXT_21
REMARK                            x       y       z     vdW  Elec       q    Type
REMARK                         _______ _______ _______ _____ _____    ______ ____
ROOT
ATOM      1  C   UNL     1       4.303   4.667  18.617  0.00  0.00    +0.000 A 
ATOM      2  N   UNL     1       3.935   5.893  18.203  0.00  0.00    +0.000 NA
ATOM      3  C   UNL     1       2.831   6.450  18.752  0.00  0.00    +0.000 A 
ATOM      4  N   UNL     1       2.056   5.827  19.665  0.00  0.00    +0.000 NA
ATOM      5  C   UNL     1       2.438   4.621  20.089  0.00  0.00    +0.000 A 
ATOM      6  C   UNL     1       1.648   3.983  21.039  0.00  0.00    +0.000 A 
ATOM      7  C   UNL     1       2.005   2.750  21.589  0.00  0.00    +0.000 A 
ATOM      8  C   UNL     1       3.182   2.138  21.187  0.00  0.00    +0.000 A 
ATOM      9  C   UNL     1       3.964   2.737  20.203  0.00  0.00    +0.000 A 
ATOM     10  C   UNL     1       3.594   3.980  19.624  0.00  0.00    +0.000 A 
ENDROOT
BRANCH   3  11
ATOM     11  C   UNL     1       2.448   7.877  18.343  0.00  0.00    +0.000 C 
ATOM     12  F   UNL     1       1.450   7.931  17.406  0.00  0.00    +0.000 F 
ATOM     13  F   UNL     1       2.005   8.642  19.385  0.00  0.00    +0.000 F 
ATOM     14  F   UNL     1       3.491   8.572  17.793  0.00  0.00    +0.000 F 
ENDBRANCH   3  11
BRANCH   1  15
ATOM     15  N   UNL     1       5.332   4.015  17.900  0.00  0.00    +0.000 N 
ATOM     16  H   UNL     1       6.164   3.945  18.489  0.00  0.00    +0.000 HD
BRANCH  15  17
ATOM     17  CA  UNL     1       5.732   4.650  16.625  0.00  0.00    +0.000 C 
BRANCH  17  19
ATOM     18  C   UNL     1       6.140   4.165  14.142  0.00  0.00    +0.000 C 
ATOM     19  C   UNL     1       5.698   3.613  15.491  0.00  0.00    +0.000 C 
ENDBRANCH  17  19
BRANCH  17  20
ATOM     20  C   UNL     1       7.196   5.125  16.782  0.00  0.00    +0.000 C 
ATOM     21  O   UNL     1       7.544   6.278  16.556  0.00  0.00    +0.000 OA
BRANCH  20  22
ATOM     22  OXT UNL     1       8.054   4.179  17.212  0.00  0.00    +0.000 OA
ATOM     23  HXT UNL     1       8.102   3.381  16.643  0.00  0.00    +0.000 HD
ENDBRANCH  20  22
ENDBRANCH  17  20
ENDBRANCH  15  17
ENDBRANCH   1  15
TORSDOF 6
ENDMDL
MODEL 5
REMARK VINA RESULT:      -7.5      0.997      1.348
REMARK  Name = 
REMARK  7 active torsions:
REMARK  status: ('A' for Active; 'I' for Inactive)
REMARK    1  A    between atoms: C_1  and  C_2
REMARK    2  A    between atoms: C_2  and  CA_3
REMARK    3  A    between atoms: CA_3  and  N_4
REMARK    4  A    between atoms: CA_3  and  C_19
REMARK    5  A    between atoms: N_4  and  C_5
REMARK    6  A    between atoms: C_7  and  C_8
REMARK    7  A    between atoms: C_19  and  OXT_21
REMARK                            x       y       z     vdW  Elec       q    Type
REMARK                         _______ _______ _______ _____ _____    ______ ____
ROOT
ATOM      1  C   UNL     1       3.964   5.436  17.720  0.00  0.00    +0.000 A 
ATOM      2  N   UNL     1       4.016   4.264  18.379  0.00  0.00    +0.000 NA
ATOM      3  C   UNL     1       3.361   4.162  19.559  0.00  0.00    +0.000 A 
ATOM      4  N   UNL     1       2.688   5.184  20.130  0.00  0.00    +0.000 NA
ATOM      5  C   UNL     1       2.619   6.337  19.461  0.00  0.00    +0.000 A 
ATOM      6  C   UNL     1       1.917   7.386  20.041  0.00  0.00    +0.000 A 
ATOM      7  C   UNL     1       1.736   8.606  19.386  0.00  0.00    +0.000 A 
ATOM      8  C   UNL     1       2.265   8.785  18.117  0.00  0.00    +0.000 A 
ATOM      9  C   UNL     1       3.012   7.763  17.537  0.00  0.00    +0.000 A 
ATOM     10  C   UNL     1       3.217   6.528  18.208  0.00  0.00    +0.000 A 
ENDROOT
BRANCH   3  11
ATOM     11  C   UNL     1       3.350   2.809  20.279  0.00  0.00    +0.000 C 
ATOM     12  F   UNL     1       2.874   2.872  21.562  0.00  0.00    +0.000 F 
ATOM     13  F   UNL     1       2.582   1.866  19.655  0.00  0.00    +0.000 F 
ATOM     14  F   UNL     1       4.597   2.255  20.389  0.00  0.00    +0.000 F 
ENDBRANCH   3  11
BRANCH   1  15
ATOM     15  N   UNL     1       4.809   5.595  16.600  0.00  0.00    +0.000 N 
ATOM     16  H   UNL     1       4.431   5.068  15.812  0.00  0.00    +0.000 HD
BRANCH  15  17
ATOM     17  CA  UNL     1       6.217   5.178  16.789  0.00  0.00    +0.000 C 
BRANCH  17  19
ATOM     18  C   UNL     1       7.693   6.282  18.569  0.00  0.00    +0.000 C 
ATOM     19  C   UNL     1       7.073   6.392  17.182  0.00  0.00    +0.000 C 
ENDBRANCH  17  19
BRANCH  17  20
ATOM     20  C   UNL     1       6.735   4.659  15.427  0.00  0.00    +0.000 C 
ATOM     21  O   UNL     1       6.250   3.685  14.864  0.00  0.00    +0.000 OA
BRANCH  20  22
ATOM     22  OXT UNL     1       7.743   5.378  14.895  0.00  0.00    +0.000 OA
ATOM     23  HXT UNL     1       8.449   5.625  15.531  0.00  0.00    +0.000 HD
ENDBRANCH  20  22
ENDBRANCH  17  20
ENDBRANCH  15  17
ENDBRANCH   1  15
TORSDOF 6
ENDMDL
MODEL 6
REMARK VINA RESULT:      -7.4      2.837      4.322
REMARK  Name = 
REMARK  7 active torsions:
REMARK  status: ('A' for Active; 'I' for Inactive)
REMARK    1  A    between atoms: C_1  and  C_2
REMARK    2  A    between atoms: C_2  and  CA_3
REMARK    3  A    between atoms: CA_3  and  N_4
REMARK    4  A    between atoms: CA_3  and  C_19
REMARK    5  A    between atoms: N_4  and  C_5
REMARK    6  A    between atoms: C_7  and  C_8
REMARK    7  A    between atoms: C_19  and  OXT_21
REMARK                            x       y       z     vdW  Elec       q    Type
REMARK                         _______ _______ _______ _____ _____    ______ ____
ROOT
ATOM      1  C   UNL     1       4.279   4.709  18.721  0.00  0.00    +0.000 A 
ATOM      2  N   UNL     1       3.925   5.936  18.295  0.00  0.00    +0.000 NA
ATOM      3  C   UNL     1       2.788   6.482  18.786  0.00  0.00    +0.000 A 
ATOM      4  N   UNL     1       1.969   5.847  19.651  0.00  0.00    +0.000 NA
ATOM      5  C   UNL     1       2.336   4.640  20.088  0.00  0.00    +0.000 A 
ATOM      6  C   UNL     1       1.500   3.991  20.988  0.00  0.00    +0.000 A 
ATOM      7  C   UNL     1       1.835   2.757  21.550  0.00  0.00    +0.000 A 
ATOM      8  C   UNL     1       3.036   2.155  21.209  0.00  0.00    +0.000 A 
ATOM      9  C   UNL     1       3.867   2.766  20.273  0.00  0.00    +0.000 A 
ATOM     10  C   UNL     1       3.521   4.011  19.683  0.00  0.00    +0.000 A 
ENDROOT
BRANCH   3  11
ATOM     11  C   UNL     1       2.418   7.908  18.366  0.00  0.00    +0.000 C 
ATOM     12  F   UNL     1       1.935   8.675  19.393  0.00  0.00    +0.000 F 
ATOM     13  F   UNL     1       3.469   8.615  17.851  0.00  0.00    +0.000 F 
ATOM     14  F   UNL     1       1.443   7.945  17.405  0.00  0.00    +0.000 F 
ENDBRANCH   3  11
BRANCH   1  15
ATOM     15  N   UNL     1       5.350   4.069  18.057  0.00  0.00    +0.000 N 
ATOM     16  H   UNL     1       6.170   4.063  18.666  0.00  0.00    +0.000 HD
BRANCH  15  17
ATOM     17  CA  UNL     1       5.753   4.662  16.762  0.00  0.00    +0.000 C 
BRANCH  17  19
ATOM     18  C   UNL     1       6.015   4.133  14.269  0.00  0.00    +0.000 C 
ATOM     19  C   UNL     1       5.615   3.616  15.644  0.00  0.00    +0.000 C 
ENDBRANCH  17  19
BRANCH  17  20
ATOM     20  C   UNL     1       7.249   5.039  16.869  0.00  0.00    +0.000 C 
ATOM     21  O   UNL     1       8.113   4.230  17.187  0.00  0.00    +0.000 OA
BRANCH  20  22
ATOM     22  OXT UNL     1       7.533   6.320  16.560  0.00  0.00    +0.000 OA
ATOM     23  HXT UNL     1       6.989   6.985  17.035  0.00  0.00    +0.000 HD
ENDBRANCH  20  22
ENDBRANCH  17  20
ENDBRANCH  15  17
ENDBRANCH   1  15
TORSDOF 6
ENDMDL
MODEL 7
REMARK VINA RESULT:      -7.4      3.133      4.262
REMARK  Name = 
REMARK  7 active torsions:
REMARK  status: ('A' for Active; 'I' for Inactive)
REMARK    1  A    between atoms: C_1  and  C_2
REMARK    2  A    between atoms: C_2  and  CA_3
REMARK    3  A    between atoms: CA_3  and  N_4
REMARK    4  A    between atoms: CA_3  and  C_19
REMARK    5  A    between atoms: N_4  and  C_5
REMARK    6  A    between atoms: C_7  and  C_8
REMARK    7  A    between atoms: C_19  and  OXT_21
REMARK                            x       y       z     vdW  Elec       q    Type
REMARK                         _______ _______ _______ _____ _____    ______ ____
ROOT
ATOM      1  C   UNL     1       4.466   5.732  17.687  0.00  0.00    +0.000 A 
ATOM      2  N   UNL     1       3.936   6.963  17.810  0.00  0.00    +0.000 NA
ATOM      3  C   UNL     1       2.607   7.070  18.043  0.00  0.00    +0.000 A 
ATOM      4  N   UNL     1       1.777   6.008  18.122  0.00  0.00    +0.000 NA
ATOM      5  C   UNL     1       2.310   4.789  18.023  0.00  0.00    +0.000 A 
ATOM      6  C   UNL     1       1.458   3.695  18.116  0.00  0.00    +0.000 A 
ATOM      7  C   UNL     1       1.934   2.382  18.091  0.00  0.00    +0.000 A 
ATOM      8  C   UNL     1       3.296   2.153  17.974  0.00  0.00    +0.000 A 
ATOM      9  C   UNL     1       4.164   3.234  17.831  0.00  0.00    +0.000 A 
ATOM     10  C   UNL     1       3.681   4.570  17.835  0.00  0.00    +0.000 A 
ENDROOT
BRANCH   3  11
ATOM     11  C   UNL     1       2.009   8.463  18.261  0.00  0.00    +0.000 C 
ATOM     12  F   UNL     1       0.900   8.711  17.497  0.00  0.00    +0.000 F 
ATOM     13  F   UNL     1       1.617   8.693  19.550  0.00  0.00    +0.000 F 
ATOM     14  F   UNL     1       2.883   9.472  17.956  0.00  0.00    +0.000 F 
ENDBRANCH   3  11
BRANCH   1  15
ATOM     15  N   UNL     1       5.805   5.636  17.247  0.00  0.00    +0.000 N 
ATOM     16  H   UNL     1       6.077   4.653  17.202  0.00  0.00    +0.000 HD
BRANCH  15  17
ATOM     17  CA  UNL     1       6.808   6.344  18.074  0.00  0.00    +0.000 C 
BRANCH  17  19
ATOM     18  C   UNL     1       8.116   8.544  17.943  0.00  0.00    +0.000 C 
ATOM     19  C   UNL     1       7.616   7.314  17.196  0.00  0.00    +0.000 C 
ENDBRANCH  17  19
BRANCH  17  20
ATOM     20  C   UNL     1       7.788   5.283  18.626  0.00  0.00    +0.000 C 
ATOM     21  O   UNL     1       8.177   4.333  17.958  0.00  0.00    +0.000 OA
BRANCH  20  22
ATOM     22  OXT UNL     1       8.202   5.499  19.891  0.00  0.00    +0.000 OA
ATOM     23  HXT UNL     1       8.960   6.118  19.972  0.00  0.00    +0.000 HD
ENDBRANCH  20  22
ENDBRANCH  17  20
ENDBRANCH  15  17
ENDBRANCH   1  15
TORSDOF 6
ENDMDL
MODEL 8
REMARK VINA RESULT:      -7.4      3.504      5.216
REMARK  Name = 
REMARK  7 active torsions:
REMARK  status: ('A' for Active; 'I' for Inactive)
REMARK    1  A    between atoms: C_1  and  C_2
REMARK    2  A    between atoms: C_2  and  CA_3
REMARK    3  A    between atoms: CA_3  and  N_4
REMARK    4  A    between atoms: CA_3  and  C_19
REMARK    5  A    between atoms: N_4  and  C_5
REMARK    6  A    between atoms: C_7  and  C_8
REMARK    7  A    between atoms: C_19  and  OXT_21
REMARK                            x       y       z     vdW  Elec       q    Type
REMARK                         _______ _______ _______ _____ _____    ______ ____
ROOT
ATOM      1  C   UNL     1       3.018   6.171  19.544  0.00  0.00    +0.000 A 
ATOM      2  N   UNL     1       3.864   5.873  18.541  0.00  0.00    +0.000 NA
ATOM      3  C   UNL     1       3.972   6.746  17.512  0.00  0.00    +0.000 A 
ATOM      4  N   UNL     1       3.248   7.882  17.419  0.00  0.00    +0.000 NA
ATOM      5  C   UNL     1       2.429   8.185  18.428  0.00  0.00    +0.000 A 
ATOM      6  C   UNL     1       1.692   9.361  18.340  0.00  0.00    +0.000 A 
ATOM      7  C   UNL     1       0.861   9.791  19.375  0.00  0.00    +0.000 A 
ATOM      8  C   UNL     1       0.762   9.034  20.532  0.00  0.00    +0.000 A 
ATOM      9  C   UNL     1       1.455   7.828  20.622  0.00  0.00    +0.000 A 
ATOM     10  C   UNL     1       2.285   7.375  19.563  0.00  0.00    +0.000 A 
ENDROOT
BRANCH   3  11
ATOM     11  C   UNL     1       4.988   6.453  16.404  0.00  0.00    +0.000 C 
ATOM     12  F   UNL     1       4.732   7.117  15.233  0.00  0.00    +0.000 F 
ATOM     13  F   UNL     1       6.270   6.791  16.736  0.00  0.00    +0.000 F 
ATOM     14  F   UNL     1       5.034   5.129  16.059  0.00  0.00    +0.000 F 
ENDBRANCH   3  11
BRANCH   1  15
ATOM     15  N   UNL     1       2.764   5.168  20.506  0.00  0.00    +0.000 N 
ATOM     16  H   UNL     1       3.547   5.118  21.159  0.00  0.00    +0.000 HD
BRANCH  15  17
ATOM     17  CA  UNL     1       2.533   3.807  19.973  0.00  0.00    +0.000 C 
BRANCH  17  19
ATOM     18  C   UNL     1       0.665   2.429  18.887  0.00  0.00    +0.000 C 
ATOM     19  C   UNL     1       1.023   3.533  19.873  0.00  0.00    +0.000 C 
ENDBRANCH  17  19
BRANCH  17  20
ATOM     20  C   UNL     1       3.125   2.803  20.989  0.00  0.00    +0.000 C 
ATOM     21  O   UNL     1       2.602   2.575  22.074  0.00  0.00    +0.000 OA
BRANCH  20  22
ATOM     22  OXT UNL     1       4.247   2.177  20.580  0.00  0.00    +0.000 OA
ATOM     23  HXT UNL     1       4.160   1.204  20.483  0.00  0.00    +0.000 HD
ENDBRANCH  20  22
ENDBRANCH  17  20
ENDBRANCH  15  17
ENDBRANCH   1  15
TORSDOF 6
ENDMDL
MODEL 9
REMARK VINA RESULT:      -7.4      3.338      4.986
REMARK  Name = 
REMARK  7 active torsions:
REMARK  status: ('A' for Active; 'I' for Inactive)
REMARK    1  A    between atoms: C_1  and  C_2
REMARK    2  A    between atoms: C_2  and  CA_3
REMARK    3  A    between atoms: CA_3  and  N_4
REMARK    4  A    between atoms: CA_3  and  C_19
REMARK    5  A    between atoms: N_4  and  C_5
REMARK    6  A    between atoms: C_7  and  C_8
REMARK    7  A    between atoms: C_19  and  OXT_21
REMARK                            x       y       z     vdW  Elec       q    Type
REMARK                         _______ _______ _______ _____ _____    ______ ____
ROOT
ATOM      1  C   UNL     1       3.351   5.446  19.268  0.00  0.00    +0.000 A 
ATOM      2  N   UNL     1       4.139   5.350  18.182  0.00  0.00    +0.000 NA
ATOM      3  C   UNL     1       4.169   6.391  17.317  0.00  0.00    +0.000 A 
ATOM      4  N   UNL     1       3.421   7.505  17.465  0.00  0.00    +0.000 NA
ATOM      5  C   UNL     1       2.659   7.606  18.555  0.00  0.00    +0.000 A 
ATOM      6  C   UNL     1       1.898   8.758  18.715  0.00  0.00    +0.000 A 
ATOM      7  C   UNL     1       1.123   8.979  19.856  0.00  0.00    +0.000 A 
ATOM      8  C   UNL     1       1.108   8.031  20.866  0.00  0.00    +0.000 A 
ATOM      9  C   UNL     1       1.826   6.848  20.705  0.00  0.00    +0.000 A 
ATOM     10  C   UNL     1       2.599   6.608  19.538  0.00  0.00    +0.000 A 
ENDROOT
BRANCH   3  11
ATOM     11  C   UNL     1       5.121   6.323  16.118  0.00  0.00    +0.000 C 
ATOM     12  F   UNL     1       4.786   7.176  15.100  0.00  0.00    +0.000 F 
ATOM     13  F   UNL     1       6.415   6.628  16.432  0.00  0.00    +0.000 F 
ATOM     14  F   UNL     1       5.165   5.081  15.542  0.00  0.00    +0.000 F 
ENDBRANCH   3  11
BRANCH   1  15
ATOM     15  N   UNL     1       3.173   4.285  20.053  0.00  0.00    +0.000 N 
ATOM     16  H   UNL     1       4.048   4.060  20.528  0.00  0.00    +0.000 HD
BRANCH  15  17
ATOM     17  CA  UNL     1       2.730   3.076  19.324  0.00  0.00    +0.000 C 
BRANCH  17  19
ATOM     18  C   UNL     1       1.479   2.762  21.538  0.00  0.00    +0.000 C 
ATOM     19  C   UNL     1       1.537   2.435  20.052  0.00  0.00    +0.000 C 
ENDBRANCH  17  19
BRANCH  17  20
ATOM     20  C   UNL     1       3.898   2.062  19.354  0.00  0.00    +0.000 C 
ATOM     21  O   UNL     1       4.828   2.150  20.146  0.00  0.00    +0.000 OA
BRANCH  20  22
ATOM     22  OXT UNL     1       3.799   1.058  18.459  0.00  0.00    +0.000 OA
ATOM     23  HXT UNL     1       3.062   0.432  18.627  0.00  0.00    +0.000 HD
ENDBRANCH  20  22
ENDBRANCH  17  20
ENDBRANCH  15  17
ENDBRANCH   1  15
TORSDOF 6
ENDMDL
