MODEL 1
REMARK VINA RESULT:      -7.7      0.000      0.000
REMARK  Name = 
REMARK  10 active torsions:
REMARK  status: ('A' for Active; 'I' for Inactive)
REMARK    1  A    between atoms: C_1  and  C_2
REMARK    2  A    between atoms: C_5  and  C_6
REMARK    3  A    between atoms: C_6  and  C_7
REMARK    4  A    between atoms: C_6  and  N_8
REMARK    5  A    between atoms: C_11  and  C_12
REMARK    6  A    between atoms: C_12  and  O_14
REMARK    7  A    between atoms: O_14  and  C_15
REMARK    8  A    between atoms: C_15  and  C_16
REMARK    9  A    between atoms: C_15  and  C_17
REMARK   10  A    between atoms: C_15  and  C_18
REMARK                            x       y       z     vdW  Elec       q    Type
REMARK                         _______ _______ _______ _____ _____    ______ ____
ROOT
ATOM      1  N   UNL     1       5.393   4.530  17.973  0.00  0.00    +0.000 NA
ATOM      2  C   UNL     1       4.315   4.989  17.097  0.00  0.00    +0.000 C 
ATOM      3  C   UNL     1       3.802   6.282  17.705  0.00  0.00    +0.000 C 
ATOM      4  C   UNL     1       4.066   6.117  19.198  0.00  0.00    +0.000 C 
ATOM      5  C   UNL     1       5.256   5.184  19.282  0.00  0.00    +0.000 C 
ENDROOT
BRANCH   1   6
ATOM      6  C   UNL     1       6.750   4.558  17.388  0.00  0.00    +0.000 C 
ATOM      7  C   UNL     1       7.546   5.743  17.956  0.00  0.00    +0.000 C 
BRANCH   6  12
ATOM      8  C   UNL     1       6.439   3.713  12.494  0.00  0.00    +0.000 C 
ATOM      9  C   UNL     1       6.749   4.301  13.810  0.00  0.00    +0.000 A 
ATOM     10  N   UNL     1       7.481   5.413  13.947  0.00  0.00    +0.000 NA
ATOM     11  O   UNL     1       7.536   5.590  15.329  0.00  0.00    +0.000 OA
ATOM     12  C   UNL     1       6.825   4.561  15.884  0.00  0.00    +0.000 A 
ATOM     13  N   UNL     1       6.314   3.745  14.987  0.00  0.00    +0.000 NA
ENDBRANCH   6  12
ENDBRANCH   1   6
BRANCH   4  14
ATOM     14  C   UNL     1       2.891   5.511  19.920  0.00  0.00    +0.000 C 
ATOM     15  O   UNL     1       1.894   6.153  20.237  0.00  0.00    +0.000 OA
BRANCH  14  16
ATOM     16  O   UNL     1       3.101   4.194  20.197  0.00  0.00    +0.000 OA
BRANCH  16  17
ATOM     17  C   UNL     1       2.128   3.224  19.718  0.00  0.00    +0.000 C 
ATOM     18  C   UNL     1       1.317   3.792  18.546  0.00  0.00    +0.000 C 
ATOM     19  C   UNL     1       2.931   2.011  19.210  0.00  0.00    +0.000 C 
ATOM     20  C   UNL     1       1.244   2.746  20.874  0.00  0.00    +0.000 C 
ENDBRANCH  16  17
ENDBRANCH  14  16
ENDBRANCH   4  14
TORSDOF 5
ENDMDL
MODEL 2
REMARK VINA RESULT:      -7.6      0.653      1.122
REMARK  Name = 
REMARK  10 active torsions:
REMARK  status: ('A' for Active; 'I' for Inactive)
REMARK    1  A    between atoms: C_1  and  C_2
REMARK    2  A    between atoms: C_5  and  C_6
REMARK    3  A    between atoms: C_6  and  C_7
REMARK    4  A    between atoms: C_6  and  N_8
REMARK    5  A    between atoms: C_11  and  C_12
REMARK    6  A    between atoms: C_12  and  O_14
REMARK    7  A    between atoms: O_14  and  C_15
REMARK    8  A    between atoms: C_15  and  C_16
REMARK    9  A    between atoms: C_15  and  C_17
REMARK   10  A    between atoms: C_15  and  C_18
REMARK                            x       y       z     vdW  Elec       q    Type
REMARK                         _______ _______ _______ _____ _____    ______ ____
ROOT
ATOM      1  N   UNL     1       5.338   4.669  17.596  0.00  0.00    +0.000 NA
ATOM      2  C   UNL     1       4.354   5.599  17.041  0.00  0.00    +0.000 C 
ATOM      3  C   UNL     1       4.004   6.559  18.162  0.00  0.00    +0.000 C 
ATOM      4  C   UNL     1       4.204   5.733  19.429  0.00  0.00    +0.000 C 
ATOM      5  C   UNL     1       5.257   4.708  19.062  0.00  0.00    +0.000 C 
ENDROOT
BRANCH   1   6
ATOM      6  C   UNL     1       6.701   4.768  17.032  0.00  0.00    +0.000 C 
ATOM      7  C   UNL     1       7.373   6.067  17.501  0.00  0.00    +0.000 C 
BRANCH   6  12
ATOM      8  C   UNL     1       6.452   3.543  12.217  0.00  0.00    +0.000 C 
ATOM      9  C   UNL     1       6.770   4.216  13.489  0.00  0.00    +0.000 A 
ATOM     10  N   UNL     1       7.572   5.284  13.557  0.00  0.00    +0.000 NA
ATOM     11  O   UNL     1       7.606   5.572  14.921  0.00  0.00    +0.000 OA
ATOM     12  C   UNL     1       6.813   4.641  15.536  0.00  0.00    +0.000 A 
ATOM     13  N   UNL     1       6.268   3.790  14.694  0.00  0.00    +0.000 NA
ENDBRANCH   6  12
ENDBRANCH   1   6
BRANCH   4  14
ATOM     14  C   UNL     1       2.941   5.036  19.861  0.00  0.00    +0.000 C 
ATOM     15  O   UNL     1       1.975   5.628  20.333  0.00  0.00    +0.000 OA
BRANCH  14  16
ATOM     16  O   UNL     1       3.033   3.687  19.692  0.00  0.00    +0.000 OA
BRANCH  16  17
ATOM     17  C   UNL     1       2.111   3.043  18.768  0.00  0.00    +0.000 C 
ATOM     18  C   UNL     1       2.826   1.968  17.939  0.00  0.00    +0.000 C 
ATOM     19  C   UNL     1       1.036   2.355  19.631  0.00  0.00    +0.000 C 
ATOM     20  C   UNL     1       1.411   4.093  17.901  0.00  0.00    +0.000 C 
ENDBRANCH  16  17
ENDBRANCH  14  16
ENDBRANCH   4  14
TORSDOF 5
ENDMDL
MODEL 3
REMARK VINA RESULT:      -7.3      1.074      1.210
REMARK  Name = 
REMARK  10 active torsions:
REMARK  status: ('A' for Active; 'I' for Inactive)
REMARK    1  A    between atoms: C_1  and  C_2
REMARK    2  A    between atoms: C_5  and  C_6
REMARK    3  A    between atoms: C_6  and  C_7
REMARK    4  A    between atoms: C_6  and  N_8
REMARK    5  A    between atoms: C_11  and  C_12
REMARK    6  A    between atoms: C_12  and  O_14
REMARK    7  A    between atoms: O_14  and  C_15
REMARK    8  A    between atoms: C_15  and  C_16
REMARK    9  A    between atoms: C_15  and  C_17
REMARK   10  A    between atoms: C_15  and  C_18
REMARK                            x       y       z     vdW  Elec       q    Type
REMARK                         _______ _______ _______ _____ _____    ______ ____
ROOT
ATOM      1  N   UNL     1       5.323   4.579  17.640  0.00  0.00    +0.000 NA
ATOM      2  C   UNL     1       4.422   5.581  17.068  0.00  0.00    +0.000 C 
ATOM      3  C   UNL     1       4.080   6.532  18.199  0.00  0.00    +0.000 C 
ATOM      4  C   UNL     1       4.174   5.666  19.451  0.00  0.00    +0.000 C 
ATOM      5  C   UNL     1       5.179   4.587  19.102  0.00  0.00    +0.000 C 
ENDROOT
BRANCH   1   6
ATOM      6  C   UNL     1       6.713   4.608  17.138  0.00  0.00    +0.000 C 
ATOM      7  C   UNL     1       7.473   5.790  17.759  0.00  0.00    +0.000 C 
BRANCH   6  12
ATOM      8  C   UNL     1       7.881   5.439  12.374  0.00  0.00    +0.000 C 
ATOM      9  C   UNL     1       7.311   4.877  13.612  0.00  0.00    +0.000 A 
ATOM     10  N   UNL     1       6.469   3.838  13.610  0.00  0.00    +0.000 NA
ATOM     11  O   UNL     1       6.177   3.661  14.962  0.00  0.00    +0.000 OA
ATOM     12  C   UNL     1       6.880   4.617  15.642  0.00  0.00    +0.000 A 
ATOM     13  N   UNL     1       7.601   5.386  14.854  0.00  0.00    +0.000 NA
ENDBRANCH   6  12
ENDBRANCH   1   6
BRANCH   4  14
ATOM     14  C   UNL     1       2.853   5.037  19.809  0.00  0.00    +0.000 C 
ATOM     15  O   UNL     1       1.921   5.667  20.300  0.00  0.00    +0.000 OA
BRANCH  14  16
ATOM     16  O   UNL     1       2.852   3.699  19.551  0.00  0.00    +0.000 OA
BRANCH  16  17
ATOM     17  C   UNL     1       1.858   3.175  18.627  0.00  0.00    +0.000 C 
ATOM     18  C   UNL     1       1.356   4.271  17.679  0.00  0.00    +0.000 C 
ATOM     19  C   UNL     1       2.566   2.094  17.788  0.00  0.00    +0.000 C 
ATOM     20  C   UNL     1       0.723   2.495  19.400  0.00  0.00    +0.000 C 
ENDBRANCH  16  17
ENDBRANCH  14  16
ENDBRANCH   4  14
TORSDOF 5
ENDMDL
MODEL 4
REMARK VINA RESULT:      -7.1      1.036      1.113
REMARK  Name = 
REMARK  10 active torsions:
REMARK  status: ('A' for Active; 'I' for Inactive)
REMARK    1  A    between atoms: C_1  and  C_2
REMARK    2  A    between atoms: C_5  and  C_6
REMARK    3  A    between atoms: C_6  and  C_7
REMARK    4  A    between atoms: C_6  and  N_8
REMARK    5  A    between atoms: C_11  and  C_12
REMARK    6  A    between atoms: C_12  and  O_14
REMARK    7  A    between atoms: O_14  and  C_15
REMARK    8  A    between atoms: C_15  and  C_16
REMARK    9  A    between atoms: C_15  and  C_17
REMARK   10  A    between atoms: C_15  and  C_18
REMARK                            x       y       z     vdW  Elec       q    Type
REMARK                         _______ _______ _______ _____ _____    ______ ____
ROOT
ATOM      1  N   UNL     1       4.751   5.260  17.797  0.00  0.00    +0.000 NA
ATOM      2  C   UNL     1       3.728   6.277  17.550  0.00  0.00    +0.000 C 
ATOM      3  C   UNL     1       3.336   6.818  18.912  0.00  0.00    +0.000 C 
ATOM      4  C   UNL     1       3.571   5.644  19.857  0.00  0.00    +0.000 C 
ATOM      5  C   UNL     1       4.667   4.830  19.200  0.00  0.00    +0.000 C 
ENDROOT
BRANCH   1   6
ATOM      6  C   UNL     1       6.109   5.586  17.312  0.00  0.00    +0.000 C 
ATOM      7  C   UNL     1       6.388   7.086  17.496  0.00  0.00    +0.000 C 
BRANCH   6  12
ATOM      8  C   UNL     1       6.315   3.650  12.734  0.00  0.00    +0.000 C 
ATOM      9  C   UNL     1       6.604   4.422  13.957  0.00  0.00    +0.000 A 
ATOM     10  N   UNL     1       7.673   5.219  14.069  0.00  0.00    +0.000 NA
ATOM     11  O   UNL     1       7.561   5.721  15.365  0.00  0.00    +0.000 OA
ATOM     12  C   UNL     1       6.428   5.172  15.901  0.00  0.00    +0.000 A 
ATOM     13  N   UNL     1       5.799   4.371  15.067  0.00  0.00    +0.000 NA
ENDBRANCH   6  12
ENDBRANCH   1   6
BRANCH   4  14
ATOM     14  C   UNL     1       2.339   4.796  20.029  0.00  0.00    +0.000 C 
ATOM     15  O   UNL     1       1.290   5.224  20.501  0.00  0.00    +0.000 OA
BRANCH  14  16
ATOM     16  O   UNL     1       2.558   3.512  19.631  0.00  0.00    +0.000 OA
BRANCH  16  17
ATOM     17  C   UNL     1       1.764   2.984  18.533  0.00  0.00    +0.000 C 
ATOM     18  C   UNL     1       1.333   4.104  17.578  0.00  0.00    +0.000 C 
ATOM     19  C   UNL     1       2.675   2.011  17.760  0.00  0.00    +0.000 C 
ATOM     20  C   UNL     1       0.578   2.179  19.077  0.00  0.00    +0.000 C 
ENDBRANCH  16  17
ENDBRANCH  14  16
ENDBRANCH   4  14
TORSDOF 5
ENDMDL
MODEL 5
REMARK VINA RESULT:      -7.0      0.793      1.266
REMARK  Name = 
REMARK  10 active torsions:
REMARK  status: ('A' for Active; 'I' for Inactive)
REMARK    1  A    between atoms: C_1  and  C_2
REMARK    2  A    between atoms: C_5  and  C_6
REMARK    3  A    between atoms: C_6  and  C_7
REMARK    4  A    between atoms: C_6  and  N_8
REMARK    5  A    between atoms: C_11  and  C_12
REMARK    6  A    between atoms: C_12  and  O_14
REMARK    7  A    between atoms: O_14  and  C_15
REMARK    8  A    between atoms: C_15  and  C_16
REMARK    9  A    between atoms: C_15  and  C_17
REMARK   10  A    between atoms: C_15  and  C_18
REMARK                            x       y       z     vdW  Elec       q    Type
REMARK                         _______ _______ _______ _____ _____    ______ ____
ROOT
ATOM      1  N   UNL     1       5.729   4.413  18.222  0.00  0.00    +0.000 NA
ATOM      2  C   UNL     1       4.692   3.781  17.405  0.00  0.00    +0.000 C 
ATOM      3  C   UNL     1       3.604   4.824  17.226  0.00  0.00    +0.000 C 
ATOM      4  C   UNL     1       3.700   5.675  18.488  0.00  0.00    +0.000 C 
ATOM      5  C   UNL     1       5.147   5.567  18.921  0.00  0.00    +0.000 C 
ENDROOT
BRANCH   1   6
ATOM      6  C   UNL     1       7.016   4.665  17.541  0.00  0.00    +0.000 C 
ATOM      7  C   UNL     1       7.624   5.987  18.035  0.00  0.00    +0.000 C 
BRANCH   6  12
ATOM      8  C   UNL     1       6.395   3.721  12.695  0.00  0.00    +0.000 C 
ATOM      9  C   UNL     1       6.777   4.343  13.977  0.00  0.00    +0.000 A 
ATOM     10  N   UNL     1       7.481   5.478  14.044  0.00  0.00    +0.000 NA
ATOM     11  O   UNL     1       7.625   5.683  15.416  0.00  0.00    +0.000 OA
ATOM     12  C   UNL     1       6.987   4.643  16.036  0.00  0.00    +0.000 A 
ATOM     13  N   UNL     1       6.441   3.795  15.190  0.00  0.00    +0.000 NA
ENDBRANCH   6  12
ENDBRANCH   1   6
BRANCH   4  14
ATOM     14  C   UNL     1       2.799   5.172  19.584  0.00  0.00    +0.000 C 
ATOM     15  O   UNL     1       2.853   5.583  20.739  0.00  0.00    +0.000 OA
BRANCH  14  16
ATOM     16  O   UNL     1       1.963   4.195  19.133  0.00  0.00    +0.000 OA
BRANCH  16  17
ATOM     17  C   UNL     1       1.982   2.905  19.805  0.00  0.00    +0.000 C 
ATOM     18  C   UNL     1       3.364   2.618  20.405  0.00  0.00    +0.000 C 
ATOM     19  C   UNL     1       0.962   2.995  20.957  0.00  0.00    +0.000 C 
ATOM     20  C   UNL     1       1.509   1.804  18.850  0.00  0.00    +0.000 C 
ENDBRANCH  16  17
ENDBRANCH  14  16
ENDBRANCH   4  14
TORSDOF 5
ENDMDL
MODEL 6
REMARK VINA RESULT:      -6.8      2.151      3.437
REMARK  Name = 
REMARK  10 active torsions:
REMARK  status: ('A' for Active; 'I' for Inactive)
REMARK    1  A    between atoms: C_1  and  C_2
REMARK    2  A    between atoms: C_5  and  C_6
REMARK    3  A    between atoms: C_6  and  C_7
REMARK    4  A    between atoms: C_6  and  N_8
REMARK    5  A    between atoms: C_11  and  C_12
REMARK    6  A    between atoms: C_12  and  O_14
REMARK    7  A    between atoms: O_14  and  C_15
REMARK    8  A    between atoms: C_15  and  C_16
REMARK    9  A    between atoms: C_15  and  C_17
REMARK   10  A    between atoms: C_15  and  C_18
REMARK                            x       y       z     vdW  Elec       q    Type
REMARK                         _______ _______ _______ _____ _____    ______ ____
ROOT
ATOM      1  N   UNL     1       4.992   5.289  16.582  0.00  0.00    +0.000 NA
ATOM      2  C   UNL     1       4.251   6.171  17.484  0.00  0.00    +0.000 C 
ATOM      3  C   UNL     1       4.327   5.530  18.857  0.00  0.00    +0.000 C 
ATOM      4  C   UNL     1       4.440   4.038  18.560  0.00  0.00    +0.000 C 
ATOM      5  C   UNL     1       5.106   3.961  17.201  0.00  0.00    +0.000 C 
ENDROOT
BRANCH   1   6
ATOM      6  C   UNL     1       6.247   5.844  16.032  0.00  0.00    +0.000 C 
ATOM      7  C   UNL     1       7.126   4.712  15.478  0.00  0.00    +0.000 C 
BRANCH   6  12
ATOM      8  C   UNL     1       8.633   9.471  18.460  0.00  0.00    +0.000 C 
ATOM      9  C   UNL     1       8.084   8.163  18.058  0.00  0.00    +0.000 A 
ATOM     10  N   UNL     1       8.330   7.039  18.740  0.00  0.00    +0.000 NA
ATOM     11  O   UNL     1       7.645   6.068  18.011  0.00  0.00    +0.000 OA
ATOM     12  C   UNL     1       7.052   6.713  16.960  0.00  0.00    +0.000 A 
ATOM     13  N   UNL     1       7.287   8.008  16.951  0.00  0.00    +0.000 NA
ENDBRANCH   6  12
ENDBRANCH   1   6
BRANCH   4  14
ATOM     14  C   UNL     1       3.095   3.363  18.508  0.00  0.00    +0.000 C 
ATOM     15  O   UNL     1       2.377   3.373  17.512  0.00  0.00    +0.000 OA
BRANCH  14  16
ATOM     16  O   UNL     1       2.779   2.787  19.702  0.00  0.00    +0.000 OA
BRANCH  16  17
ATOM     17  C   UNL     1       1.541   3.184  20.354  0.00  0.00    +0.000 C 
ATOM     18  C   UNL     1       1.405   4.711  20.393  0.00  0.00    +0.000 C 
ATOM     19  C   UNL     1       0.393   2.616  19.498  0.00  0.00    +0.000 C 
ATOM     20  C   UNL     1       1.446   2.545  21.743  0.00  0.00    +0.000 C 
ENDBRANCH  16  17
ENDBRANCH  14  16
ENDBRANCH   4  14
TORSDOF 5
ENDMDL
MODEL 7
REMARK VINA RESULT:      -6.8      2.206      3.683
REMARK  Name = 
REMARK  10 active torsions:
REMARK  status: ('A' for Active; 'I' for Inactive)
REMARK    1  A    between atoms: C_1  and  C_2
REMARK    2  A    between atoms: C_5  and  C_6
REMARK    3  A    between atoms: C_6  and  C_7
REMARK    4  A    between atoms: C_6  and  N_8
REMARK    5  A    between atoms: C_11  and  C_12
REMARK    6  A    between atoms: C_12  and  O_14
REMARK    7  A    between atoms: O_14  and  C_15
REMARK    8  A    between atoms: C_15  and  C_16
REMARK    9  A    between atoms: C_15  and  C_17
REMARK   10  A    between atoms: C_15  and  C_18
REMARK                            x       y       z     vdW  Elec       q    Type
REMARK                         _______ _______ _______ _____ _____    ______ ____
ROOT
ATOM      1  N   UNL     1       5.012   5.164  16.830  0.00  0.00    +0.000 NA
ATOM      2  C   UNL     1       4.457   5.798  18.027  0.00  0.00    +0.000 C 
ATOM      3  C   UNL     1       4.884   4.932  19.197  0.00  0.00    +0.000 C 
ATOM      4  C   UNL     1       5.000   3.534  18.598  0.00  0.00    +0.000 C 
ATOM      5  C   UNL     1       5.335   3.764  17.138  0.00  0.00    +0.000 C 
ENDROOT
BRANCH   1   6
ATOM      6  C   UNL     1       6.074   5.923  16.138  0.00  0.00    +0.000 C 
ATOM      7  C   UNL     1       6.947   4.971  15.305  0.00  0.00    +0.000 C 
BRANCH   6  12
ATOM      8  C   UNL     1       8.619   9.551  18.401  0.00  0.00    +0.000 C 
ATOM      9  C   UNL     1       8.050   8.241  18.031  0.00  0.00    +0.000 A 
ATOM     10  N   UNL     1       8.359   7.113  18.680  0.00  0.00    +0.000 NA
ATOM     11  O   UNL     1       7.626   6.142  18.000  0.00  0.00    +0.000 OA
ATOM     12  C   UNL     1       6.945   6.792  17.006  0.00  0.00    +0.000 A 
ATOM     13  N   UNL     1       7.167   8.089  16.991  0.00  0.00    +0.000 NA
ENDBRANCH   6  12
ENDBRANCH   1   6
BRANCH   4  14
ATOM     14  C   UNL     1       3.716   2.756  18.711  0.00  0.00    +0.000 C 
ATOM     15  O   UNL     1       3.468   1.765  18.031  0.00  0.00    +0.000 OA
BRANCH  14  16
ATOM     16  O   UNL     1       2.874   3.315  19.626  0.00  0.00    +0.000 OA
BRANCH  16  17
ATOM     17  C   UNL     1       1.495   3.563  19.234  0.00  0.00    +0.000 C 
ATOM     18  C   UNL     1       0.697   2.254  19.175  0.00  0.00    +0.000 C 
ATOM     19  C   UNL     1       0.882   4.457  20.329  0.00  0.00    +0.000 C 
ATOM     20  C   UNL     1       1.451   4.344  17.917  0.00  0.00    +0.000 C 
ENDBRANCH  16  17
ENDBRANCH  14  16
ENDBRANCH   4  14
TORSDOF 5
ENDMDL
MODEL 8
REMARK VINA RESULT:      -6.8      1.516      1.963
REMARK  Name = 
REMARK  10 active torsions:
REMARK  status: ('A' for Active; 'I' for Inactive)
REMARK    1  A    between atoms: C_1  and  C_2
REMARK    2  A    between atoms: C_5  and  C_6
REMARK    3  A    between atoms: C_6  and  C_7
REMARK    4  A    between atoms: C_6  and  N_8
REMARK    5  A    between atoms: C_11  and  C_12
REMARK    6  A    between atoms: C_12  and  O_14
REMARK    7  A    between atoms: O_14  and  C_15
REMARK    8  A    between atoms: C_15  and  C_16
REMARK    9  A    between atoms: C_15  and  C_17
REMARK   10  A    between atoms: C_15  and  C_18
REMARK                            x       y       z     vdW  Elec       q    Type
REMARK                         _______ _______ _______ _____ _____    ______ ____
ROOT
ATOM      1  N   UNL     1       5.758   4.239  17.111  0.00  0.00    +0.000 NA
ATOM      2  C   UNL     1       4.382   3.996  16.674  0.00  0.00    +0.000 C 
ATOM      3  C   UNL     1       3.490   4.541  17.773  0.00  0.00    +0.000 C 
ATOM      4  C   UNL     1       4.328   4.387  19.038  0.00  0.00    +0.000 C 
ATOM      5  C   UNL     1       5.764   4.459  18.564  0.00  0.00    +0.000 C 
ENDROOT
BRANCH   1   6
ATOM      6  C   UNL     1       6.517   5.226  16.315  0.00  0.00    +0.000 C 
ATOM      7  C   UNL     1       5.833   6.600  16.385  0.00  0.00    +0.000 C 
BRANCH   6  12
ATOM      8  C   UNL     1       6.687   3.292  11.734  0.00  0.00    +0.000 C 
ATOM      9  C   UNL     1       6.930   4.124  12.927  0.00  0.00    +0.000 A 
ATOM     10  N   UNL     1       7.833   5.110  12.945  0.00  0.00    +0.000 NA
ATOM     11  O   UNL     1       7.742   5.603  14.246  0.00  0.00    +0.000 OA
ATOM     12  C   UNL     1       6.785   4.858  14.880  0.00  0.00    +0.000 A 
ATOM     13  N   UNL     1       6.250   3.939  14.105  0.00  0.00    +0.000 NA
ENDBRANCH   6  12
ENDBRANCH   1   6
BRANCH   4  14
ATOM     14  C   UNL     1       4.083   3.071  19.728  0.00  0.00    +0.000 C 
ATOM     15  O   UNL     1       4.980   2.394  20.220  0.00  0.00    +0.000 OA
BRANCH  14  16
ATOM     16  O   UNL     1       2.764   2.729  19.696  0.00  0.00    +0.000 OA
BRANCH  16  17
ATOM     17  C   UNL     1       1.879   3.299  20.700  0.00  0.00    +0.000 C 
ATOM     18  C   UNL     1       2.410   4.649  21.198  0.00  0.00    +0.000 C 
ATOM     19  C   UNL     1       0.524   3.536  20.006  0.00  0.00    +0.000 C 
ATOM     20  C   UNL     1       1.651   2.296  21.835  0.00  0.00    +0.000 C 
ENDBRANCH  16  17
ENDBRANCH  14  16
ENDBRANCH   4  14
TORSDOF 5
ENDMDL
MODEL 9
REMARK VINA RESULT:      -6.6      0.782      1.136
REMARK  Name = 
REMARK  10 active torsions:
REMARK  status: ('A' for Active; 'I' for Inactive)
REMARK    1  A    between atoms: C_1  and  C_2
REMARK    2  A    between atoms: C_5  and  C_6
REMARK    3  A    between atoms: C_6  and  C_7
REMARK    4  A    between atoms: C_6  and  N_8
REMARK    5  A    between atoms: C_11  and  C_12
REMARK    6  A    between atoms: C_12  and  O_14
REMARK    7  A    between atoms: O_14  and  C_15
REMARK    8  A    between atoms: C_15  and  C_16
REMARK    9  A    between atoms: C_15  and  C_17
REMARK   10  A    between atoms: C_15  and  C_18
REMARK                            x       y       z     vdW  Elec       q    Type
REMARK                         _______ _______ _______ _____ _____    ______ ____
ROOT
ATOM      1  N   UNL     1       5.338   4.769  17.456  0.00  0.00    +0.000 NA
ATOM      2  C   UNL     1       4.373   5.659  16.809  0.00  0.00    +0.000 C 
ATOM      3  C   UNL     1       3.932   6.645  17.875  0.00  0.00    +0.000 C 
ATOM      4  C   UNL     1       4.069   5.864  19.179  0.00  0.00    +0.000 C 
ATOM      5  C   UNL     1       5.163   4.852  18.912  0.00  0.00    +0.000 C 
ENDROOT
BRANCH   1   6
ATOM      6  C   UNL     1       6.732   4.880  16.976  0.00  0.00    +0.000 C 
ATOM      7  C   UNL     1       7.366   6.180  17.494  0.00  0.00    +0.000 C 
BRANCH   6  12
ATOM      8  C   UNL     1       6.755   3.711  12.140  0.00  0.00    +0.000 C 
ATOM      9  C   UNL     1       7.009   4.363  13.437  0.00  0.00    +0.000 A 
ATOM     10  N   UNL     1       7.831   5.411  13.568  0.00  0.00    +0.000 NA
ATOM     11  O   UNL     1       7.786   5.683  14.935  0.00  0.00    +0.000 OA
ATOM     12  C   UNL     1       6.934   4.766  15.488  0.00  0.00    +0.000 A 
ATOM     13  N   UNL     1       6.423   3.937  14.603  0.00  0.00    +0.000 NA
ENDBRANCH   6  12
ENDBRANCH   1   6
BRANCH   4  14
ATOM     14  C   UNL     1       2.795   5.153  19.553  0.00  0.00    +0.000 C 
ATOM     15  O   UNL     1       1.745   5.285  18.931  0.00  0.00    +0.000 OA
BRANCH  14  16
ATOM     16  O   UNL     1       2.959   4.392  20.671  0.00  0.00    +0.000 OA
BRANCH  16  17
ATOM     17  C   UNL     1       2.600   2.984  20.606  0.00  0.00    +0.000 C 
ATOM     18  C   UNL     1       1.415   2.676  21.531  0.00  0.00    +0.000 C 
ATOM     19  C   UNL     1       2.166   2.708  19.154  0.00  0.00    +0.000 C 
ATOM     20  C   UNL     1       3.824   2.111  20.900  0.00  0.00    +0.000 C 
ENDBRANCH  16  17
ENDBRANCH  14  16
ENDBRANCH   4  14
TORSDOF 5
ENDMDL
