MODEL 1
REMARK VINA RESULT:      -8.9      0.000      0.000
REMARK  Name = 
REMARK  7 active torsions:
REMARK  status: ('A' for Active; 'I' for Inactive)
REMARK    1  A    between atoms: C_1  and  O_2
REMARK    2  A    between atoms: O_2  and  C_3
REMARK    3  A    between atoms: C_6  and  C_7
REMARK    4  A    between atoms: C_14  and  C_15
REMARK    5  A    between atoms: C_21  and  N_22
REMARK    6  A    between atoms: N_22  and  S_23
REMARK    7  A    between atoms: S_23  and  C_26
REMARK                            x       y       z     vdW  Elec       q    Type
REMARK                         _______ _______ _______ _____ _____    ______ ____
ROOT
ATOM      1  C   UNL     1       3.858   3.419  19.411  0.00  0.00    +0.000 A 
ATOM      2  N   UNL     1       2.565   3.657  19.734  0.00  0.00    +0.000 NA
ATOM      3  C   UNL     1       2.119   4.928  19.579  0.00  0.00    +0.000 A 
ATOM      4  C   UNL     1       2.906   5.987  19.134  0.00  0.00    +0.000 A 
ATOM      5  C   UNL     1       4.252   5.721  18.858  0.00  0.00    +0.000 A 
ATOM      6  C   UNL     1       4.737   4.412  18.969  0.00  0.00    +0.000 A 
ENDROOT
BRANCH   4   7
ATOM      7  C   UNL     1       2.331   7.342  18.989  0.00  0.00    +0.000 A 
ATOM      8  C   UNL     1       2.765   8.254  17.925  0.00  0.00    +0.000 A 
ATOM      9  C   UNL     1       2.215   9.473  17.764  0.00  0.00    +0.000 A 
ATOM     10  C   UNL     1       1.214   9.911  18.668  0.00  0.00    +0.000 A 
ATOM     11  N   UNL     1       0.524  11.023  18.728  0.00  0.00    +0.000 NA
ATOM     12  C   UNL     1      -0.099  10.934  19.938  0.00  0.00    +0.000 A 
ATOM     13  N   UNL     1      -0.752  12.059  20.343  0.00  0.00    +0.000 N 
ATOM     14  C   UNL     1      -1.132  12.483  21.570  0.00  0.00    +0.000 C 
ATOM     15  C   UNL     1      -0.861  11.700  22.822  0.00  0.00    +0.000 C 
ATOM     16  O   UNL     1      -1.657  13.601  21.659  0.00  0.00    +0.000 OA
ATOM     17  N   UNL     1       0.059   9.768  20.569  0.00  0.00    +0.000 NA
ATOM     18  N   UNL     1       0.888   9.087  19.739  0.00  0.00    +0.000 N 
ATOM     19  C   UNL     1       1.422   7.799  19.874  0.00  0.00    +0.000 A 
ATOM     20  H   UNL     1      -0.849  12.752  19.614  0.00  0.00    +0.000 HD
ENDBRANCH   4   7
BRANCH   1  22
ATOM     21  C   UNL     1       3.716   1.277  18.459  0.00  0.00    +0.000 C 
ATOM     22  O   UNL     1       4.325   2.118  19.434  0.00  0.00    +0.000 OA
ENDBRANCH   1  22
BRANCH   6  23
ATOM     23  N   UNL     1       6.098   4.135  18.612  0.00  0.00    +0.000 N 
ATOM     24  H   UNL     1       6.434   3.181  18.735  0.00  0.00    +0.000 HD
BRANCH  23  25
ATOM     25  S   UNL     1       6.745   4.832  17.227  0.00  0.00    +0.000 S 
ATOM     26  O   UNL     1       7.942   4.080  16.917  0.00  0.00    +0.000 OA
ATOM     27  O   UNL     1       5.693   4.972  16.240  0.00  0.00    +0.000 OA
BRANCH  25  28
ATOM     28  C   UNL     1       7.271   6.448  17.706  0.00  0.00    +0.000 A 
ATOM     29  C   UNL     1       6.859   7.569  16.974  0.00  0.00    +0.000 A 
ATOM     30  C   UNL     1       7.354   8.831  17.318  0.00  0.00    +0.000 A 
ATOM     31  C   UNL     1       8.245   8.957  18.380  0.00  0.00    +0.000 A 
ATOM     32  F   UNL     1       8.721  10.167  18.701  0.00  0.00    +0.000 F 
ATOM     33  C   UNL     1       8.661   7.846  19.104  0.00  0.00    +0.000 A 
ATOM     34  C   UNL     1       8.168   6.591  18.759  0.00  0.00    +0.000 A 
ATOM     35  F   UNL     1       8.590   5.527  19.457  0.00  0.00    +0.000 F 
ENDBRANCH  25  28
ENDBRANCH  23  25
ENDBRANCH   6  23
TORSDOF 5
ENDMDL
MODEL 2
REMARK VINA RESULT:      -8.6      2.886      5.040
REMARK  Name = 
REMARK  7 active torsions:
REMARK  status: ('A' for Active; 'I' for Inactive)
REMARK    1  A    between atoms: C_1  and  O_2
REMARK    2  A    between atoms: O_2  and  C_3
REMARK    3  A    between atoms: C_6  and  C_7
REMARK    4  A    between atoms: C_14  and  C_15
REMARK    5  A    between atoms: C_21  and  N_22
REMARK    6  A    between atoms: N_22  and  S_23
REMARK    7  A    between atoms: S_23  and  C_26
REMARK                            x       y       z     vdW  Elec       q    Type
REMARK                         _______ _______ _______ _____ _____    ______ ____
ROOT
ATOM      1  C   UNL     1       5.090   5.441  16.371  0.00  0.00    +0.000 A 
ATOM      2  N   UNL     1       4.857   6.746  16.092  0.00  0.00    +0.000 NA
ATOM      3  C   UNL     1       3.998   7.402  16.910  0.00  0.00    +0.000 A 
ATOM      4  C   UNL     1       3.338   6.818  17.988  0.00  0.00    +0.000 A 
ATOM      5  C   UNL     1       3.559   5.455  18.218  0.00  0.00    +0.000 A 
ATOM      6  C   UNL     1       4.469   4.754  17.418  0.00  0.00    +0.000 A 
ENDROOT
BRANCH   4   7
ATOM      7  C   UNL     1       2.422   7.616  18.831  0.00  0.00    +0.000 A 
ATOM      8  C   UNL     1       2.182   7.281  20.239  0.00  0.00    +0.000 A 
ATOM      9  C   UNL     1       1.380   8.029  21.022  0.00  0.00    +0.000 A 
ATOM     10  C   UNL     1       0.715   9.151  20.467  0.00  0.00    +0.000 A 
ATOM     11  N   UNL     1      -0.095  10.033  21.001  0.00  0.00    +0.000 NA
ATOM     12  C   UNL     1      -0.570  10.710  19.917  0.00  0.00    +0.000 A 
ATOM     13  N   UNL     1      -1.586  11.581  20.172  0.00  0.00    +0.000 N 
ATOM     14  C   UNL     1      -2.534  12.114  19.368  0.00  0.00    +0.000 C 
ATOM     15  C   UNL     1      -2.634  11.792  17.904  0.00  0.00    +0.000 C 
ATOM     16  O   UNL     1      -3.395  12.837  19.887  0.00  0.00    +0.000 OA
ATOM     17  N   UNL     1       0.004  10.389  18.755  0.00  0.00    +0.000 NA
ATOM     18  N   UNL     1       0.860   9.396  19.107  0.00  0.00    +0.000 N 
ATOM     19  C   UNL     1       1.734   8.650  18.307  0.00  0.00    +0.000 A 
ATOM     20  H   UNL     1      -1.732  11.751  21.157  0.00  0.00    +0.000 HD
ENDBRANCH   4   7
BRANCH   1  22
ATOM     21  C   UNL     1       7.379   4.997  16.096  0.00  0.00    +0.000 C 
ATOM     22  O   UNL     1       6.049   4.763  15.643  0.00  0.00    +0.000 OA
ENDBRANCH   1  22
BRANCH   6  23
ATOM     23  N   UNL     1       4.745   3.378  17.709  0.00  0.00    +0.000 N 
ATOM     24  H   UNL     1       5.378   3.175  18.482  0.00  0.00    +0.000 HD
BRANCH  23  25
ATOM     25  S   UNL     1       3.499   2.253  17.635  0.00  0.00    +0.000 S 
ATOM     26  O   UNL     1       2.578   2.737  16.629  0.00  0.00    +0.000 OA
ATOM     27  O   UNL     1       4.073   0.927  17.525  0.00  0.00    +0.000 OA
BRANCH  25  28
ATOM     28  C   UNL     1       2.661   2.366  19.185  0.00  0.00    +0.000 A 
ATOM     29  C   UNL     1       1.284   2.621  19.225  0.00  0.00    +0.000 A 
ATOM     30  C   UNL     1       0.655   2.790  20.462  0.00  0.00    +0.000 A 
ATOM     31  C   UNL     1       1.401   2.701  21.634  0.00  0.00    +0.000 A 
ATOM     32  F   UNL     1       0.795   2.871  22.816  0.00  0.00    +0.000 F 
ATOM     33  C   UNL     1       2.768   2.455  21.597  0.00  0.00    +0.000 A 
ATOM     34  C   UNL     1       3.393   2.288  20.365  0.00  0.00    +0.000 A 
ATOM     35  F   UNL     1       4.714   2.066  20.346  0.00  0.00    +0.000 F 
ENDBRANCH  25  28
ENDBRANCH  23  25
ENDBRANCH   6  23
TORSDOF 5
ENDMDL
MODEL 3
REMARK VINA RESULT:      -8.6      3.351      5.292
REMARK  Name = 
REMARK  7 active torsions:
REMARK  status: ('A' for Active; 'I' for Inactive)
REMARK    1  A    between atoms: C_1  and  O_2
REMARK    2  A    between atoms: O_2  and  C_3
REMARK    3  A    between atoms: C_6  and  C_7
REMARK    4  A    between atoms: C_14  and  C_15
REMARK    5  A    between atoms: C_21  and  N_22
REMARK    6  A    between atoms: N_22  and  S_23
REMARK    7  A    between atoms: S_23  and  C_26
REMARK                            x       y       z     vdW  Elec       q    Type
REMARK                         _______ _______ _______ _____ _____    ______ ____
ROOT
ATOM      1  C   UNL     1       5.546   5.492  16.590  0.00  0.00    +0.000 A 
ATOM      2  N   UNL     1       5.422   6.819  16.354  0.00  0.00    +0.000 NA
ATOM      3  C   UNL     1       4.447   7.473  17.031  0.00  0.00    +0.000 A 
ATOM      4  C   UNL     1       3.568   6.865  17.923  0.00  0.00    +0.000 A 
ATOM      5  C   UNL     1       3.687   5.482  18.106  0.00  0.00    +0.000 A 
ATOM      6  C   UNL     1       4.707   4.781  17.453  0.00  0.00    +0.000 A 
ENDROOT
BRANCH   4   7
ATOM      7  C   UNL     1       2.537   7.660  18.624  0.00  0.00    +0.000 A 
ATOM      8  C   UNL     1       2.265   7.482  20.054  0.00  0.00    +0.000 A 
ATOM      9  C   UNL     1       1.355   8.234  20.705  0.00  0.00    +0.000 A 
ATOM     10  C   UNL     1       0.607   9.200  19.986  0.00  0.00    +0.000 A 
ATOM     11  N   UNL     1      -0.312  10.050  20.372  0.00  0.00    +0.000 NA
ATOM     12  C   UNL     1      -0.801  10.531  19.194  0.00  0.00    +0.000 A 
ATOM     13  N   UNL     1      -1.911  11.314  19.298  0.00  0.00    +0.000 N 
ATOM     14  C   UNL     1      -2.869  11.638  18.399  0.00  0.00    +0.000 C 
ATOM     15  C   UNL     1      -2.866  11.125  16.987  0.00  0.00    +0.000 C 
ATOM     16  O   UNL     1      -3.822  12.324  18.791  0.00  0.00    +0.000 OA
ATOM     17  N   UNL     1      -0.143  10.129  18.104  0.00  0.00    +0.000 NA
ATOM     18  N   UNL     1       0.791   9.285  18.611  0.00  0.00    +0.000 N 
ATOM     19  C   UNL     1       1.773   8.541  17.946  0.00  0.00    +0.000 A 
ATOM     20  H   UNL     1      -2.120  11.590  20.247  0.00  0.00    +0.000 HD
ENDBRANCH   4   7
BRANCH   1  22
ATOM     21  C   UNL     1       6.395   4.483  14.646  0.00  0.00    +0.000 C 
ATOM     22  O   UNL     1       6.602   4.806  16.018  0.00  0.00    +0.000 OA
ENDBRANCH   1  22
BRANCH   6  23
ATOM     23  N   UNL     1       4.869   3.378  17.705  0.00  0.00    +0.000 N 
ATOM     24  H   UNL     1       5.508   3.102  18.450  0.00  0.00    +0.000 HD
BRANCH  23  25
ATOM     25  S   UNL     1       3.524   2.372  17.655  0.00  0.00    +0.000 S 
ATOM     26  O   UNL     1       2.634   2.936  16.663  0.00  0.00    +0.000 OA
ATOM     27  O   UNL     1       3.973   0.999  17.540  0.00  0.00    +0.000 OA
BRANCH  25  28
ATOM     28  C   UNL     1       2.726   2.563  19.219  0.00  0.00    +0.000 A 
ATOM     29  C   UNL     1       3.459   2.428  20.405  0.00  0.00    +0.000 A 
ATOM     30  C   UNL     1       2.793   2.499  21.632  0.00  0.00    +0.000 A 
ATOM     31  C   UNL     1       1.417   2.704  21.661  0.00  0.00    +0.000 A 
ATOM     32  F   UNL     1       0.783   2.764  22.839  0.00  0.00    +0.000 F 
ATOM     33  C   UNL     1       0.686   2.831  20.486  0.00  0.00    +0.000 A 
ATOM     34  C   UNL     1       1.350   2.759  19.265  0.00  0.00    +0.000 A 
ATOM     35  F   UNL     1       0.630   2.868  18.140  0.00  0.00    +0.000 F 
ENDBRANCH  25  28
ENDBRANCH  23  25
ENDBRANCH   6  23
TORSDOF 5
ENDMDL
MODEL 4
REMARK VINA RESULT:      -8.5      4.212      9.280
REMARK  Name = 
REMARK  7 active torsions:
REMARK  status: ('A' for Active; 'I' for Inactive)
REMARK    1  A    between atoms: C_1  and  O_2
REMARK    2  A    between atoms: O_2  and  C_3
REMARK    3  A    between atoms: C_6  and  C_7
REMARK    4  A    between atoms: C_14  and  C_15
REMARK    5  A    between atoms: C_21  and  N_22
REMARK    6  A    between atoms: N_22  and  S_23
REMARK    7  A    between atoms: S_23  and  C_26
REMARK                            x       y       z     vdW  Elec       q    Type
REMARK                         _______ _______ _______ _____ _____    ______ ____
ROOT
ATOM      1  C   UNL     1      -0.167  10.601  22.330  0.00  0.00    +0.000 A 
ATOM      2  N   UNL     1      -0.482   9.362  22.776  0.00  0.00    +0.000 NA
ATOM      3  C   UNL     1       0.087   8.315  22.129  0.00  0.00    +0.000 A 
ATOM      4  C   UNL     1       0.945   8.438  21.039  0.00  0.00    +0.000 A 
ATOM      5  C   UNL     1       1.210   9.730  20.568  0.00  0.00    +0.000 A 
ATOM      6  C   UNL     1       0.670  10.836  21.235  0.00  0.00    +0.000 A 
ENDROOT
BRANCH   4   7
ATOM      7  C   UNL     1       1.527   7.239  20.400  0.00  0.00    +0.000 A 
ATOM      8  C   UNL     1       1.374   5.902  20.985  0.00  0.00    +0.000 A 
ATOM      9  C   UNL     1       1.867   4.801  20.384  0.00  0.00    +0.000 A 
ATOM     10  C   UNL     1       2.590   4.934  19.171  0.00  0.00    +0.000 A 
ATOM     11  N   UNL     1       3.153   4.043  18.394  0.00  0.00    +0.000 NA
ATOM     12  C   UNL     1       3.874   4.805  17.523  0.00  0.00    +0.000 A 
ATOM     13  N   UNL     1       4.716   4.117  16.702  0.00  0.00    +0.000 N 
ATOM     14  C   UNL     1       5.818   4.502  16.020  0.00  0.00    +0.000 C 
ATOM     15  C   UNL     1       6.355   5.904  16.066  0.00  0.00    +0.000 C 
ATOM     16  O   UNL     1       6.445   3.636  15.395  0.00  0.00    +0.000 OA
ATOM     17  N   UNL     1       3.680   6.121  17.632  0.00  0.00    +0.000 NA
ATOM     18  N   UNL     1       2.826   6.213  18.682  0.00  0.00    +0.000 N 
ATOM     19  C   UNL     1       2.268   7.351  19.279  0.00  0.00    +0.000 A 
ATOM     20  H   UNL     1       4.562   3.119  16.715  0.00  0.00    +0.000 HD
ENDBRANCH   4   7
BRANCH   1  22
ATOM     21  C   UNL     1      -2.043  11.749  23.154  0.00  0.00    +0.000 C 
ATOM     22  O   UNL     1      -0.624  11.700  23.032  0.00  0.00    +0.000 OA
ENDBRANCH   1  22
BRANCH   6  23
ATOM     23  N   UNL     1       1.008  12.157  20.792  0.00  0.00    +0.000 N 
ATOM     24  H   UNL     1       1.888  12.555  21.117  0.00  0.00    +0.000 HD
BRANCH  23  25
ATOM     25  S   UNL     1       0.693  12.598  19.201  0.00  0.00    +0.000 S 
ATOM     26  O   UNL     1       0.471  14.028  19.214  0.00  0.00    +0.000 OA
ATOM     27  O   UNL     1       1.713  12.023  18.347  0.00  0.00    +0.000 OA
BRANCH  25  28
ATOM     28  C   UNL     1      -0.854  11.849  18.795  0.00  0.00    +0.000 A 
ATOM     29  C   UNL     1      -0.908  10.805  17.862  0.00  0.00    +0.000 A 
ATOM     30  C   UNL     1      -2.151  10.283  17.492  0.00  0.00    +0.000 A 
ATOM     31  C   UNL     1      -3.313  10.803  18.052  0.00  0.00    +0.000 A 
ATOM     32  F   UNL     1      -4.502  10.304  17.688  0.00  0.00    +0.000 F 
ATOM     33  C   UNL     1      -3.264  11.844  18.972  0.00  0.00    +0.000 A 
ATOM     34  C   UNL     1      -2.026  12.363  19.339  0.00  0.00    +0.000 A 
ATOM     35  F   UNL     1      -1.995  13.376  20.216  0.00  0.00    +0.000 F 
ENDBRANCH  25  28
ENDBRANCH  23  25
ENDBRANCH   6  23
TORSDOF 5
ENDMDL
MODEL 5
REMARK VINA RESULT:      -8.5      2.220      2.904
REMARK  Name = 
REMARK  7 active torsions:
REMARK  status: ('A' for Active; 'I' for Inactive)
REMARK    1  A    between atoms: C_1  and  O_2
REMARK    2  A    between atoms: O_2  and  C_3
REMARK    3  A    between atoms: C_6  and  C_7
REMARK    4  A    between atoms: C_14  and  C_15
REMARK    5  A    between atoms: C_21  and  N_22
REMARK    6  A    between atoms: N_22  and  S_23
REMARK    7  A    between atoms: S_23  and  C_26
REMARK                            x       y       z     vdW  Elec       q    Type
REMARK                         _______ _______ _______ _____ _____    ______ ____
ROOT
ATOM      1  C   UNL     1       3.930   3.854  18.905  0.00  0.00    +0.000 A 
ATOM      2  N   UNL     1       2.612   3.967  18.620  0.00  0.00    +0.000 NA
ATOM      3  C   UNL     1       2.091   5.218  18.616  0.00  0.00    +0.000 A 
ATOM      4  C   UNL     1       2.817   6.372  18.903  0.00  0.00    +0.000 A 
ATOM      5  C   UNL     1       4.165   6.218  19.245  0.00  0.00    +0.000 A 
ATOM      6  C   UNL     1       4.746   4.944  19.222  0.00  0.00    +0.000 A 
ENDROOT
BRANCH   4   7
ATOM      7  C   UNL     1       2.165   7.699  18.867  0.00  0.00    +0.000 A 
ATOM      8  C   UNL     1       2.528   8.709  17.867  0.00  0.00    +0.000 A 
ATOM      9  C   UNL     1       1.908   9.904  17.805  0.00  0.00    +0.000 A 
ATOM     10  C   UNL     1       0.903  10.218  18.755  0.00  0.00    +0.000 A 
ATOM     11  N   UNL     1       0.154  11.282  18.908  0.00  0.00    +0.000 NA
ATOM     12  C   UNL     1      -0.439  11.069  20.117  0.00  0.00    +0.000 A 
ATOM     13  N   UNL     1      -1.145  12.122  20.614  0.00  0.00    +0.000 N 
ATOM     14  C   UNL     1      -1.525  12.434  21.875  0.00  0.00    +0.000 C 
ATOM     15  C   UNL     1      -1.186  11.578  23.061  0.00  0.00    +0.000 C 
ATOM     16  O   UNL     1      -2.109  13.511  22.054  0.00  0.00    +0.000 OA
ATOM     17  N   UNL     1      -0.206   9.871  20.657  0.00  0.00    +0.000 NA
ATOM     18  N   UNL     1       0.643   9.300  19.766  0.00  0.00    +0.000 N 
ATOM     19  C   UNL     1       1.250   8.038  19.798  0.00  0.00    +0.000 A 
ATOM     20  H   UNL     1      -1.294  12.860  19.941  0.00  0.00    +0.000 HD
ENDBRANCH   4   7
BRANCH   1  22
ATOM     21  C   UNL     1       3.611   1.547  18.603  0.00  0.00    +0.000 C 
ATOM     22  O   UNL     1       4.534   2.615  18.802  0.00  0.00    +0.000 OA
ENDBRANCH   1  22
BRANCH   6  23
ATOM     23  N   UNL     1       6.146   4.806  19.500  0.00  0.00    +0.000 N 
ATOM     24  H   UNL     1       6.448   3.971  20.002  0.00  0.00    +0.000 HD
BRANCH  23  25
ATOM     25  S   UNL     1       7.267   5.249  18.330  0.00  0.00    +0.000 S 
ATOM     26  O   UNL     1       7.421   6.684  18.441  0.00  0.00    +0.000 OA
ATOM     27  O   UNL     1       8.421   4.379  18.435  0.00  0.00    +0.000 OA
BRANCH  25  28
ATOM     28  C   UNL     1       6.484   4.942  16.777  0.00  0.00    +0.000 A 
ATOM     29  C   UNL     1       6.583   3.681  16.175  0.00  0.00    +0.000 A 
ATOM     30  C   UNL     1       6.027   3.483  14.908  0.00  0.00    +0.000 A 
ATOM     31  C   UNL     1       5.384   4.535  14.263  0.00  0.00    +0.000 A 
ATOM     32  F   UNL     1       4.860   4.342  13.046  0.00  0.00    +0.000 F 
ATOM     33  C   UNL     1       5.291   5.790  14.854  0.00  0.00    +0.000 A 
ATOM     34  C   UNL     1       5.845   5.985  16.115  0.00  0.00    +0.000 A 
ATOM     35  F   UNL     1       5.760   7.204  16.667  0.00  0.00    +0.000 F 
ENDBRANCH  25  28
ENDBRANCH  23  25
ENDBRANCH   6  23
TORSDOF 5
ENDMDL
MODEL 6
REMARK VINA RESULT:      -8.4      4.144      9.190
REMARK  Name = 
REMARK  7 active torsions:
REMARK  status: ('A' for Active; 'I' for Inactive)
REMARK    1  A    between atoms: C_1  and  O_2
REMARK    2  A    between atoms: O_2  and  C_3
REMARK    3  A    between atoms: C_6  and  C_7
REMARK    4  A    between atoms: C_14  and  C_15
REMARK    5  A    between atoms: C_21  and  N_22
REMARK    6  A    between atoms: N_22  and  S_23
REMARK    7  A    between atoms: S_23  and  C_26
REMARK                            x       y       z     vdW  Elec       q    Type
REMARK                         _______ _______ _______ _____ _____    ______ ____
ROOT
ATOM      1  C   UNL     1      -0.595  11.748  22.404  0.00  0.00    +0.000 A 
ATOM      2  N   UNL     1      -0.545  10.458  22.813  0.00  0.00    +0.000 NA
ATOM      3  C   UNL     1       0.085   9.581  21.994  0.00  0.00    +0.000 A 
ATOM      4  C   UNL     1       0.656   9.920  20.770  0.00  0.00    +0.000 A 
ATOM      5  C   UNL     1       0.542  11.251  20.351  0.00  0.00    +0.000 A 
ATOM      6  C   UNL     1      -0.068  12.192  21.188  0.00  0.00    +0.000 A 
ENDROOT
BRANCH   4   7
ATOM      7  C   UNL     1       1.332   8.895  19.945  0.00  0.00    +0.000 A 
ATOM      8  C   UNL     1       1.715   9.155  18.553  0.00  0.00    +0.000 A 
ATOM      9  C   UNL     1       2.368   8.239  17.811  0.00  0.00    +0.000 A 
ATOM     10  C   UNL     1       2.661   6.970  18.372  0.00  0.00    +0.000 A 
ATOM     11  N   UNL     1       3.281   5.926  17.880  0.00  0.00    +0.000 NA
ATOM     12  C   UNL     1       3.040   4.958  18.810  0.00  0.00    +0.000 A 
ATOM     13  N   UNL     1       3.425   3.700  18.458  0.00  0.00    +0.000 N 
ATOM     14  C   UNL     1       3.032   2.484  18.900  0.00  0.00    +0.000 C 
ATOM     15  C   UNL     1       1.988   2.304  19.965  0.00  0.00    +0.000 C 
ATOM     16  O   UNL     1       3.504   1.484  18.343  0.00  0.00    +0.000 OA
ATOM     17  N   UNL     1       2.423   5.380  19.916  0.00  0.00    +0.000 NA
ATOM     18  N   UNL     1       2.197   6.692  19.652  0.00  0.00    +0.000 N 
ATOM     19  C   UNL     1       1.566   7.663  20.440  0.00  0.00    +0.000 A 
ATOM     20  H   UNL     1       4.007   3.674  17.632  0.00  0.00    +0.000 HD
ENDBRANCH   4   7
BRANCH   1  22
ATOM     21  C   UNL     1      -2.542  12.747  23.257  0.00  0.00    +0.000 C 
ATOM     22  O   UNL     1      -1.118  12.700  23.259  0.00  0.00    +0.000 OA
ENDBRANCH   1  22
BRANCH   6  23
ATOM     23  N   UNL     1      -0.114  13.567  20.784  0.00  0.00    +0.000 N 
ATOM     24  H   UNL     1      -1.029  14.011  20.718  0.00  0.00    +0.000 HD
BRANCH  23  25
ATOM     25  S   UNL     1       1.038  14.638  21.374  0.00  0.00    +0.000 S 
ATOM     26  O   UNL     1       0.317  15.610  22.168  0.00  0.00    +0.000 OA
ATOM     27  O   UNL     1       2.126  13.879  21.957  0.00  0.00    +0.000 OA
BRANCH  25  28
ATOM     28  C   UNL     1       1.659  15.498  19.962  0.00  0.00    +0.000 A 
ATOM     29  C   UNL     1       1.224  16.800  19.683  0.00  0.00    +0.000 A 
ATOM     30  C   UNL     1       1.663  17.432  18.515  0.00  0.00    +0.000 A 
ATOM     31  C   UNL     1       2.523  16.764  17.649  0.00  0.00    +0.000 A 
ATOM     32  F   UNL     1       2.934  17.371  16.529  0.00  0.00    +0.000 F 
ATOM     33  C   UNL     1       2.950  15.469  17.919  0.00  0.00    +0.000 A 
ATOM     34  C   UNL     1       2.512  14.841  19.081  0.00  0.00    +0.000 A 
ATOM     35  F   UNL     1       2.920  13.588  19.321  0.00  0.00    +0.000 F 
ENDBRANCH  25  28
ENDBRANCH  23  25
ENDBRANCH   6  23
TORSDOF 5
ENDMDL
MODEL 7
REMARK VINA RESULT:      -8.4      4.544      9.210
REMARK  Name = 
REMARK  7 active torsions:
REMARK  status: ('A' for Active; 'I' for Inactive)
REMARK    1  A    between atoms: C_1  and  O_2
REMARK    2  A    between atoms: O_2  and  C_3
REMARK    3  A    between atoms: C_6  and  C_7
REMARK    4  A    between atoms: C_14  and  C_15
REMARK    5  A    between atoms: C_21  and  N_22
REMARK    6  A    between atoms: N_22  and  S_23
REMARK    7  A    between atoms: S_23  and  C_26
REMARK                            x       y       z     vdW  Elec       q    Type
REMARK                         _______ _______ _______ _____ _____    ______ ____
ROOT
ATOM      1  C   UNL     1      -0.571  11.434  22.426  0.00  0.00    +0.000 A 
ATOM      2  N   UNL     1      -0.629  10.115  22.727  0.00  0.00    +0.000 NA
ATOM      3  C   UNL     1       0.035   9.269  21.902  0.00  0.00    +0.000 A 
ATOM      4  C   UNL     1       0.744   9.668  20.773  0.00  0.00    +0.000 A 
ATOM      5  C   UNL     1       0.742  11.033  20.458  0.00  0.00    +0.000 A 
ATOM      6  C   UNL     1       0.100  11.940  21.308  0.00  0.00    +0.000 A 
ENDROOT
BRANCH   4   7
ATOM      7  C   UNL     1       1.446   8.673  19.934  0.00  0.00    +0.000 A 
ATOM      8  C   UNL     1       1.881   8.984  18.569  0.00  0.00    +0.000 A 
ATOM      9  C   UNL     1       2.558   8.094  17.816  0.00  0.00    +0.000 A 
ATOM     10  C   UNL     1       2.826   6.803  18.337  0.00  0.00    +0.000 A 
ATOM     11  N   UNL     1       3.460   5.776  17.829  0.00  0.00    +0.000 NA
ATOM     12  C   UNL     1       3.182   4.774  18.711  0.00  0.00    +0.000 A 
ATOM     13  N   UNL     1       3.574   3.529  18.325  0.00  0.00    +0.000 N 
ATOM     14  C   UNL     1       3.161   2.298  18.705  0.00  0.00    +0.000 C 
ATOM     15  C   UNL     1       2.078   2.083  19.723  0.00  0.00    +0.000 C 
ATOM     16  O   UNL     1       3.650   1.318  18.128  0.00  0.00    +0.000 OA
ATOM     17  N   UNL     1       2.525   5.157  19.809  0.00  0.00    +0.000 NA
ATOM     18  N   UNL     1       2.314   6.479  19.588  0.00  0.00    +0.000 N 
ATOM     19  C   UNL     1       1.657   7.421  20.389  0.00  0.00    +0.000 A 
ATOM     20  H   UNL     1       4.186   3.532  17.521  0.00  0.00    +0.000 HD
ENDBRANCH   4   7
BRANCH   1  22
ATOM     21  C   UNL     1      -2.550  12.282  23.363  0.00  0.00    +0.000 C 
ATOM     22  O   UNL     1      -1.128  12.346  23.303  0.00  0.00    +0.000 OA
ENDBRANCH   1  22
BRANCH   6  23
ATOM     23  N   UNL     1       0.167  13.343  21.018  0.00  0.00    +0.000 N 
ATOM     24  H   UNL     1      -0.648  13.912  21.243  0.00  0.00    +0.000 HD
BRANCH  23  25
ATOM     25  S   UNL     1       1.593  14.179  21.320  0.00  0.00    +0.000 S 
ATOM     26  O   UNL     1       1.289  15.131  22.367  0.00  0.00    +0.000 OA
ATOM     27  O   UNL     1       2.668  13.223  21.489  0.00  0.00    +0.000 OA
BRANCH  25  28
ATOM     28  C   UNL     1       1.914  15.119  19.859  0.00  0.00    +0.000 A 
ATOM     29  C   UNL     1       3.070  14.877  19.106  0.00  0.00    +0.000 A 
ATOM     30  C   UNL     1       3.347  15.687  18.001  0.00  0.00    +0.000 A 
ATOM     31  C   UNL     1       2.476  16.719  17.664  0.00  0.00    +0.000 A 
ATOM     32  F   UNL     1       2.751  17.497  16.609  0.00  0.00    +0.000 F 
ATOM     33  C   UNL     1       1.333  16.966  18.414  0.00  0.00    +0.000 A 
ATOM     34  C   UNL     1       1.058  16.160  19.514  0.00  0.00    +0.000 A 
ATOM     35  F   UNL     1      -0.041  16.419  20.236  0.00  0.00    +0.000 F 
ENDBRANCH  25  28
ENDBRANCH  23  25
ENDBRANCH   6  23
TORSDOF 5
ENDMDL
MODEL 8
REMARK VINA RESULT:      -8.4      3.925      9.065
REMARK  Name = 
REMARK  7 active torsions:
REMARK  status: ('A' for Active; 'I' for Inactive)
REMARK    1  A    between atoms: C_1  and  O_2
REMARK    2  A    between atoms: O_2  and  C_3
REMARK    3  A    between atoms: C_6  and  C_7
REMARK    4  A    between atoms: C_14  and  C_15
REMARK    5  A    between atoms: C_21  and  N_22
REMARK    6  A    between atoms: N_22  and  S_23
REMARK    7  A    between atoms: S_23  and  C_26
REMARK                            x       y       z     vdW  Elec       q    Type
REMARK                         _______ _______ _______ _____ _____    ______ ____
ROOT
ATOM      1  C   UNL     1      -0.100  10.489  22.264  0.00  0.00    +0.000 A 
ATOM      2  N   UNL     1      -0.462   9.255  22.688  0.00  0.00    +0.000 NA
ATOM      3  C   UNL     1       0.107   8.200  22.054  0.00  0.00    +0.000 A 
ATOM      4  C   UNL     1       1.009   8.310  21.000  0.00  0.00    +0.000 A 
ATOM      5  C   UNL     1       1.323   9.598  20.550  0.00  0.00    +0.000 A 
ATOM      6  C   UNL     1       0.785  10.712  21.205  0.00  0.00    +0.000 A 
ENDROOT
BRANCH   4   7
ATOM      7  C   UNL     1       1.585   7.101  20.373  0.00  0.00    +0.000 A 
ATOM      8  C   UNL     1       1.507   5.786  21.018  0.00  0.00    +0.000 A 
ATOM      9  C   UNL     1       1.994   4.674  20.432  0.00  0.00    +0.000 A 
ATOM     10  C   UNL     1       2.639   4.777  19.173  0.00  0.00    +0.000 A 
ATOM     11  N   UNL     1       3.180   3.870  18.398  0.00  0.00    +0.000 NA
ATOM     12  C   UNL     1       3.824   4.615  17.455  0.00  0.00    +0.000 A 
ATOM     13  N   UNL     1       4.635   3.916  16.612  0.00  0.00    +0.000 N 
ATOM     14  C   UNL     1       5.682   4.303  15.849  0.00  0.00    +0.000 C 
ATOM     15  C   UNL     1       6.180   5.719  15.807  0.00  0.00    +0.000 C 
ATOM     16  O   UNL     1       6.296   3.428  15.221  0.00  0.00    +0.000 OA
ATOM     17  N   UNL     1       3.599   5.929  17.524  0.00  0.00    +0.000 NA
ATOM     18  N   UNL     1       2.807   6.041  18.621  0.00  0.00    +0.000 N 
ATOM     19  C   UNL     1       2.254   7.187  19.205  0.00  0.00    +0.000 A 
ATOM     20  H   UNL     1       4.511   2.916  16.673  0.00  0.00    +0.000 HD
ENDBRANCH   4   7
BRANCH   1  22
ATOM     21  C   UNL     1      -1.977  11.660  23.053  0.00  0.00    +0.000 C 
ATOM     22  O   UNL     1      -0.557  11.595  22.957  0.00  0.00    +0.000 OA
ENDBRANCH   1  22
BRANCH   6  23
ATOM     23  N   UNL     1       1.171  12.028  20.786  0.00  0.00    +0.000 N 
ATOM     24  H   UNL     1       2.051  12.399  21.143  0.00  0.00    +0.000 HD
BRANCH  23  25
ATOM     25  S   UNL     1       0.920  12.491  19.190  0.00  0.00    +0.000 S 
ATOM     26  O   UNL     1       0.776  13.931  19.206  0.00  0.00    +0.000 OA
ATOM     27  O   UNL     1       1.928  11.865  18.358  0.00  0.00    +0.000 OA
BRANCH  25  28
ATOM     28  C   UNL     1      -0.654  11.829  18.743  0.00  0.00    +0.000 A 
ATOM     29  C   UNL     1      -1.830  12.451  19.182  0.00  0.00    +0.000 A 
ATOM     30  C   UNL     1      -3.065  11.864  18.888  0.00  0.00    +0.000 A 
ATOM     31  C   UNL     1      -3.110  10.677  18.164  0.00  0.00    +0.000 A 
ATOM     32  F   UNL     1      -4.296  10.116  17.891  0.00  0.00    +0.000 F 
ATOM     33  C   UNL     1      -1.945  10.054  17.733  0.00  0.00    +0.000 A 
ATOM     34  C   UNL     1      -0.718  10.638  18.027  0.00  0.00    +0.000 A 
ATOM     35  F   UNL     1       0.398  10.019  17.617  0.00  0.00    +0.000 F 
ENDBRANCH  25  28
ENDBRANCH  23  25
ENDBRANCH   6  23
TORSDOF 5
ENDMDL
MODEL 9
REMARK VINA RESULT:      -8.3      4.055      9.116
REMARK  Name = 
REMARK  7 active torsions:
REMARK  status: ('A' for Active; 'I' for Inactive)
REMARK    1  A    between atoms: C_1  and  O_2
REMARK    2  A    between atoms: O_2  and  C_3
REMARK    3  A    between atoms: C_6  and  C_7
REMARK    4  A    between atoms: C_14  and  C_15
REMARK    5  A    between atoms: C_21  and  N_22
REMARK    6  A    between atoms: N_22  and  S_23
REMARK    7  A    between atoms: S_23  and  C_26
REMARK                            x       y       z     vdW  Elec       q    Type
REMARK                         _______ _______ _______ _____ _____    ______ ____
ROOT
ATOM      1  C   UNL     1      -0.548  10.720  21.643  0.00  0.00    +0.000 A 
ATOM      2  N   UNL     1      -0.585   9.564  22.347  0.00  0.00    +0.000 NA
ATOM      3  C   UNL     1       0.159   8.535  21.874  0.00  0.00    +0.000 A 
ATOM      4  C   UNL     1       0.930   8.590  20.716  0.00  0.00    +0.000 A 
ATOM      5  C   UNL     1       0.907   9.781  19.981  0.00  0.00    +0.000 A 
ATOM      6  C   UNL     1       0.181  10.878  20.460  0.00  0.00    +0.000 A 
ENDROOT
BRANCH   4   7
ATOM      7  C   UNL     1       1.717   7.417  20.280  0.00  0.00    +0.000 A 
ATOM      8  C   UNL     1       1.562   6.104  20.914  0.00  0.00    +0.000 A 
ATOM      9  C   UNL     1       2.247   5.023  20.493  0.00  0.00    +0.000 A 
ATOM     10  C   UNL     1       3.178   5.159  19.431  0.00  0.00    +0.000 A 
ATOM     11  N   UNL     1       3.950   4.284  18.836  0.00  0.00    +0.000 NA
ATOM     12  C   UNL     1       4.762   5.063  18.067  0.00  0.00    +0.000 A 
ATOM     13  N   UNL     1       5.799   4.414  17.467  0.00  0.00    +0.000 N 
ATOM     14  C   UNL     1       6.978   4.862  16.979  0.00  0.00    +0.000 C 
ATOM     15  C   UNL     1       7.382   6.308  17.031  0.00  0.00    +0.000 C 
ATOM     16  O   UNL     1       7.781   4.026  16.544  0.00  0.00    +0.000 OA
ATOM     17  N   UNL     1       4.447   6.360  18.048  0.00  0.00    +0.000 NA
ATOM     18  N   UNL     1       3.401   6.428  18.910  0.00  0.00    +0.000 N 
ATOM     19  C   UNL     1       2.650   7.539  19.313  0.00  0.00    +0.000 A 
ATOM     20  H   UNL     1       5.725   3.408  17.518  0.00  0.00    +0.000 HD
ENDBRANCH   4   7
BRANCH   1  22
ATOM     21  C   UNL     1      -2.041  11.546  23.256  0.00  0.00    +0.000 C 
ATOM     22  O   UNL     1      -1.190  11.834  22.150  0.00  0.00    +0.000 OA
ENDBRANCH   1  22
BRANCH   6  23
ATOM     23  N   UNL     1       0.224  12.117  19.739  0.00  0.00    +0.000 N 
ATOM     24  H   UNL     1      -0.564  12.755  19.849  0.00  0.00    +0.000 HD
BRANCH  23  25
ATOM     25  S   UNL     1       1.675  12.957  19.631  0.00  0.00    +0.000 S 
ATOM     26  O   UNL     1       2.219  12.999  20.971  0.00  0.00    +0.000 OA
ATOM     27  O   UNL     1       2.454  12.405  18.541  0.00  0.00    +0.000 OA
BRANCH  25  28
ATOM     28  C   UNL     1       1.236  14.616  19.211  0.00  0.00    +0.000 A 
ATOM     29  C   UNL     1      -0.101  14.948  18.958  0.00  0.00    +0.000 A 
ATOM     30  C   UNL     1      -0.416  16.246  18.546  0.00  0.00    +0.000 A 
ATOM     31  C   UNL     1       0.597  17.188  18.393  0.00  0.00    +0.000 A 
ATOM     32  F   UNL     1       0.290  18.428  17.991  0.00  0.00    +0.000 F 
ATOM     33  C   UNL     1       1.925  16.859  18.635  0.00  0.00    +0.000 A 
ATOM     34  C   UNL     1       2.238  15.567  19.045  0.00  0.00    +0.000 A 
ATOM     35  F   UNL     1       3.524  15.260  19.261  0.00  0.00    +0.000 F 
ENDBRANCH  25  28
ENDBRANCH  23  25
ENDBRANCH   6  23
TORSDOF 5
ENDMDL
