MODEL 1
REMARK VINA RESULT:      -8.5      0.000      0.000
REMARK  Name = 
REMARK  6 active torsions:
REMARK  status: ('A' for Active; 'I' for Inactive)
REMARK    1  A    between atoms: C_4  and  C_5
REMARK    2  A    between atoms: C_5  and  N_6
REMARK    3  A    between atoms: N_6  and  C_7
REMARK    4  A    between atoms: C_12  and  O_13
REMARK    5  A    between atoms: O_13  and  C_14
REMARK    6  A    between atoms: C_17  and  N_18
REMARK                            x       y       z     vdW  Elec       q    Type
REMARK                         _______ _______ _______ _____ _____    ______ ____
ROOT
ATOM      1  C   UNL     1       2.540   4.386  18.407  0.00  0.00    +0.000 A 
ATOM      2  N   UNL     1       1.964   3.163  18.306  0.00  0.00    +0.000 NA
ATOM      3  C   UNL     1       1.206   2.756  19.350  0.00  0.00    +0.000 A 
ATOM      4  C   UNL     1       1.021   3.531  20.475  0.00  0.00    +0.000 A 
ATOM      5  N   UNL     1       1.549   4.763  20.594  0.00  0.00    +0.000 NA
ATOM      6  C   UNL     1       2.282   5.198  19.536  0.00  0.00    +0.000 A 
ENDROOT
BRANCH   1   7
ATOM      7  N   UNL     1       3.414   4.795  17.389  0.00  0.00    +0.000 N 
ATOM      8  H   UNL     1       2.931   4.778  16.490  0.00  0.00    +0.000 HD
BRANCH   7   9
ATOM      9  C   UNL     1       4.670   4.038  17.360  0.00  0.00    +0.000 C 
BRANCH   9  13
ATOM     10  C   UNL     1       7.851   6.606  18.569  0.00  0.00    +0.000 A 
ATOM     11  C   UNL     1       7.304   6.768  17.303  0.00  0.00    +0.000 A 
ATOM     12  C   UNL     1       6.281   5.920  16.895  0.00  0.00    +0.000 A 
ATOM     13  C   UNL     1       5.837   4.920  17.765  0.00  0.00    +0.000 A 
ATOM     14  N   UNL     1       6.362   4.753  19.006  0.00  0.00    +0.000 NA
ATOM     15  C   UNL     1       7.352   5.596  19.376  0.00  0.00    +0.000 A 
ENDBRANCH   9  13
ENDBRANCH   7   9
ENDBRANCH   1   7
BRANCH   6  16
ATOM     16  O   UNL     1       2.914   6.437  19.613  0.00  0.00    +0.000 OA
BRANCH  16  17
ATOM     17  C   UNL     1       2.213   7.578  19.275  0.00  0.00    +0.000 A 
ATOM     18  C   UNL     1       1.523   8.222  20.303  0.00  0.00    +0.000 A 
ATOM     19  C   UNL     1       0.877   9.445  20.068  0.00  0.00    +0.000 A 
ATOM     20  C   UNL     1       0.942  10.069  18.815  0.00  0.00    +0.000 A 
ATOM     21  C   UNL     1       1.566   9.367  17.779  0.00  0.00    +0.000 A 
ATOM     22  C   UNL     1       2.233   8.160  18.014  0.00  0.00    +0.000 A 
BRANCH  20  23
ATOM     23  N   UNL     1       0.307  11.319  18.620  0.00  0.00    +0.000 N 
ATOM     24  C   UNL     1       0.828  12.610  18.899  0.00  0.00    +0.000 A 
ATOM     25  C   UNL     1       0.042  13.722  18.587  0.00  0.00    +0.000 A 
ATOM     26  C   UNL     1       0.543  15.009  18.804  0.00  0.00    +0.000 A 
ATOM     27  C   UNL     1       1.820  15.165  19.317  0.00  0.00    +0.000 A 
ATOM     28  C   UNL     1       2.537  14.022  19.607  0.00  0.00    +0.000 A 
ATOM     29  N   UNL     1       2.068  12.768  19.410  0.00  0.00    +0.000 NA
ATOM     30  H   UNL     1      -0.671  11.282  18.891  0.00  0.00    +0.000 HD
ENDBRANCH  20  23
ENDBRANCH  16  17
ENDBRANCH   6  16
TORSDOF 6
ENDMDL
MODEL 2
REMARK VINA RESULT:      -8.4      1.902      2.752
REMARK  Name = 
REMARK  6 active torsions:
REMARK  status: ('A' for Active; 'I' for Inactive)
REMARK    1  A    between atoms: C_4  and  C_5
REMARK    2  A    between atoms: C_5  and  N_6
REMARK    3  A    between atoms: N_6  and  C_7
REMARK    4  A    between atoms: C_12  and  O_13
REMARK    5  A    between atoms: O_13  and  C_14
REMARK    6  A    between atoms: C_17  and  N_18
REMARK                            x       y       z     vdW  Elec       q    Type
REMARK                         _______ _______ _______ _____ _____    ______ ____
ROOT
ATOM      1  C   UNL     1       2.670   4.346  18.084  0.00  0.00    +0.000 A 
ATOM      2  N   UNL     1       2.097   3.172  17.723  0.00  0.00    +0.000 NA
ATOM      3  C   UNL     1       1.231   2.618  18.602  0.00  0.00    +0.000 A 
ATOM      4  C   UNL     1       0.938   3.201  19.817  0.00  0.00    +0.000 A 
ATOM      5  N   UNL     1       1.462   4.381  20.193  0.00  0.00    +0.000 NA
ATOM      6  C   UNL     1       2.304   4.966  19.302  0.00  0.00    +0.000 A 
ENDROOT
BRANCH   1   7
ATOM      7  N   UNL     1       3.649   4.895  17.242  0.00  0.00    +0.000 N 
ATOM      8  H   UNL     1       3.280   4.984  16.295  0.00  0.00    +0.000 HD
BRANCH   7   9
ATOM      9  C   UNL     1       4.922   4.167  17.276  0.00  0.00    +0.000 C 
BRANCH   9  13
ATOM     10  C   UNL     1       7.997   6.813  18.587  0.00  0.00    +0.000 A 
ATOM     11  C   UNL     1       7.360   7.072  17.381  0.00  0.00    +0.000 A 
ATOM     12  C   UNL     1       6.371   6.201  16.937  0.00  0.00    +0.000 A 
ATOM     13  C   UNL     1       6.051   5.083  17.712  0.00  0.00    +0.000 A 
ATOM     14  N   UNL     1       6.665   4.820  18.895  0.00  0.00    +0.000 NA
ATOM     15  C   UNL     1       7.618   5.687  19.301  0.00  0.00    +0.000 A 
ENDBRANCH   9  13
ENDBRANCH   7   9
ENDBRANCH   1   7
BRANCH   6  16
ATOM     16  O   UNL     1       2.936   6.158  19.649  0.00  0.00    +0.000 OA
BRANCH  16  17
ATOM     17  C   UNL     1       2.201   7.326  19.695  0.00  0.00    +0.000 A 
ATOM     18  C   UNL     1       2.101   8.055  18.509  0.00  0.00    +0.000 A 
ATOM     19  C   UNL     1       1.284   9.194  18.442  0.00  0.00    +0.000 A 
ATOM     20  C   UNL     1       0.519   9.602  19.542  0.00  0.00    +0.000 A 
ATOM     21  C   UNL     1       0.697   8.907  20.743  0.00  0.00    +0.000 A 
ATOM     22  C   UNL     1       1.491   7.757  20.808  0.00  0.00    +0.000 A 
BRANCH  20  23
ATOM     23  N   UNL     1      -0.322  10.735  19.431  0.00  0.00    +0.000 N 
ATOM     24  C   UNL     1      -1.588  10.819  18.794  0.00  0.00    +0.000 A 
ATOM     25  C   UNL     1      -2.273  12.036  18.839  0.00  0.00    +0.000 A 
ATOM     26  C   UNL     1      -3.543  12.139  18.264  0.00  0.00    +0.000 A 
ATOM     27  C   UNL     1      -4.110  11.027  17.663  0.00  0.00    +0.000 A 
ATOM     28  C   UNL     1      -3.374   9.861  17.650  0.00  0.00    +0.000 A 
ATOM     29  N   UNL     1      -2.142   9.742  18.196  0.00  0.00    +0.000 NA
ATOM     30  H   UNL     1       0.215  11.574  19.230  0.00  0.00    +0.000 HD
ENDBRANCH  20  23
ENDBRANCH  16  17
ENDBRANCH   6  16
TORSDOF 6
ENDMDL
MODEL 3
REMARK VINA RESULT:      -8.4      2.228      4.808
REMARK  Name = 
REMARK  6 active torsions:
REMARK  status: ('A' for Active; 'I' for Inactive)
REMARK    1  A    between atoms: C_4  and  C_5
REMARK    2  A    between atoms: C_5  and  N_6
REMARK    3  A    between atoms: N_6  and  C_7
REMARK    4  A    between atoms: C_12  and  O_13
REMARK    5  A    between atoms: O_13  and  C_14
REMARK    6  A    between atoms: C_17  and  N_18
REMARK                            x       y       z     vdW  Elec       q    Type
REMARK                         _______ _______ _______ _____ _____    ______ ____
ROOT
ATOM      1  C   UNL     1       5.970   4.687  18.343  0.00  0.00    +0.000 A 
ATOM      2  N   UNL     1       7.304   4.629  18.576  0.00  0.00    +0.000 NA
ATOM      3  C   UNL     1       8.010   5.765  18.376  0.00  0.00    +0.000 A 
ATOM      4  C   UNL     1       7.421   6.935  17.946  0.00  0.00    +0.000 A 
ATOM      5  N   UNL     1       6.096   7.038  17.737  0.00  0.00    +0.000 NA
ATOM      6  C   UNL     1       5.370   5.913  17.973  0.00  0.00    +0.000 A 
ENDROOT
BRANCH   1   7
ATOM      7  N   UNL     1       5.226   3.502  18.443  0.00  0.00    +0.000 N 
ATOM      8  H   UNL     1       4.465   3.514  17.763  0.00  0.00    +0.000 HD
BRANCH   7   9
ATOM      9  C   UNL     1       4.752   3.223  19.802  0.00  0.00    +0.000 C 
BRANCH   9  13
ATOM     10  C   UNL     1       0.498   2.952  19.861  0.00  0.00    +0.000 A 
ATOM     11  C   UNL     1       1.191   2.863  21.061  0.00  0.00    +0.000 A 
ATOM     12  C   UNL     1       2.580   2.929  21.046  0.00  0.00    +0.000 A 
ATOM     13  C   UNL     1       3.241   3.073  19.823  0.00  0.00    +0.000 A 
ATOM     14  N   UNL     1       2.575   3.165  18.644  0.00  0.00    +0.000 NA
ATOM     15  C   UNL     1       1.225   3.102  18.691  0.00  0.00    +0.000 A 
ENDBRANCH   9  13
ENDBRANCH   7   9
ENDBRANCH   1   7
BRANCH   6  16
ATOM     16  O   UNL     1       4.001   5.925  17.716  0.00  0.00    +0.000 OA
BRANCH  16  17
ATOM     17  C   UNL     1       3.208   6.887  18.310  0.00  0.00    +0.000 A 
ATOM     18  C   UNL     1       2.958   8.042  17.569  0.00  0.00    +0.000 A 
ATOM     19  C   UNL     1       2.076   9.020  18.053  0.00  0.00    +0.000 A 
ATOM     20  C   UNL     1       1.393   8.843  19.264  0.00  0.00    +0.000 A 
ATOM     21  C   UNL     1       1.720   7.719  20.028  0.00  0.00    +0.000 A 
ATOM     22  C   UNL     1       2.581   6.730  19.539  0.00  0.00    +0.000 A 
BRANCH  20  23
ATOM     23  N   UNL     1       0.483   9.832  19.707  0.00  0.00    +0.000 N 
ATOM     24  C   UNL     1      -0.655  10.335  19.024  0.00  0.00    +0.000 A 
ATOM     25  C   UNL     1      -1.448  11.288  19.668  0.00  0.00    +0.000 A 
ATOM     26  C   UNL     1      -2.603  11.768  19.043  0.00  0.00    +0.000 A 
ATOM     27  C   UNL     1      -2.951  11.283  17.793  0.00  0.00    +0.000 A 
ATOM     28  C   UNL     1      -2.119  10.348  17.214  0.00  0.00    +0.000 A 
ATOM     29  N   UNL     1      -0.994   9.876  17.800  0.00  0.00    +0.000 NA
ATOM     30  H   UNL     1       0.967  10.597  20.169  0.00  0.00    +0.000 HD
ENDBRANCH  20  23
ENDBRANCH  16  17
ENDBRANCH   6  16
TORSDOF 6
ENDMDL
MODEL 4
REMARK VINA RESULT:      -8.4      2.186      4.522
REMARK  Name = 
REMARK  6 active torsions:
REMARK  status: ('A' for Active; 'I' for Inactive)
REMARK    1  A    between atoms: C_4  and  C_5
REMARK    2  A    between atoms: C_5  and  N_6
REMARK    3  A    between atoms: N_6  and  C_7
REMARK    4  A    between atoms: C_12  and  O_13
REMARK    5  A    between atoms: O_13  and  C_14
REMARK    6  A    between atoms: C_17  and  N_18
REMARK                            x       y       z     vdW  Elec       q    Type
REMARK                         _______ _______ _______ _____ _____    ______ ____
ROOT
ATOM      1  C   UNL     1       5.727   4.554  18.056  0.00  0.00    +0.000 A 
ATOM      2  N   UNL     1       7.052   4.460  18.328  0.00  0.00    +0.000 NA
ATOM      3  C   UNL     1       7.786   5.588  18.192  0.00  0.00    +0.000 A 
ATOM      4  C   UNL     1       7.233   6.785  17.790  0.00  0.00    +0.000 A 
ATOM      5  N   UNL     1       5.917   6.923  17.544  0.00  0.00    +0.000 NA
ATOM      6  C   UNL     1       5.163   5.805  17.714  0.00  0.00    +0.000 A 
ENDROOT
BRANCH   1   7
ATOM      7  N   UNL     1       4.957   3.381  18.087  0.00  0.00    +0.000 N 
ATOM      8  H   UNL     1       4.112   3.507  17.529  0.00  0.00    +0.000 HD
BRANCH   7   9
ATOM      9  C   UNL     1       4.661   2.914  19.445  0.00  0.00    +0.000 C 
BRANCH   9  13
ATOM     10  C   UNL     1       0.478   2.993  20.265  0.00  0.00    +0.000 A 
ATOM     11  C   UNL     1       0.901   2.909  18.945  0.00  0.00    +0.000 A 
ATOM     12  C   UNL     1       2.263   2.904  18.669  0.00  0.00    +0.000 A 
ATOM     13  C   UNL     1       3.172   2.995  19.728  0.00  0.00    +0.000 A 
ATOM     14  N   UNL     1       2.772   3.075  21.023  0.00  0.00    +0.000 NA
ATOM     15  C   UNL     1       1.441   3.073  21.259  0.00  0.00    +0.000 A 
ENDBRANCH   9  13
ENDBRANCH   7   9
ENDBRANCH   1   7
BRANCH   6  16
ATOM     16  O   UNL     1       3.803   5.854  17.416  0.00  0.00    +0.000 OA
BRANCH  16  17
ATOM     17  C   UNL     1       3.003   6.785  18.049  0.00  0.00    +0.000 A 
ATOM     18  C   UNL     1       2.675   6.531  19.382  0.00  0.00    +0.000 A 
ATOM     19  C   UNL     1       1.959   7.478  20.130  0.00  0.00    +0.000 A 
ATOM     20  C   UNL     1       1.595   8.713  19.576  0.00  0.00    +0.000 A 
ATOM     21  C   UNL     1       1.861   8.912  18.218  0.00  0.00    +0.000 A 
ATOM     22  C   UNL     1       2.595   7.981  17.475  0.00  0.00    +0.000 A 
BRANCH  20  23
ATOM     23  N   UNL     1       0.904   9.660  20.368  0.00  0.00    +0.000 N 
ATOM     24  C   UNL     1      -0.185  10.486  19.983  0.00  0.00    +0.000 A 
ATOM     25  C   UNL     1      -0.751  11.327  20.944  0.00  0.00    +0.000 A 
ATOM     26  C   UNL     1      -1.855  12.117  20.612  0.00  0.00    +0.000 A 
ATOM     27  C   UNL     1      -2.380  12.049  19.332  0.00  0.00    +0.000 A 
ATOM     28  C   UNL     1      -1.767  11.201  18.433  0.00  0.00    +0.000 A 
ATOM     29  N   UNL     1      -0.694  10.433  18.734  0.00  0.00    +0.000 NA
ATOM     30  H   UNL     1       1.545  10.193  20.949  0.00  0.00    +0.000 HD
ENDBRANCH  20  23
ENDBRANCH  16  17
ENDBRANCH   6  16
TORSDOF 6
ENDMDL
MODEL 5
REMARK VINA RESULT:      -8.4      2.248      4.573
REMARK  Name = 
REMARK  6 active torsions:
REMARK  status: ('A' for Active; 'I' for Inactive)
REMARK    1  A    between atoms: C_4  and  C_5
REMARK    2  A    between atoms: C_5  and  N_6
REMARK    3  A    between atoms: N_6  and  C_7
REMARK    4  A    between atoms: C_12  and  O_13
REMARK    5  A    between atoms: O_13  and  C_14
REMARK    6  A    between atoms: C_17  and  N_18
REMARK                            x       y       z     vdW  Elec       q    Type
REMARK                         _______ _______ _______ _____ _____    ______ ____
ROOT
ATOM      1  C   UNL     1       4.955   4.840  17.298  0.00  0.00    +0.000 A 
ATOM      2  N   UNL     1       6.178   4.302  17.528  0.00  0.00    +0.000 NA
ATOM      3  C   UNL     1       7.203   5.166  17.705  0.00  0.00    +0.000 A 
ATOM      4  C   UNL     1       7.035   6.533  17.649  0.00  0.00    +0.000 A 
ATOM      5  N   UNL     1       5.831   7.102  17.456  0.00  0.00    +0.000 NA
ATOM      6  C   UNL     1       4.787   6.244  17.315  0.00  0.00    +0.000 A 
ENDROOT
BRANCH   1   7
ATOM      7  N   UNL     1       3.891   3.973  17.008  0.00  0.00    +0.000 N 
ATOM      8  H   UNL     1       3.006   4.476  17.080  0.00  0.00    +0.000 HD
BRANCH   7   9
ATOM      9  C   UNL     1       3.901   2.748  17.814  0.00  0.00    +0.000 C 
BRANCH   9  13
ATOM     10  C   UNL     1       1.270   2.971  21.161  0.00  0.00    +0.000 A 
ATOM     11  C   UNL     1       0.741   3.102  19.884  0.00  0.00    +0.000 A 
ATOM     12  C   UNL     1       1.597   3.051  18.789  0.00  0.00    +0.000 A 
ATOM     13  C   UNL     1       2.967   2.880  19.004  0.00  0.00    +0.000 A 
ATOM     14  N   UNL     1       3.496   2.748  20.247  0.00  0.00    +0.000 NA
ATOM     15  C   UNL     1       2.639   2.797  21.291  0.00  0.00    +0.000 A 
ENDBRANCH   9  13
ENDBRANCH   7   9
ENDBRANCH   1   7
BRANCH   6  16
ATOM     16  O   UNL     1       3.519   6.758  17.046  0.00  0.00    +0.000 OA
BRANCH  16  17
ATOM     17  C   UNL     1       2.770   7.285  18.079  0.00  0.00    +0.000 A 
ATOM     18  C   UNL     1       2.676   6.522  19.244  0.00  0.00    +0.000 A 
ATOM     19  C   UNL     1       2.026   7.032  20.377  0.00  0.00    +0.000 A 
ATOM     20  C   UNL     1       1.494   8.328  20.385  0.00  0.00    +0.000 A 
ATOM     21  C   UNL     1       1.526   9.044  19.184  0.00  0.00    +0.000 A 
ATOM     22  C   UNL     1       2.194   8.549  18.059  0.00  0.00    +0.000 A 
BRANCH  20  23
ATOM     23  N   UNL     1       0.875   8.826  21.557  0.00  0.00    +0.000 N 
ATOM     24  C   UNL     1       0.000   9.938  21.672  0.00  0.00    +0.000 A 
ATOM     25  C   UNL     1      -0.536  10.231  22.928  0.00  0.00    +0.000 A 
ATOM     26  C   UNL     1      -1.439  11.290  23.068  0.00  0.00    +0.000 A 
ATOM     27  C   UNL     1      -1.796  12.030  21.953  0.00  0.00    +0.000 A 
ATOM     28  C   UNL     1      -1.223  11.688  20.746  0.00  0.00    +0.000 A 
ATOM     29  N   UNL     1      -0.343  10.671  20.592  0.00  0.00    +0.000 NA
ATOM     30  H   UNL     1       1.515   8.814  22.345  0.00  0.00    +0.000 HD
ENDBRANCH  20  23
ENDBRANCH  16  17
ENDBRANCH   6  16
TORSDOF 6
ENDMDL
MODEL 6
REMARK VINA RESULT:      -8.4      2.024      4.459
REMARK  Name = 
REMARK  6 active torsions:
REMARK  status: ('A' for Active; 'I' for Inactive)
REMARK    1  A    between atoms: C_4  and  C_5
REMARK    2  A    between atoms: C_5  and  N_6
REMARK    3  A    between atoms: N_6  and  C_7
REMARK    4  A    between atoms: C_12  and  O_13
REMARK    5  A    between atoms: O_13  and  C_14
REMARK    6  A    between atoms: C_17  and  N_18
REMARK                            x       y       z     vdW  Elec       q    Type
REMARK                         _______ _______ _______ _____ _____    ______ ____
ROOT
ATOM      1  C   UNL     1       4.983   4.846  17.175  0.00  0.00    +0.000 A 
ATOM      2  N   UNL     1       6.192   4.247  17.300  0.00  0.00    +0.000 NA
ATOM      3  C   UNL     1       7.264   5.058  17.447  0.00  0.00    +0.000 A 
ATOM      4  C   UNL     1       7.153   6.433  17.463  0.00  0.00    +0.000 A 
ATOM      5  N   UNL     1       5.966   7.059  17.374  0.00  0.00    +0.000 NA
ATOM      6  C   UNL     1       4.878   6.253  17.265  0.00  0.00    +0.000 A 
ENDROOT
BRANCH   1   7
ATOM      7  N   UNL     1       3.864   4.038  16.918  0.00  0.00    +0.000 N 
ATOM      8  H   UNL     1       3.009   4.582  17.039  0.00  0.00    +0.000 HD
BRANCH   7   9
ATOM      9  C   UNL     1       3.849   2.797  17.699  0.00  0.00    +0.000 C 
BRANCH   9  13
ATOM     10  C   UNL     1       1.336   3.055  21.132  0.00  0.00    +0.000 A 
ATOM     11  C   UNL     1       0.770   3.215  19.874  0.00  0.00    +0.000 A 
ATOM     12  C   UNL     1       1.588   3.154  18.752  0.00  0.00    +0.000 A 
ATOM     13  C   UNL     1       2.959   2.942  18.920  0.00  0.00    +0.000 A 
ATOM     14  N   UNL     1       3.524   2.781  20.144  0.00  0.00    +0.000 NA
ATOM     15  C   UNL     1       2.703   2.842  21.215  0.00  0.00    +0.000 A 
ENDBRANCH   9  13
ENDBRANCH   7   9
ENDBRANCH   1   7
BRANCH   6  16
ATOM     16  O   UNL     1       3.620   6.831  17.103  0.00  0.00    +0.000 OA
BRANCH  16  17
ATOM     17  C   UNL     1       2.941   7.296  18.212  0.00  0.00    +0.000 A 
ATOM     18  C   UNL     1       2.276   8.515  18.078  0.00  0.00    +0.000 A 
ATOM     19  C   UNL     1       1.473   9.005  19.120  0.00  0.00    +0.000 A 
ATOM     20  C   UNL     1       1.284   8.267  20.295  0.00  0.00    +0.000 A 
ATOM     21  C   UNL     1       2.023   7.089  20.442  0.00  0.00    +0.000 A 
ATOM     22  C   UNL     1       2.806   6.586  19.398  0.00  0.00    +0.000 A 
BRANCH  20  23
ATOM     23  N   UNL     1       0.439   8.773  21.313  0.00  0.00    +0.000 N 
ATOM     24  C   UNL     1       0.148  10.132  21.605  0.00  0.00    +0.000 A 
ATOM     25  C   UNL     1      -0.754  10.409  22.635  0.00  0.00    +0.000 A 
ATOM     26  C   UNL     1      -1.100  11.734  22.916  0.00  0.00    +0.000 A 
ATOM     27  C   UNL     1      -0.549  12.756  22.161  0.00  0.00    +0.000 A 
ATOM     28  C   UNL     1       0.339  12.409  21.164  0.00  0.00    +0.000 A 
ATOM     29  N   UNL     1       0.691  11.133  20.880  0.00  0.00    +0.000 NA
ATOM     30  H   UNL     1       0.558   8.258  22.180  0.00  0.00    +0.000 HD
ENDBRANCH  20  23
ENDBRANCH  16  17
ENDBRANCH   6  16
TORSDOF 6
ENDMDL
MODEL 7
REMARK VINA RESULT:      -8.4      1.925      2.559
REMARK  Name = 
REMARK  6 active torsions:
REMARK  status: ('A' for Active; 'I' for Inactive)
REMARK    1  A    between atoms: C_4  and  C_5
REMARK    2  A    between atoms: C_5  and  N_6
REMARK    3  A    between atoms: N_6  and  C_7
REMARK    4  A    between atoms: C_12  and  O_13
REMARK    5  A    between atoms: O_13  and  C_14
REMARK    6  A    between atoms: C_17  and  N_18
REMARK                            x       y       z     vdW  Elec       q    Type
REMARK                         _______ _______ _______ _____ _____    ______ ____
ROOT
ATOM      1  C   UNL     1       3.602   3.973  17.727  0.00  0.00    +0.000 A 
ATOM      2  N   UNL     1       3.184   2.696  17.549  0.00  0.00    +0.000 NA
ATOM      3  C   UNL     1       2.547   2.110  18.588  0.00  0.00    +0.000 A 
ATOM      4  C   UNL     1       2.330   2.761  19.783  0.00  0.00    +0.000 A 
ATOM      5  N   UNL     1       2.701   4.039  19.984  0.00  0.00    +0.000 NA
ATOM      6  C   UNL     1       3.308   4.651  18.933  0.00  0.00    +0.000 A 
ENDROOT
BRANCH   1   7
ATOM      7  N   UNL     1       4.356   4.574  16.708  0.00  0.00    +0.000 N 
ATOM      8  H   UNL     1       3.891   4.441  15.809  0.00  0.00    +0.000 HD
BRANCH   7   9
ATOM      9  C   UNL     1       5.755   4.135  16.680  0.00  0.00    +0.000 C 
BRANCH   9  13
ATOM     10  C   UNL     1       8.147   7.016  18.716  0.00  0.00    +0.000 A 
ATOM     11  C   UNL     1       7.579   7.359  17.496  0.00  0.00    +0.000 A 
ATOM     12  C   UNL     1       6.816   6.417  16.817  0.00  0.00    +0.000 A 
ATOM     13  C   UNL     1       6.648   5.146  17.375  0.00  0.00    +0.000 A 
ATOM     14  N   UNL     1       7.196   4.800  18.568  0.00  0.00    +0.000 NA
ATOM     15  C   UNL     1       7.929   5.738  19.207  0.00  0.00    +0.000 A 
ENDBRANCH   9  13
ENDBRANCH   7   9
ENDBRANCH   1   7
BRANCH   6  16
ATOM     16  O   UNL     1       3.779   5.953  19.088  0.00  0.00    +0.000 OA
BRANCH  16  17
ATOM     17  C   UNL     1       2.896   7.009  18.988  0.00  0.00    +0.000 A 
ATOM     18  C   UNL     1       2.126   7.295  20.116  0.00  0.00    +0.000 A 
ATOM     19  C   UNL     1       1.284   8.417  20.136  0.00  0.00    +0.000 A 
ATOM     20  C   UNL     1       1.227   9.298  19.048  0.00  0.00    +0.000 A 
ATOM     21  C   UNL     1       1.942   8.949  17.899  0.00  0.00    +0.000 A 
ATOM     22  C   UNL     1       2.801   7.845  17.883  0.00  0.00    +0.000 A 
BRANCH  20  23
ATOM     23  N   UNL     1       0.393  10.441  19.114  0.00  0.00    +0.000 N 
ATOM     24  C   UNL     1      -0.872  10.630  18.497  0.00  0.00    +0.000 A 
ATOM     25  C   UNL     1      -1.550  11.829  18.730  0.00  0.00    +0.000 A 
ATOM     26  C   UNL     1      -2.818  12.029  18.178  0.00  0.00    +0.000 A 
ATOM     27  C   UNL     1      -3.391  11.027  17.411  0.00  0.00    +0.000 A 
ATOM     28  C   UNL     1      -2.662   9.872  17.218  0.00  0.00    +0.000 A 
ATOM     29  N   UNL     1      -1.431   9.663  17.739  0.00  0.00    +0.000 NA
ATOM     30  H   UNL     1       0.935  11.297  19.046  0.00  0.00    +0.000 HD
ENDBRANCH  20  23
ENDBRANCH  16  17
ENDBRANCH   6  16
TORSDOF 6
ENDMDL
MODEL 8
REMARK VINA RESULT:      -8.3      1.902      2.615
REMARK  Name = 
REMARK  6 active torsions:
REMARK  status: ('A' for Active; 'I' for Inactive)
REMARK    1  A    between atoms: C_4  and  C_5
REMARK    2  A    between atoms: C_5  and  N_6
REMARK    3  A    between atoms: N_6  and  C_7
REMARK    4  A    between atoms: C_12  and  O_13
REMARK    5  A    between atoms: O_13  and  C_14
REMARK    6  A    between atoms: C_17  and  N_18
REMARK                            x       y       z     vdW  Elec       q    Type
REMARK                         _______ _______ _______ _____ _____    ______ ____
ROOT
ATOM      1  C   UNL     1       2.819   3.990  18.868  0.00  0.00    +0.000 A 
ATOM      2  N   UNL     1       2.353   2.730  19.054  0.00  0.00    +0.000 NA
ATOM      3  C   UNL     1       1.945   2.407  20.302  0.00  0.00    +0.000 A 
ATOM      4  C   UNL     1       1.999   3.300  21.351  0.00  0.00    +0.000 A 
ATOM      5  N   UNL     1       2.424   4.567  21.196  0.00  0.00    +0.000 NA
ATOM      6  C   UNL     1       2.801   4.915  19.938  0.00  0.00    +0.000 A 
ENDROOT
BRANCH   1   7
ATOM      7  N   UNL     1       3.346   4.326  17.612  0.00  0.00    +0.000 N 
ATOM      8  H   UNL     1       2.684   4.067  16.879  0.00  0.00    +0.000 HD
BRANCH   7   9
ATOM      9  C   UNL     1       4.683   3.773  17.373  0.00  0.00    +0.000 C 
BRANCH   9  13
ATOM     10  C   UNL     1       7.603   6.785  18.128  0.00  0.00    +0.000 A 
ATOM     11  C   UNL     1       6.563   7.065  17.251  0.00  0.00    +0.000 A 
ATOM     12  C   UNL     1       5.620   6.080  16.984  0.00  0.00    +0.000 A 
ATOM     13  C   UNL     1       5.748   4.830  17.597  0.00  0.00    +0.000 A 
ATOM     14  N   UNL     1       6.758   4.545  18.458  0.00  0.00    +0.000 NA
ATOM     15  C   UNL     1       7.657   5.524  18.702  0.00  0.00    +0.000 A 
ENDBRANCH   9  13
ENDBRANCH   7   9
ENDBRANCH   1   7
BRANCH   6  16
ATOM     16  O   UNL     1       3.314   6.191  19.713  0.00  0.00    +0.000 OA
BRANCH  16  17
ATOM     17  C   UNL     1       2.450   7.223  19.406  0.00  0.00    +0.000 A 
ATOM     18  C   UNL     1       1.685   7.737  20.454  0.00  0.00    +0.000 A 
ATOM     19  C   UNL     1       0.864   8.857  20.252  0.00  0.00    +0.000 A 
ATOM     20  C   UNL     1       0.824   9.511  19.013  0.00  0.00    +0.000 A 
ATOM     21  C   UNL     1       1.533   8.932  17.957  0.00  0.00    +0.000 A 
ATOM     22  C   UNL     1       2.371   7.830  18.159  0.00  0.00    +0.000 A 
BRANCH  20  23
ATOM     23  N   UNL     1       0.012  10.659  18.852  0.00  0.00    +0.000 N 
ATOM     24  C   UNL     1      -1.334  10.716  18.403  0.00  0.00    +0.000 A 
ATOM     25  C   UNL     1      -1.966  11.961  18.358  0.00  0.00    +0.000 A 
ATOM     26  C   UNL     1      -3.305  12.046  17.967  0.00  0.00    +0.000 A 
ATOM     27  C   UNL     1      -3.992  10.890  17.636  0.00  0.00    +0.000 A 
ATOM     28  C   UNL     1      -3.304   9.696  17.697  0.00  0.00    +0.000 A 
ATOM     29  N   UNL     1      -2.006   9.593  18.067  0.00  0.00    +0.000 NA
ATOM     30  H   UNL     1       0.537  11.428  18.446  0.00  0.00    +0.000 HD
ENDBRANCH  20  23
ENDBRANCH  16  17
ENDBRANCH   6  16
TORSDOF 6
ENDMDL
MODEL 9
REMARK VINA RESULT:      -8.3      2.020      4.493
REMARK  Name = 
REMARK  6 active torsions:
REMARK  status: ('A' for Active; 'I' for Inactive)
REMARK    1  A    between atoms: C_4  and  C_5
REMARK    2  A    between atoms: C_5  and  N_6
REMARK    3  A    between atoms: N_6  and  C_7
REMARK    4  A    between atoms: C_12  and  O_13
REMARK    5  A    between atoms: O_13  and  C_14
REMARK    6  A    between atoms: C_17  and  N_18
REMARK                            x       y       z     vdW  Elec       q    Type
REMARK                         _______ _______ _______ _____ _____    ______ ____
ROOT
ATOM      1  C   UNL     1       4.659   4.427  16.948  0.00  0.00    +0.000 A 
ATOM      2  N   UNL     1       5.557   4.232  15.951  0.00  0.00    +0.000 NA
ATOM      3  C   UNL     1       6.641   5.041  15.937  0.00  0.00    +0.000 A 
ATOM      4  C   UNL     1       6.837   6.029  16.878  0.00  0.00    +0.000 A 
ATOM      5  N   UNL     1       5.985   6.229  17.899  0.00  0.00    +0.000 NA
ATOM      6  C   UNL     1       4.911   5.397  17.946  0.00  0.00    +0.000 A 
ENDROOT
BRANCH   1   7
ATOM      7  N   UNL     1       3.475   3.675  16.932  0.00  0.00    +0.000 N 
ATOM      8  H   UNL     1       2.682   4.273  17.169  0.00  0.00    +0.000 HD
BRANCH   7   9
ATOM      9  C   UNL     1       3.535   2.474  17.771  0.00  0.00    +0.000 C 
BRANCH   9  13
ATOM     10  C   UNL     1       1.343   3.176  21.359  0.00  0.00    +0.000 A 
ATOM     11  C   UNL     1       2.642   2.696  21.452  0.00  0.00    +0.000 A 
ATOM     12  C   UNL     1       3.355   2.444  20.285  0.00  0.00    +0.000 A 
ATOM     13  C   UNL     1       2.742   2.672  19.050  0.00  0.00    +0.000 A 
ATOM     14  N   UNL     1       1.473   3.144  18.946  0.00  0.00    +0.000 NA
ATOM     15  C   UNL     1       0.807   3.383  20.098  0.00  0.00    +0.000 A 
ENDBRANCH   9  13
ENDBRANCH   7   9
ENDBRANCH   1   7
BRANCH   6  16
ATOM     16  O   UNL     1       3.951   5.585  18.938  0.00  0.00    +0.000 OA
BRANCH  16  17
ATOM     17  C   UNL     1       3.117   6.684  18.873  0.00  0.00    +0.000 A 
ATOM     18  C   UNL     1       2.300   6.921  19.979  0.00  0.00    +0.000 A 
ATOM     19  C   UNL     1       1.503   8.075  20.039  0.00  0.00    +0.000 A 
ATOM     20  C   UNL     1       1.540   9.034  19.019  0.00  0.00    +0.000 A 
ATOM     21  C   UNL     1       2.301   8.737  17.884  0.00  0.00    +0.000 A 
ATOM     22  C   UNL     1       3.114   7.600  17.829  0.00  0.00    +0.000 A 
BRANCH  20  23
ATOM     23  N   UNL     1       0.750  10.204  19.127  0.00  0.00    +0.000 N 
ATOM     24  C   UNL     1      -0.463  10.499  18.452  0.00  0.00    +0.000 A 
ATOM     25  C   UNL     1      -1.106  11.705  18.741  0.00  0.00    +0.000 A 
ATOM     26  C   UNL     1      -2.327  12.005  18.131  0.00  0.00    +0.000 A 
ATOM     27  C   UNL     1      -2.890  11.095  17.252  0.00  0.00    +0.000 A 
ATOM     28  C   UNL     1      -2.197   9.927  17.009  0.00  0.00    +0.000 A 
ATOM     29  N   UNL     1      -1.011   9.621  17.585  0.00  0.00    +0.000 NA
ATOM     30  H   UNL     1       1.330  11.037  19.162  0.00  0.00    +0.000 HD
ENDBRANCH  20  23
ENDBRANCH  16  17
ENDBRANCH   6  16
TORSDOF 6
ENDMDL
