MODEL 1
REMARK VINA RESULT:      -8.7      0.000      0.000
REMARK  Name = 
REMARK  3 active torsions:
REMARK  status: ('A' for Active; 'I' for Inactive)
REMARK    1  A    between atoms: C_2  and  C_3
REMARK    2  A    between atoms: C_3  and  C_4
REMARK    3  A    between atoms: N_10  and  N_11
REMARK                            x       y       z     vdW  Elec       q    Type
REMARK                         _______ _______ _______ _____ _____    ______ ____
ROOT
ATOM      1  N   UNL     1       1.589   8.717  18.144  0.00  0.00    +0.000 N 
ATOM      2  C   UNL     1       1.782  10.092  18.069  0.00  0.00    +0.000 C 
ATOM      3  O   UNL     1       2.797  10.496  17.498  0.00  0.00    +0.000 OA
ATOM      4  N   UNL     1       0.806  10.881  18.706  0.00  0.00    +0.000 N 
ATOM      5  C   UNL     1      -0.295  10.250  19.443  0.00  0.00    +0.000 C 
ATOM      6  C   UNL     1      -1.601  10.519  18.767  0.00  0.00    +0.000 A 
ATOM      7  C   UNL     1      -2.300   9.558  18.030  0.00  0.00    +0.000 A 
ATOM      8  C   UNL     1      -3.517   9.892  17.430  0.00  0.00    +0.000 A 
ATOM      9  C   UNL     1      -4.037  11.180  17.564  0.00  0.00    +0.000 A 
ATOM     10  C   UNL     1      -3.337  12.144  18.289  0.00  0.00    +0.000 A 
ATOM     11  C   UNL     1      -2.111  11.812  18.862  0.00  0.00    +0.000 A 
ATOM     12  O   UNL     1      -1.464  12.742  19.632  0.00  0.00    +0.000 OA
ATOM     13  C   UNL     1      -0.211  13.155  19.217  0.00  0.00    +0.000 A 
ATOM     14  C   UNL     1      -0.071  14.553  19.345  0.00  0.00    +0.000 A 
ATOM     15  C   UNL     1       1.106  15.191  18.980  0.00  0.00    +0.000 A 
ATOM     16  C   UNL     1       2.153  14.430  18.491  0.00  0.00    +0.000 A 
ATOM     17 CL   UNL     1       3.623  15.204  18.036  0.00  0.00    +0.000 Cl
ATOM     18  C   UNL     1       2.035  13.037  18.384  0.00  0.00    +0.000 A 
ATOM     19  C   UNL     1       0.864  12.345  18.754  0.00  0.00    +0.000 A 
ATOM     20  H   UNL     1       0.663   8.352  17.933  0.00  0.00    +0.000 HD
ENDROOT
BRANCH   1  23
ATOM     21  O   UNL     1       2.369   6.337  19.272  0.00  0.00    +0.000 OA
ATOM     22  C   UNL     1       2.904   6.703  18.225  0.00  0.00    +0.000 C 
ATOM     23  N   UNL     1       2.631   7.918  17.627  0.00  0.00    +0.000 N 
ATOM     24  H   UNL     1       2.933   8.152  16.682  0.00  0.00    +0.000 HD
BRANCH  22  25
ATOM     25  C   UNL     1       3.927   5.869  17.472  0.00  0.00    +0.000 C 
BRANCH  25  26
ATOM     26  C   UNL     1       5.322   5.986  18.020  0.00  0.00    +0.000 A 
ATOM     27  C   UNL     1       6.292   6.772  17.390  0.00  0.00    +0.000 A 
ATOM     28  C   UNL     1       7.584   6.823  17.904  0.00  0.00    +0.000 A 
ATOM     29  C   UNL     1       7.870   6.080  19.037  0.00  0.00    +0.000 A 
ATOM     30  N   UNL     1       6.962   5.310  19.674  0.00  0.00    +0.000 NA
ATOM     31  C   UNL     1       5.714   5.278  19.153  0.00  0.00    +0.000 A 
ENDBRANCH  25  26
ENDBRANCH  22  25
ENDBRANCH   1  23
TORSDOF 3
ENDMDL
MODEL 2
REMARK VINA RESULT:      -8.5      2.795      8.726
REMARK  Name = 
REMARK  3 active torsions:
REMARK  status: ('A' for Active; 'I' for Inactive)
REMARK    1  A    between atoms: C_2  and  C_3
REMARK    2  A    between atoms: C_3  and  C_4
REMARK    3  A    between atoms: N_10  and  N_11
REMARK                            x       y       z     vdW  Elec       q    Type
REMARK                         _______ _______ _______ _____ _____    ______ ____
ROOT
ATOM      1  N   UNL     1       1.290   7.789  17.967  0.00  0.00    +0.000 N 
ATOM      2  C   UNL     1       2.676   7.666  17.988  0.00  0.00    +0.000 C 
ATOM      3  O   UNL     1       3.340   8.704  18.004  0.00  0.00    +0.000 OA
ATOM      4  N   UNL     1       3.172   6.350  17.941  0.00  0.00    +0.000 N 
ATOM      5  C   UNL     1       2.253   5.213  17.814  0.00  0.00    +0.000 C 
ATOM      6  C   UNL     1       2.281   4.375  19.052  0.00  0.00    +0.000 A 
ATOM      7  C   UNL     1       1.253   4.368  20.001  0.00  0.00    +0.000 A 
ATOM      8  C   UNL     1       1.358   3.554  21.131  0.00  0.00    +0.000 A 
ATOM      9  C   UNL     1       2.483   2.749  21.317  0.00  0.00    +0.000 A 
ATOM     10  C   UNL     1       3.513   2.763  20.378  0.00  0.00    +0.000 A 
ATOM     11  C   UNL     1       3.416   3.597  19.267  0.00  0.00    +0.000 A 
ATOM     12  O   UNL     1       4.399   3.552  18.314  0.00  0.00    +0.000 OA
ATOM     13  C   UNL     1       5.112   4.713  18.077  0.00  0.00    +0.000 A 
ATOM     14  C   UNL     1       6.491   4.441  17.949  0.00  0.00    +0.000 A 
ATOM     15  C   UNL     1       7.403   5.461  17.714  0.00  0.00    +0.000 A 
ATOM     16  C   UNL     1       6.936   6.759  17.600  0.00  0.00    +0.000 A 
ATOM     17 CL   UNL     1       8.053   8.037  17.306  0.00  0.00    +0.000 Cl
ATOM     18  C   UNL     1       5.566   7.037  17.699  0.00  0.00    +0.000 A 
ATOM     19  C   UNL     1       4.603   6.033  17.924  0.00  0.00    +0.000 A 
ATOM     20  H   UNL     1       0.748   7.196  18.590  0.00  0.00    +0.000 HD
ENDROOT
BRANCH   1  23
ATOM     21  O   UNL     1       0.471   9.246  20.147  0.00  0.00    +0.000 OA
ATOM     22  C   UNL     1       0.467   9.781  19.038  0.00  0.00    +0.000 C 
ATOM     23  N   UNL     1       0.789   9.105  17.877  0.00  0.00    +0.000 N 
ATOM     24  H   UNL     1       0.957   9.577  16.988  0.00  0.00    +0.000 HD
BRANCH  22  25
ATOM     25  C   UNL     1       0.106  11.240  18.814  0.00  0.00    +0.000 C 
BRANCH  25  26
ATOM     26  C   UNL     1      -1.374  11.506  18.846  0.00  0.00    +0.000 A 
ATOM     27  C   UNL     1      -2.209  11.123  17.793  0.00  0.00    +0.000 A 
ATOM     28  C   UNL     1      -3.568  11.423  17.840  0.00  0.00    +0.000 A 
ATOM     29  C   UNL     1      -4.051  12.103  18.944  0.00  0.00    +0.000 A 
ATOM     30  N   UNL     1      -3.278  12.491  19.981  0.00  0.00    +0.000 NA
ATOM     31  C   UNL     1      -1.962  12.186  19.910  0.00  0.00    +0.000 A 
ENDBRANCH  25  26
ENDBRANCH  22  25
ENDBRANCH   1  23
TORSDOF 3
ENDMDL
MODEL 3
REMARK VINA RESULT:      -8.5      2.772      8.045
REMARK  Name = 
REMARK  3 active torsions:
REMARK  status: ('A' for Active; 'I' for Inactive)
REMARK    1  A    between atoms: C_2  and  C_3
REMARK    2  A    between atoms: C_3  and  C_4
REMARK    3  A    between atoms: N_10  and  N_11
REMARK                            x       y       z     vdW  Elec       q    Type
REMARK                         _______ _______ _______ _____ _____    ______ ____
ROOT
ATOM      1  N   UNL     1       1.318   7.822  17.935  0.00  0.00    +0.000 N 
ATOM      2  C   UNL     1       2.703   7.698  17.972  0.00  0.00    +0.000 C 
ATOM      3  O   UNL     1       3.369   8.735  17.994  0.00  0.00    +0.000 OA
ATOM      4  N   UNL     1       3.199   6.381  17.932  0.00  0.00    +0.000 N 
ATOM      5  C   UNL     1       2.281   5.245  17.796  0.00  0.00    +0.000 C 
ATOM      6  C   UNL     1       2.293   4.408  19.034  0.00  0.00    +0.000 A 
ATOM      7  C   UNL     1       1.255   4.403  19.972  0.00  0.00    +0.000 A 
ATOM      8  C   UNL     1       1.345   3.590  21.104  0.00  0.00    +0.000 A 
ATOM      9  C   UNL     1       2.467   2.784  21.303  0.00  0.00    +0.000 A 
ATOM     10  C   UNL     1       3.509   2.796  20.377  0.00  0.00    +0.000 A 
ATOM     11  C   UNL     1       3.424   3.629  19.263  0.00  0.00    +0.000 A 
ATOM     12  O   UNL     1       4.419   3.582  18.322  0.00  0.00    +0.000 OA
ATOM     13  C   UNL     1       5.136   4.742  18.092  0.00  0.00    +0.000 A 
ATOM     14  C   UNL     1       6.516   4.469  17.980  0.00  0.00    +0.000 A 
ATOM     15  C   UNL     1       7.431   5.488  17.755  0.00  0.00    +0.000 A 
ATOM     16  C   UNL     1       6.967   6.786  17.634  0.00  0.00    +0.000 A 
ATOM     17 CL   UNL     1       8.088   8.062  17.351  0.00  0.00    +0.000 Cl
ATOM     18  C   UNL     1       5.596   7.066  17.717  0.00  0.00    +0.000 A 
ATOM     19  C   UNL     1       4.629   6.062  17.932  0.00  0.00    +0.000 A 
ATOM     20  H   UNL     1       0.768   7.229  18.552  0.00  0.00    +0.000 HD
ENDROOT
BRANCH   1  23
ATOM     21  O   UNL     1       0.500   9.291  20.107  0.00  0.00    +0.000 OA
ATOM     22  C   UNL     1       0.498   9.820  18.995  0.00  0.00    +0.000 C 
ATOM     23  N   UNL     1       0.819   9.138  17.838  0.00  0.00    +0.000 N 
ATOM     24  H   UNL     1       0.988   9.605  16.947  0.00  0.00    +0.000 HD
BRANCH  22  25
ATOM     25  C   UNL     1       0.139  11.279  18.763  0.00  0.00    +0.000 C 
BRANCH  25  26
ATOM     26  C   UNL     1       1.187  12.242  19.248  0.00  0.00    +0.000 A 
ATOM     27  C   UNL     1       2.063  12.877  18.362  0.00  0.00    +0.000 A 
ATOM     28  C   UNL     1       3.047  13.731  18.852  0.00  0.00    +0.000 A 
ATOM     29  C   UNL     1       3.127  13.923  20.220  0.00  0.00    +0.000 A 
ATOM     30  N   UNL     1       2.302  13.329  21.108  0.00  0.00    +0.000 NA
ATOM     31  C   UNL     1       1.354  12.504  20.605  0.00  0.00    +0.000 A 
ENDBRANCH  25  26
ENDBRANCH  22  25
ENDBRANCH   1  23
TORSDOF 3
ENDMDL
MODEL 4
REMARK VINA RESULT:      -8.4      1.317      1.973
REMARK  Name = 
REMARK  3 active torsions:
REMARK  status: ('A' for Active; 'I' for Inactive)
REMARK    1  A    between atoms: C_2  and  C_3
REMARK    2  A    between atoms: C_3  and  C_4
REMARK    3  A    between atoms: N_10  and  N_11
REMARK                            x       y       z     vdW  Elec       q    Type
REMARK                         _______ _______ _______ _____ _____    ______ ____
ROOT
ATOM      1  N   UNL     1       1.464   8.802  18.188  0.00  0.00    +0.000 N 
ATOM      2  C   UNL     1       1.631  10.181  18.106  0.00  0.00    +0.000 C 
ATOM      3  O   UNL     1       2.656  10.601  17.565  0.00  0.00    +0.000 OA
ATOM      4  N   UNL     1       0.618  10.955  18.703  0.00  0.00    +0.000 N 
ATOM      5  C   UNL     1      -0.493  10.308  19.409  0.00  0.00    +0.000 C 
ATOM      6  C   UNL     1      -1.781  10.543  18.689  0.00  0.00    +0.000 A 
ATOM      7  C   UNL     1      -2.435   9.560  17.938  0.00  0.00    +0.000 A 
ATOM      8  C   UNL     1      -3.638   9.862  17.296  0.00  0.00    +0.000 A 
ATOM      9  C   UNL     1      -4.189  11.140  17.400  0.00  0.00    +0.000 A 
ATOM     10  C   UNL     1      -3.534  12.125  18.138  0.00  0.00    +0.000 A 
ATOM     11  C   UNL     1      -2.321  11.825  18.754  0.00  0.00    +0.000 A 
ATOM     12  O   UNL     1      -1.719  12.776  19.535  0.00  0.00    +0.000 OA
ATOM     13  C   UNL     1      -0.462  13.211  19.158  0.00  0.00    +0.000 A 
ATOM     14  C   UNL     1      -0.356  14.613  19.276  0.00  0.00    +0.000 A 
ATOM     15  C   UNL     1       0.819  15.272  18.944  0.00  0.00    +0.000 A 
ATOM     16  C   UNL     1       1.897  14.529  18.497  0.00  0.00    +0.000 A 
ATOM     17 CL   UNL     1       3.364  15.331  18.082  0.00  0.00    +0.000 Cl
ATOM     18  C   UNL     1       1.812  13.133  18.400  0.00  0.00    +0.000 A 
ATOM     19  C   UNL     1       0.644  12.420  18.738  0.00  0.00    +0.000 A 
ATOM     20  H   UNL     1       0.554   8.416  17.951  0.00  0.00    +0.000 HD
ENDROOT
BRANCH   1  23
ATOM     21  O   UNL     1       2.518   6.680  19.578  0.00  0.00    +0.000 OA
ATOM     22  C   UNL     1       2.954   6.932  18.454  0.00  0.00    +0.000 C 
ATOM     23  N   UNL     1       2.540   8.022  17.714  0.00  0.00    +0.000 N 
ATOM     24  H   UNL     1       2.762   8.138  16.726  0.00  0.00    +0.000 HD
BRANCH  22  25
ATOM     25  C   UNL     1       3.999   6.080  17.753  0.00  0.00    +0.000 C 
BRANCH  25  26
ATOM     26  C   UNL     1       3.931   4.622  18.116  0.00  0.00    +0.000 A 
ATOM     27  C   UNL     1       3.028   3.755  17.494  0.00  0.00    +0.000 A 
ATOM     28  C   UNL     1       2.966   2.421  17.885  0.00  0.00    +0.000 A 
ATOM     29  C   UNL     1       3.812   1.993  18.894  0.00  0.00    +0.000 A 
ATOM     30  N   UNL     1       4.697   2.798  19.519  0.00  0.00    +0.000 NA
ATOM     31  C   UNL     1       4.737   4.090  19.119  0.00  0.00    +0.000 A 
ENDBRANCH  25  26
ENDBRANCH  22  25
ENDBRANCH   1  23
TORSDOF 3
ENDMDL
MODEL 5
REMARK VINA RESULT:      -8.3      4.341      6.936
REMARK  Name = 
REMARK  3 active torsions:
REMARK  status: ('A' for Active; 'I' for Inactive)
REMARK    1  A    between atoms: C_2  and  C_3
REMARK    2  A    between atoms: C_3  and  C_4
REMARK    3  A    between atoms: N_10  and  N_11
REMARK                            x       y       z     vdW  Elec       q    Type
REMARK                         _______ _______ _______ _____ _____    ______ ____
ROOT
ATOM      1  N   UNL     1       5.090   5.501  16.727  0.00  0.00    +0.000 N 
ATOM      2  C   UNL     1       4.143   6.445  17.111  0.00  0.00    +0.000 C 
ATOM      3  O   UNL     1       3.835   7.311  16.291  0.00  0.00    +0.000 OA
ATOM      4  N   UNL     1       3.669   6.331  18.432  0.00  0.00    +0.000 N 
ATOM      5  C   UNL     1       4.212   5.306  19.331  0.00  0.00    +0.000 C 
ATOM      6  C   UNL     1       3.165   4.295  19.668  0.00  0.00    +0.000 A 
ATOM      7  C   UNL     1       3.142   3.002  19.135  0.00  0.00    +0.000 A 
ATOM      8  C   UNL     1       2.126   2.117  19.505  0.00  0.00    +0.000 A 
ATOM      9  C   UNL     1       1.136   2.517  20.402  0.00  0.00    +0.000 A 
ATOM     10  C   UNL     1       1.150   3.809  20.926  0.00  0.00    +0.000 A 
ATOM     11  C   UNL     1       2.150   4.696  20.534  0.00  0.00    +0.000 A 
ATOM     12  O   UNL     1       2.198   5.939  21.107  0.00  0.00    +0.000 OA
ATOM     13  C   UNL     1       2.062   7.033  20.272  0.00  0.00    +0.000 A 
ATOM     14  C   UNL     1       1.208   8.001  20.843  0.00  0.00    +0.000 A 
ATOM     15  C   UNL     1       0.920   9.183  20.177  0.00  0.00    +0.000 A 
ATOM     16  C   UNL     1       1.491   9.405  18.936  0.00  0.00    +0.000 A 
ATOM     17 CL   UNL     1       1.147  10.869  18.095  0.00  0.00    +0.000 Cl
ATOM     18  C   UNL     1       2.361   8.463  18.370  0.00  0.00    +0.000 A 
ATOM     19  C   UNL     1       2.692   7.254  19.016  0.00  0.00    +0.000 A 
ATOM     20  H   UNL     1       4.906   4.524  16.942  0.00  0.00    +0.000 HD
ENDROOT
BRANCH   1  23
ATOM     21  O   UNL     1       7.389   4.240  15.909  0.00  0.00    +0.000 OA
ATOM     22  C   UNL     1       6.788   4.959  15.111  0.00  0.00    +0.000 C 
ATOM     23  N   UNL     1       5.669   5.691  15.454  0.00  0.00    +0.000 N 
ATOM     24  H   UNL     1       5.069   6.145  14.765  0.00  0.00    +0.000 HD
BRANCH  22  25
ATOM     25  C   UNL     1       7.206   5.129  13.660  0.00  0.00    +0.000 C 
BRANCH  25  26
ATOM     26  C   UNL     1       6.671   4.058  12.749  0.00  0.00    +0.000 A 
ATOM     27  C   UNL     1       5.297   3.837  12.609  0.00  0.00    +0.000 A 
ATOM     28  C   UNL     1       4.840   2.810  11.788  0.00  0.00    +0.000 A 
ATOM     29  C   UNL     1       5.776   2.030  11.130  0.00  0.00    +0.000 A 
ATOM     30  N   UNL     1       7.109   2.212  11.239  0.00  0.00    +0.000 NA
ATOM     31  C   UNL     1       7.527   3.217  12.043  0.00  0.00    +0.000 A 
ENDBRANCH  25  26
ENDBRANCH  22  25
ENDBRANCH   1  23
TORSDOF 3
ENDMDL
MODEL 6
REMARK VINA RESULT:      -8.2      2.932      8.513
REMARK  Name = 
REMARK  3 active torsions:
REMARK  status: ('A' for Active; 'I' for Inactive)
REMARK    1  A    between atoms: C_2  and  C_3
REMARK    2  A    between atoms: C_3  and  C_4
REMARK    3  A    between atoms: N_10  and  N_11
REMARK                            x       y       z     vdW  Elec       q    Type
REMARK                         _______ _______ _______ _____ _____    ______ ____
ROOT
ATOM      1  N   UNL     1       1.348   7.797  17.982  0.00  0.00    +0.000 N 
ATOM      2  C   UNL     1       2.732   7.654  18.000  0.00  0.00    +0.000 C 
ATOM      3  O   UNL     1       3.412   8.682  18.017  0.00  0.00    +0.000 OA
ATOM      4  N   UNL     1       3.210   6.331  17.947  0.00  0.00    +0.000 N 
ATOM      5  C   UNL     1       2.274   5.208  17.819  0.00  0.00    +0.000 C 
ATOM      6  C   UNL     1       2.293   4.366  19.053  0.00  0.00    +0.000 A 
ATOM      7  C   UNL     1       1.268   4.370  20.005  0.00  0.00    +0.000 A 
ATOM      8  C   UNL     1       1.363   3.551  21.132  0.00  0.00    +0.000 A 
ATOM      9  C   UNL     1       2.477   2.729  21.312  0.00  0.00    +0.000 A 
ATOM     10  C   UNL     1       3.505   2.731  20.372  0.00  0.00    +0.000 A 
ATOM     11  C   UNL     1       3.417   3.570  19.263  0.00  0.00    +0.000 A 
ATOM     12  O   UNL     1       4.397   3.515  18.307  0.00  0.00    +0.000 OA
ATOM     13  C   UNL     1       5.127   4.666  18.073  0.00  0.00    +0.000 A 
ATOM     14  C   UNL     1       6.501   4.375  17.941  0.00  0.00    +0.000 A 
ATOM     15  C   UNL     1       7.427   5.382  17.707  0.00  0.00    +0.000 A 
ATOM     16  C   UNL     1       6.979   6.687  17.598  0.00  0.00    +0.000 A 
ATOM     17 CL   UNL     1       8.113   7.950  17.306  0.00  0.00    +0.000 Cl
ATOM     18  C   UNL     1       5.613   6.985  17.702  0.00  0.00    +0.000 A 
ATOM     19  C   UNL     1       4.635   5.993  17.926  0.00  0.00    +0.000 A 
ATOM     20  H   UNL     1       0.799   7.209  18.605  0.00  0.00    +0.000 HD
ENDROOT
BRANCH   1  23
ATOM     21  O   UNL     1       0.593   9.272  20.173  0.00  0.00    +0.000 OA
ATOM     22  C   UNL     1       0.577   9.804  19.062  0.00  0.00    +0.000 C 
ATOM     23  N   UNL     1       0.866   9.120  17.898  0.00  0.00    +0.000 N 
ATOM     24  H   UNL     1       1.024   9.587  17.005  0.00  0.00    +0.000 HD
BRANCH  22  25
ATOM     25  C   UNL     1       0.234  11.268  18.841  0.00  0.00    +0.000 C 
BRANCH  25  26
ATOM     26  C   UNL     1      -0.124  12.001  20.104  0.00  0.00    +0.000 A 
ATOM     27  C   UNL     1      -1.428  11.990  20.611  0.00  0.00    +0.000 A 
ATOM     28  C   UNL     1      -1.730  12.714  21.761  0.00  0.00    +0.000 A 
ATOM     29  C   UNL     1      -0.717  13.432  22.370  0.00  0.00    +0.000 A 
ATOM     30  N   UNL     1       0.553  13.469  21.912  0.00  0.00    +0.000 NA
ATOM     31  C   UNL     1       0.821  12.756  20.793  0.00  0.00    +0.000 A 
ENDBRANCH  25  26
ENDBRANCH  22  25
ENDBRANCH   1  23
TORSDOF 3
ENDMDL
MODEL 7
REMARK VINA RESULT:      -8.1      2.442      3.699
REMARK  Name = 
REMARK  3 active torsions:
REMARK  status: ('A' for Active; 'I' for Inactive)
REMARK    1  A    between atoms: C_2  and  C_3
REMARK    2  A    between atoms: C_3  and  C_4
REMARK    3  A    between atoms: N_10  and  N_11
REMARK                            x       y       z     vdW  Elec       q    Type
REMARK                         _______ _______ _______ _____ _____    ______ ____
ROOT
ATOM      1  N   UNL     1       1.854   9.359  18.583  0.00  0.00    +0.000 N 
ATOM      2  C   UNL     1       0.583   9.487  18.030  0.00  0.00    +0.000 C 
ATOM      3  O   UNL     1       0.266   8.696  17.140  0.00  0.00    +0.000 OA
ATOM      4  N   UNL     1      -0.193  10.552  18.525  0.00  0.00    +0.000 N 
ATOM      5  C   UNL     1       0.365  11.482  19.513  0.00  0.00    +0.000 C 
ATOM      6  C   UNL     1      -0.349  11.349  20.820  0.00  0.00    +0.000 A 
ATOM      7  C   UNL     1       0.205  10.720  21.940  0.00  0.00    +0.000 A 
ATOM      8  C   UNL     1      -0.530  10.639  23.125  0.00  0.00    +0.000 A 
ATOM      9  C   UNL     1      -1.813  11.182  23.195  0.00  0.00    +0.000 A 
ATOM     10  C   UNL     1      -2.373  11.799  22.077  0.00  0.00    +0.000 A 
ATOM     11  C   UNL     1      -1.645  11.853  20.890  0.00  0.00    +0.000 A 
ATOM     12  O   UNL     1      -2.173  12.522  19.818  0.00  0.00    +0.000 OA
ATOM     13  C   UNL     1      -2.405  11.797  18.663  0.00  0.00    +0.000 A 
ATOM     14  C   UNL     1      -3.654  12.134  18.098  0.00  0.00    +0.000 A 
ATOM     15  C   UNL     1      -4.101  11.523  16.935  0.00  0.00    +0.000 A 
ATOM     16  C   UNL     1      -3.296  10.575  16.328  0.00  0.00    +0.000 A 
ATOM     17 CL   UNL     1      -3.834   9.809  14.882  0.00  0.00    +0.000 Cl
ATOM     18  C   UNL     1      -2.043  10.252  16.866  0.00  0.00    +0.000 A 
ATOM     19  C   UNL     1      -1.542  10.855  18.038  0.00  0.00    +0.000 A 
ATOM     20  H   UNL     1       1.942   9.407  19.595  0.00  0.00    +0.000 HD
ENDROOT
BRANCH   1  23
ATOM     21  O   UNL     1       2.259   6.872  19.675  0.00  0.00    +0.000 OA
ATOM     22  C   UNL     1       2.771   7.135  18.586  0.00  0.00    +0.000 C 
ATOM     23  N   UNL     1       2.685   8.381  17.997  0.00  0.00    +0.000 N 
ATOM     24  H   UNL     1       2.952   8.557  17.029  0.00  0.00    +0.000 HD
BRANCH  22  25
ATOM     25  C   UNL     1       3.558   6.126  17.766  0.00  0.00    +0.000 C 
BRANCH  25  26
ATOM     26  C   UNL     1       5.019   6.072  18.118  0.00  0.00    +0.000 A 
ATOM     27  C   UNL     1       5.986   6.697  17.324  0.00  0.00    +0.000 A 
ATOM     28  C   UNL     1       7.333   6.590  17.659  0.00  0.00    +0.000 A 
ATOM     29  C   UNL     1       7.674   5.856  18.782  0.00  0.00    +0.000 A 
ATOM     30  N   UNL     1       6.771   5.239  19.574  0.00  0.00    +0.000 NA
ATOM     31  C   UNL     1       5.469   5.358  19.226  0.00  0.00    +0.000 A 
ENDBRANCH  25  26
ENDBRANCH  22  25
ENDBRANCH   1  23
TORSDOF 3
ENDMDL
MODEL 8
REMARK VINA RESULT:      -8.0      2.969      8.615
REMARK  Name = 
REMARK  3 active torsions:
REMARK  status: ('A' for Active; 'I' for Inactive)
REMARK    1  A    between atoms: C_2  and  C_3
REMARK    2  A    between atoms: C_3  and  C_4
REMARK    3  A    between atoms: N_10  and  N_11
REMARK                            x       y       z     vdW  Elec       q    Type
REMARK                         _______ _______ _______ _____ _____    ______ ____
ROOT
ATOM      1  N   UNL     1       1.296   7.868  18.038  0.00  0.00    +0.000 N 
ATOM      2  C   UNL     1       2.679   7.712  18.034  0.00  0.00    +0.000 C 
ATOM      3  O   UNL     1       3.369   8.733  18.061  0.00  0.00    +0.000 OA
ATOM      4  N   UNL     1       3.142   6.386  17.951  0.00  0.00    +0.000 N 
ATOM      5  C   UNL     1       2.195   5.274  17.814  0.00  0.00    +0.000 C 
ATOM      6  C   UNL     1       2.221   4.409  19.033  0.00  0.00    +0.000 A 
ATOM      7  C   UNL     1       1.208   4.405  19.998  0.00  0.00    +0.000 A 
ATOM      8  C   UNL     1       1.311   3.564  21.109  0.00  0.00    +0.000 A 
ATOM      9  C   UNL     1       2.419   2.729  21.259  0.00  0.00    +0.000 A 
ATOM     10  C   UNL     1       3.435   2.739  20.305  0.00  0.00    +0.000 A 
ATOM     11  C   UNL     1       3.340   3.599  19.213  0.00  0.00    +0.000 A 
ATOM     12  O   UNL     1       4.307   3.552  18.244  0.00  0.00    +0.000 OA
ATOM     13  C   UNL     1       5.045   4.700  18.021  0.00  0.00    +0.000 A 
ATOM     14  C   UNL     1       6.415   4.398  17.865  0.00  0.00    +0.000 A 
ATOM     15  C   UNL     1       7.346   5.401  17.638  0.00  0.00    +0.000 A 
ATOM     16  C   UNL     1       6.910   6.711  17.559  0.00  0.00    +0.000 A 
ATOM     17 CL   UNL     1       8.052   7.969  17.274  0.00  0.00    +0.000 Cl
ATOM     18  C   UNL     1       5.549   7.020  17.686  0.00  0.00    +0.000 A 
ATOM     19  C   UNL     1       4.565   6.034  17.905  0.00  0.00    +0.000 A 
ATOM     20  H   UNL     1       0.750   7.274  18.656  0.00  0.00    +0.000 HD
ENDROOT
BRANCH   1  23
ATOM     21  O   UNL     1       0.438   9.257  20.247  0.00  0.00    +0.000 OA
ATOM     22  C   UNL     1       0.481   9.834  19.159  0.00  0.00    +0.000 C 
ATOM     23  N   UNL     1       0.826   9.197  17.984  0.00  0.00    +0.000 N 
ATOM     24  H   UNL     1       1.032   9.699  17.120  0.00  0.00    +0.000 HD
BRANCH  22  25
ATOM     25  C   UNL     1       0.158  11.308  18.982  0.00  0.00    +0.000 C 
BRANCH  25  26
ATOM     26  C   UNL     1      -0.673  11.882  20.096  0.00  0.00    +0.000 A 
ATOM     27  C   UNL     1      -0.119  12.170  21.347  0.00  0.00    +0.000 A 
ATOM     28  C   UNL     1      -0.929  12.662  22.367  0.00  0.00    +0.000 A 
ATOM     29  C   UNL     1      -2.274  12.850  22.104  0.00  0.00    +0.000 A 
ATOM     30  N   UNL     1      -2.847  12.584  20.911  0.00  0.00    +0.000 NA
ATOM     31  C   UNL     1      -2.038  12.107  19.937  0.00  0.00    +0.000 A 
ENDBRANCH  25  26
ENDBRANCH  22  25
ENDBRANCH   1  23
TORSDOF 3
ENDMDL
MODEL 9
REMARK VINA RESULT:      -8.0      2.601      3.762
REMARK  Name = 
REMARK  3 active torsions:
REMARK  status: ('A' for Active; 'I' for Inactive)
REMARK    1  A    between atoms: C_2  and  C_3
REMARK    2  A    between atoms: C_3  and  C_4
REMARK    3  A    between atoms: N_10  and  N_11
REMARK                            x       y       z     vdW  Elec       q    Type
REMARK                         _______ _______ _______ _____ _____    ______ ____
ROOT
ATOM      1  N   UNL     1       2.286   8.343  18.573  0.00  0.00    +0.000 N 
ATOM      2  C   UNL     1       1.039   8.710  18.076  0.00  0.00    +0.000 C 
ATOM      3  O   UNL     1       0.581   8.053  17.139  0.00  0.00    +0.000 OA
ATOM      4  N   UNL     1       0.451   9.839  18.677  0.00  0.00    +0.000 N 
ATOM      5  C   UNL     1       1.170  10.588  19.714  0.00  0.00    +0.000 C 
ATOM      6  C   UNL     1       0.473  10.461  21.031  0.00  0.00    +0.000 A 
ATOM      7  C   UNL     1       0.946   9.666  22.080  0.00  0.00    +0.000 A 
ATOM      8  C   UNL     1       0.234   9.604  23.280  0.00  0.00    +0.000 A 
ATOM      9  C   UNL     1      -0.946  10.332  23.436  0.00  0.00    +0.000 A 
ATOM     10  C   UNL     1      -1.426  11.116  22.388  0.00  0.00    +0.000 A 
ATOM     11  C   UNL     1      -0.726  11.153  21.184  0.00  0.00    +0.000 A 
ATOM     12  O   UNL     1      -1.165  11.981  20.185  0.00  0.00    +0.000 OA
ATOM     13  C   UNL     1      -1.534  11.397  18.987  0.00  0.00    +0.000 A 
ATOM     14  C   UNL     1      -2.727  11.967  18.493  0.00  0.00    +0.000 A 
ATOM     15  C   UNL     1      -3.290  11.530  17.303  0.00  0.00    +0.000 A 
ATOM     16  C   UNL     1      -2.657  10.521  16.598  0.00  0.00    +0.000 A 
ATOM     17 CL   UNL     1      -3.341   9.968  15.116  0.00  0.00    +0.000 Cl
ATOM     18  C   UNL     1      -1.459   9.965  17.065  0.00  0.00    +0.000 A 
ATOM     19  C   UNL     1      -0.843  10.386  18.262  0.00  0.00    +0.000 A 
ATOM     20  H   UNL     1       2.402   8.294  19.582  0.00  0.00    +0.000 HD
ENDROOT
BRANCH   1  23
ATOM     21  O   UNL     1       2.436   5.771  19.525  0.00  0.00    +0.000 OA
ATOM     22  C   UNL     1       2.902   6.023  18.413  0.00  0.00    +0.000 C 
ATOM     23  N   UNL     1       2.940   7.299  17.886  0.00  0.00    +0.000 N 
ATOM     24  H   UNL     1       3.160   7.489  16.908  0.00  0.00    +0.000 HD
BRANCH  22  25
ATOM     25  C   UNL     1       3.492   4.966  17.494  0.00  0.00    +0.000 C 
BRANCH  25  26
ATOM     26  C   UNL     1       4.992   4.877  17.562  0.00  0.00    +0.000 A 
ATOM     27  C   UNL     1       5.769   4.753  16.406  0.00  0.00    +0.000 A 
ATOM     28  C   UNL     1       7.152   4.632  16.511  0.00  0.00    +0.000 A 
ATOM     29  C   UNL     1       7.718   4.637  17.774  0.00  0.00    +0.000 A 
ATOM     30  N   UNL     1       7.003   4.755  18.913  0.00  0.00    +0.000 NA
ATOM     31  C   UNL     1       5.660   4.871  18.783  0.00  0.00    +0.000 A 
ENDBRANCH  25  26
ENDBRANCH  22  25
ENDBRANCH   1  23
TORSDOF 3
ENDMDL
