MODEL 1
REMARK VINA RESULT:      -8.2      0.000      0.000
REMARK  Name = 
REMARK  7 active torsions:
REMARK  status: ('A' for Active; 'I' for Inactive)
REMARK    1  A    between atoms: C_1  and  C_2
REMARK    2  A    between atoms: C_4  and  C_5
REMARK    3  A    between atoms: C_8  and  C_9
REMARK    4  A    between atoms: C_10  and  O_11
REMARK    5  A    between atoms: O_11  and  C_12
REMARK    6  A    between atoms: N_15  and  C_16
REMARK    7  A    between atoms: C_19  and  C_20
REMARK                            x       y       z     vdW  Elec       q    Type
REMARK                         _______ _______ _______ _____ _____    ______ ____
ROOT
ATOM      1  C   UNL     1       4.030   4.657  19.492  0.00  0.00    +0.000 A 
ATOM      2  N   UNL     1       3.974   6.005  19.417  0.00  0.00    +0.000 NA
ATOM      3  C   UNL     1       2.776   6.582  19.648  0.00  0.00    +0.000 A 
ATOM      4  N   UNL     1       2.693   7.957  19.431  0.00  0.00    +0.000 N 
ATOM      5  N   UNL     1       1.683   5.907  20.047  0.00  0.00    +0.000 NA
ATOM      6  C   UNL     1       1.819   4.591  20.182  0.00  0.00    +0.000 A 
ATOM      7  C   UNL     1       2.971   3.904  19.911  0.00  0.00    +0.000 A 
ATOM      8  C   UNL     1       2.826   2.456  20.211  0.00  0.00    +0.000 C 
ATOM      9  C   UNL     1       1.295   2.316  20.289  0.00  0.00    +0.000 C 
ATOM     10  C   UNL     1       0.747   3.685  20.710  0.00  0.00    +0.000 C 
ATOM     11  H   UNL     1       3.608   8.332  19.221  0.00  0.00    +0.000 HD
ENDROOT
BRANCH   4  12
ATOM     12  C   UNL     1       1.583   8.774  19.171  0.00  0.00    +0.000 A 
ATOM     13  C   UNL     1       1.073   8.988  17.880  0.00  0.00    +0.000 A 
ATOM     14  C   UNL     1      -0.085   9.740  17.658  0.00  0.00    +0.000 A 
ATOM     15  C   UNL     1      -0.771  10.292  18.738  0.00  0.00    +0.000 A 
ATOM     16  C   UNL     1      -0.279  10.085  20.021  0.00  0.00    +0.000 A 
ATOM     17  F   UNL     1      -0.925  10.597  21.083  0.00  0.00    +0.000 F 
ATOM     18  C   UNL     1       0.876   9.335  20.244  0.00  0.00    +0.000 A 
BRANCH  15  19
ATOM     19  C   UNL     1      -1.962  11.051  18.519  0.00  0.00    +0.000 C 
ATOM     20  N   UNL     1      -2.943  11.657  18.387  0.00  0.00    +0.000 NA
ENDBRANCH  15  19
ENDBRANCH   4  12
BRANCH   1  21
ATOM     21  O   UNL     1       5.183   3.965  19.163  0.00  0.00    +0.000 OA
BRANCH  21  29
ATOM     22  C   UNL     1       7.708   5.744  18.969  0.00  0.00    +0.000 C 
ATOM     23  C   UNL     1       6.986   5.048  17.845  0.00  0.00    +0.000 A 
ATOM     24  C   UNL     1       7.445   5.347  16.544  0.00  0.00    +0.000 A 
ATOM     25  C   UNL     1       6.807   4.845  15.408  0.00  0.00    +0.000 A 
ATOM     26  C   UNL     1       5.696   4.023  15.551  0.00  0.00    +0.000 A 
ATOM     27  C   UNL     1       5.210   3.699  16.827  0.00  0.00    +0.000 A 
ATOM     28  C   UNL     1       3.982   2.829  16.923  0.00  0.00    +0.000 C 
ATOM     29  C   UNL     1       5.859   4.205  17.984  0.00  0.00    +0.000 A 
BRANCH  25  30
ATOM     30  C   UNL     1       7.289   5.186  14.109  0.00  0.00    +0.000 C 
ATOM     31  N   UNL     1       7.684   5.465  13.053  0.00  0.00    +0.000 NA
ENDBRANCH  25  30
ENDBRANCH  21  29
ENDBRANCH   1  21
TORSDOF 5
ENDMDL
MODEL 2
REMARK VINA RESULT:      -8.1      1.031      2.090
REMARK  Name = 
REMARK  7 active torsions:
REMARK  status: ('A' for Active; 'I' for Inactive)
REMARK    1  A    between atoms: C_1  and  C_2
REMARK    2  A    between atoms: C_4  and  C_5
REMARK    3  A    between atoms: C_8  and  C_9
REMARK    4  A    between atoms: C_10  and  O_11
REMARK    5  A    between atoms: O_11  and  C_12
REMARK    6  A    between atoms: N_15  and  C_16
REMARK    7  A    between atoms: C_19  and  C_20
REMARK                            x       y       z     vdW  Elec       q    Type
REMARK                         _______ _______ _______ _____ _____    ______ ____
ROOT
ATOM      1  C   UNL     1       4.008   5.261  19.280  0.00  0.00    +0.000 A 
ATOM      2  N   UNL     1       3.792   6.594  19.226  0.00  0.00    +0.000 NA
ATOM      3  C   UNL     1       2.584   7.036  19.637  0.00  0.00    +0.000 A 
ATOM      4  N   UNL     1       2.318   8.392  19.447  0.00  0.00    +0.000 N 
ATOM      5  N   UNL     1       1.645   6.247  20.187  0.00  0.00    +0.000 NA
ATOM      6  C   UNL     1       1.944   4.955  20.289  0.00  0.00    +0.000 A 
ATOM      7  C   UNL     1       3.113   4.398  19.845  0.00  0.00    +0.000 A 
ATOM      8  C   UNL     1       3.176   2.946  20.150  0.00  0.00    +0.000 C 
ATOM      9  C   UNL     1       1.698   2.636  20.452  0.00  0.00    +0.000 C 
ATOM     10  C   UNL     1       1.070   3.940  20.963  0.00  0.00    +0.000 C 
ATOM     11  H   UNL     1       3.144   8.864  19.107  0.00  0.00    +0.000 HD
ENDROOT
BRANCH   4  12
ATOM     12  C   UNL     1       1.098   9.078  19.361  0.00  0.00    +0.000 A 
ATOM     13  C   UNL     1       0.500   9.718  20.459  0.00  0.00    +0.000 A 
ATOM     14  C   UNL     1      -0.675  10.466  20.328  0.00  0.00    +0.000 A 
ATOM     15  C   UNL     1      -1.277  10.598  19.078  0.00  0.00    +0.000 A 
ATOM     16  C   UNL     1      -0.693   9.973  17.983  0.00  0.00    +0.000 A 
ATOM     17  F   UNL     1      -1.246  10.090  16.764  0.00  0.00    +0.000 F 
ATOM     18  C   UNL     1       0.479   9.226  18.113  0.00  0.00    +0.000 A 
BRANCH  15  19
ATOM     19  C   UNL     1      -2.471  11.371  18.935  0.00  0.00    +0.000 C 
ATOM     20  N   UNL     1      -3.460  11.973  18.855  0.00  0.00    +0.000 NA
ENDBRANCH  15  19
ENDBRANCH   4  12
BRANCH   1  21
ATOM     21  O   UNL     1       5.169   4.699  18.778  0.00  0.00    +0.000 OA
BRANCH  21  29
ATOM     22  C   UNL     1       3.516   3.403  16.506  0.00  0.00    +0.000 C 
ATOM     23  C   UNL     1       4.799   4.181  16.379  0.00  0.00    +0.000 A 
ATOM     24  C   UNL     1       5.372   4.210  15.090  0.00  0.00    +0.000 A 
ATOM     25  C   UNL     1       6.608   4.816  14.850  0.00  0.00    +0.000 A 
ATOM     26  C   UNL     1       7.295   5.413  15.899  0.00  0.00    +0.000 A 
ATOM     27  C   UNL     1       6.757   5.408  17.196  0.00  0.00    +0.000 A 
ATOM     28  C   UNL     1       7.561   6.042  18.303  0.00  0.00    +0.000 C 
ATOM     29  C   UNL     1       5.500   4.796  17.442  0.00  0.00    +0.000 A 
BRANCH  25  30
ATOM     30  C   UNL     1       7.163   4.808  13.536  0.00  0.00    +0.000 C 
ATOM     31  N   UNL     1       7.612   4.803  12.465  0.00  0.00    +0.000 NA
ENDBRANCH  25  30
ENDBRANCH  21  29
ENDBRANCH   1  21
TORSDOF 5
ENDMDL
MODEL 3
REMARK VINA RESULT:      -7.9      0.743      1.761
REMARK  Name = 
REMARK  7 active torsions:
REMARK  status: ('A' for Active; 'I' for Inactive)
REMARK    1  A    between atoms: C_1  and  C_2
REMARK    2  A    between atoms: C_4  and  C_5
REMARK    3  A    between atoms: C_8  and  C_9
REMARK    4  A    between atoms: C_10  and  O_11
REMARK    5  A    between atoms: O_11  and  C_12
REMARK    6  A    between atoms: N_15  and  C_16
REMARK    7  A    between atoms: C_19  and  C_20
REMARK                            x       y       z     vdW  Elec       q    Type
REMARK                         _______ _______ _______ _____ _____    ______ ____
ROOT
ATOM      1  C   UNL     1       3.969   5.343  19.109  0.00  0.00    +0.000 A 
ATOM      2  N   UNL     1       3.801   6.681  19.017  0.00  0.00    +0.000 NA
ATOM      3  C   UNL     1       2.605   7.176  19.400  0.00  0.00    +0.000 A 
ATOM      4  N   UNL     1       2.389   8.534  19.171  0.00  0.00    +0.000 N 
ATOM      5  N   UNL     1       1.631   6.435  19.958  0.00  0.00    +0.000 NA
ATOM      6  C   UNL     1       1.884   5.136  20.098  0.00  0.00    +0.000 A 
ATOM      7  C   UNL     1       3.037   4.528  19.684  0.00  0.00    +0.000 A 
ATOM      8  C   UNL     1       3.045   3.083  20.028  0.00  0.00    +0.000 C 
ATOM      9  C   UNL     1       1.554   2.833  20.318  0.00  0.00    +0.000 C 
ATOM     10  C   UNL     1       0.966   4.171  20.785  0.00  0.00    +0.000 C 
ATOM     11  H   UNL     1       3.235   8.968  18.830  0.00  0.00    +0.000 HD
ENDROOT
BRANCH   4  12
ATOM     12  C   UNL     1       1.195   9.260  19.051  0.00  0.00    +0.000 A 
ATOM     13  C   UNL     1       0.485   9.376  17.845  0.00  0.00    +0.000 A 
ATOM     14  C   UNL     1      -0.746  10.036  17.772  0.00  0.00    +0.000 A 
ATOM     15  C   UNL     1      -1.304  10.592  18.921  0.00  0.00    +0.000 A 
ATOM     16  C   UNL     1      -0.614  10.481  20.123  0.00  0.00    +0.000 A 
ATOM     17  F   UNL     1      -1.131  10.999  21.250  0.00  0.00    +0.000 F 
ATOM     18  C   UNL     1       0.615   9.823  20.196  0.00  0.00    +0.000 A 
BRANCH  15  19
ATOM     19  C   UNL     1      -2.567  11.256  18.857  0.00  0.00    +0.000 C 
ATOM     20  N   UNL     1      -3.615  11.752  18.801  0.00  0.00    +0.000 NA
ENDBRANCH  15  19
ENDBRANCH   4  12
BRANCH   1  21
ATOM     21  O   UNL     1       5.116   4.728  18.638  0.00  0.00    +0.000 OA
BRANCH  21  29
ATOM     22  C   UNL     1       3.502   3.341  16.391  0.00  0.00    +0.000 C 
ATOM     23  C   UNL     1       4.784   4.120  16.254  0.00  0.00    +0.000 A 
ATOM     24  C   UNL     1       5.376   4.104  14.973  0.00  0.00    +0.000 A 
ATOM     25  C   UNL     1       6.613   4.706  14.730  0.00  0.00    +0.000 A 
ATOM     26  C   UNL     1       7.282   5.345  15.766  0.00  0.00    +0.000 A 
ATOM     27  C   UNL     1       6.725   5.385  17.054  0.00  0.00    +0.000 A 
ATOM     28  C   UNL     1       7.510   6.063  18.149  0.00  0.00    +0.000 C 
ATOM     29  C   UNL     1       5.467   4.777  17.304  0.00  0.00    +0.000 A 
BRANCH  25  30
ATOM     30  C   UNL     1       7.188   4.653  13.425  0.00  0.00    +0.000 C 
ATOM     31  N   UNL     1       7.657   4.610  12.363  0.00  0.00    +0.000 NA
ENDBRANCH  25  30
ENDBRANCH  21  29
ENDBRANCH   1  21
TORSDOF 5
ENDMDL
MODEL 4
REMARK VINA RESULT:      -7.7      3.498      9.477
REMARK  Name = 
REMARK  7 active torsions:
REMARK  status: ('A' for Active; 'I' for Inactive)
REMARK    1  A    between atoms: C_1  and  C_2
REMARK    2  A    between atoms: C_4  and  C_5
REMARK    3  A    between atoms: C_8  and  C_9
REMARK    4  A    between atoms: C_10  and  O_11
REMARK    5  A    between atoms: O_11  and  C_12
REMARK    6  A    between atoms: N_15  and  C_16
REMARK    7  A    between atoms: C_19  and  C_20
REMARK                            x       y       z     vdW  Elec       q    Type
REMARK                         _______ _______ _______ _____ _____    ______ ____
ROOT
ATOM      1  C   UNL     1       0.317  10.197  19.023  0.00  0.00    +0.000 A 
ATOM      2  N   UNL     1       0.973   9.502  18.068  0.00  0.00    +0.000 NA
ATOM      3  C   UNL     1       1.756   8.483  18.480  0.00  0.00    +0.000 A 
ATOM      4  N   UNL     1       2.537   7.862  17.506  0.00  0.00    +0.000 N 
ATOM      5  N   UNL     1       1.830   8.064  19.756  0.00  0.00    +0.000 NA
ATOM      6  C   UNL     1       1.099   8.735  20.642  0.00  0.00    +0.000 A 
ATOM      7  C   UNL     1       0.324   9.820  20.336  0.00  0.00    +0.000 A 
ATOM      8  C   UNL     1      -0.413  10.318  21.525  0.00  0.00    +0.000 C 
ATOM      9  C   UNL     1       0.367   9.640  22.668  0.00  0.00    +0.000 C 
ATOM     10  C   UNL     1       0.974   8.357  22.087  0.00  0.00    +0.000 C 
ATOM     11  H   UNL     1       2.309   8.227  16.592  0.00  0.00    +0.000 HD
ENDROOT
BRANCH   4  12
ATOM     12  C   UNL     1       3.710   7.103  17.626  0.00  0.00    +0.000 A 
ATOM     13  C   UNL     1       3.710   5.736  17.948  0.00  0.00    +0.000 A 
ATOM     14  C   UNL     1       4.889   4.984  17.979  0.00  0.00    +0.000 A 
ATOM     15  C   UNL     1       6.106   5.590  17.674  0.00  0.00    +0.000 A 
ATOM     16  C   UNL     1       6.120   6.941  17.350  0.00  0.00    +0.000 A 
ATOM     17  F   UNL     1       7.278   7.550  17.042  0.00  0.00    +0.000 F 
ATOM     18  C   UNL     1       4.944   7.693  17.319  0.00  0.00    +0.000 A 
BRANCH  15  19
ATOM     19  C   UNL     1       7.313   4.824  17.692  0.00  0.00    +0.000 C 
ATOM     20  N   UNL     1       8.272   4.173  17.739  0.00  0.00    +0.000 NA
ENDBRANCH  15  19
ENDBRANCH   4  12
BRANCH   1  21
ATOM     21  O   UNL     1      -0.421  11.327  18.713  0.00  0.00    +0.000 OA
BRANCH  21  29
ATOM     22  C   UNL     1      -1.921   9.638  16.598  0.00  0.00    +0.000 C 
ATOM     23  C   UNL     1      -2.518  10.565  17.624  0.00  0.00    +0.000 A 
ATOM     24  C   UNL     1      -3.908  10.779  17.521  0.00  0.00    +0.000 A 
ATOM     25  C   UNL     1      -4.574  11.686  18.349  0.00  0.00    +0.000 A 
ATOM     26  C   UNL     1      -3.859  12.395  19.305  0.00  0.00    +0.000 A 
ATOM     27  C   UNL     1      -2.475  12.209  19.442  0.00  0.00    +0.000 A 
ATOM     28  C   UNL     1      -1.743  13.030  20.474  0.00  0.00    +0.000 C 
ATOM     29  C   UNL     1      -1.796  11.285  18.604  0.00  0.00    +0.000 A 
BRANCH  25  30
ATOM     30  C   UNL     1      -5.979  11.888  18.201  0.00  0.00    +0.000 C 
ATOM     31  N   UNL     1      -7.122  12.054  18.081  0.00  0.00    +0.000 NA
ENDBRANCH  25  30
ENDBRANCH  21  29
ENDBRANCH   1  21
TORSDOF 5
ENDMDL
MODEL 5
REMARK VINA RESULT:      -7.6      4.307     11.121
REMARK  Name = 
REMARK  7 active torsions:
REMARK  status: ('A' for Active; 'I' for Inactive)
REMARK    1  A    between atoms: C_1  and  C_2
REMARK    2  A    between atoms: C_4  and  C_5
REMARK    3  A    between atoms: C_8  and  C_9
REMARK    4  A    between atoms: C_10  and  O_11
REMARK    5  A    between atoms: O_11  and  C_12
REMARK    6  A    between atoms: N_15  and  C_16
REMARK    7  A    between atoms: C_19  and  C_20
REMARK                            x       y       z     vdW  Elec       q    Type
REMARK                         _______ _______ _______ _____ _____    ______ ____
ROOT
ATOM      1  C   UNL     1      -2.830  11.903  18.340  0.00  0.00    +0.000 A 
ATOM      2  N   UNL     1      -1.701  11.708  19.056  0.00  0.00    +0.000 NA
ATOM      3  C   UNL     1      -0.873  10.728  18.639  0.00  0.00    +0.000 A 
ATOM      4  N   UNL     1       0.216  10.438  19.460  0.00  0.00    +0.000 N 
ATOM      5  N   UNL     1      -1.056  10.022  17.508  0.00  0.00    +0.000 NA
ATOM      6  C   UNL     1      -2.144  10.314  16.800  0.00  0.00    +0.000 A 
ATOM      7  C   UNL     1      -3.077  11.244  17.170  0.00  0.00    +0.000 A 
ATOM      8  C   UNL     1      -4.146  11.381  16.149  0.00  0.00    +0.000 C 
ATOM      9  C   UNL     1      -3.945  10.094  15.327  0.00  0.00    +0.000 C 
ATOM     10  C   UNL     1      -2.467   9.708  15.467  0.00  0.00    +0.000 C 
ATOM     11  H   UNL     1       0.266  11.103  20.219  0.00  0.00    +0.000 HD
ENDROOT
BRANCH   4  12
ATOM     12  C   UNL     1       0.998   9.278  19.563  0.00  0.00    +0.000 A 
ATOM     13  C   UNL     1       0.967   8.429  20.682  0.00  0.00    +0.000 A 
ATOM     14  C   UNL     1       1.694   7.235  20.724  0.00  0.00    +0.000 A 
ATOM     15  C   UNL     1       2.467   6.856  19.629  0.00  0.00    +0.000 A 
ATOM     16  C   UNL     1       2.503   7.684  18.514  0.00  0.00    +0.000 A 
ATOM     17  F   UNL     1       3.233   7.339  17.439  0.00  0.00    +0.000 F 
ATOM     18  C   UNL     1       1.779   8.876  18.471  0.00  0.00    +0.000 A 
BRANCH  15  19
ATOM     19  C   UNL     1       3.202   5.630  19.660  0.00  0.00    +0.000 C 
ATOM     20  N   UNL     1       3.838   4.660  19.703  0.00  0.00    +0.000 NA
ENDBRANCH  15  19
ENDBRANCH   4  12
BRANCH   1  21
ATOM     21  O   UNL     1      -3.796  12.807  18.751  0.00  0.00    +0.000 OA
BRANCH  21  29
ATOM     22  C   UNL     1      -6.342  11.056  18.575  0.00  0.00    +0.000 C 
ATOM     23  C   UNL     1      -5.815  11.791  19.779  0.00  0.00    +0.000 A 
ATOM     24  C   UNL     1      -6.647  11.777  20.918  0.00  0.00    +0.000 A 
ATOM     25  C   UNL     1      -6.324  12.496  22.072  0.00  0.00    +0.000 A 
ATOM     26  C   UNL     1      -5.152  13.240  22.111  0.00  0.00    +0.000 A 
ATOM     27  C   UNL     1      -4.295  13.278  21.000  0.00  0.00    +0.000 A 
ATOM     28  C   UNL     1      -3.053  14.128  21.086  0.00  0.00    +0.000 C 
ATOM     29  C   UNL     1      -4.619  12.545  19.828  0.00  0.00    +0.000 A 
BRANCH  25  30
ATOM     30  C   UNL     1      -7.202  12.472  23.196  0.00  0.00    +0.000 C 
ATOM     31  N   UNL     1      -7.916  12.455  24.111  0.00  0.00    +0.000 NA
ENDBRANCH  25  30
ENDBRANCH  21  29
ENDBRANCH   1  21
TORSDOF 5
ENDMDL
MODEL 6
REMARK VINA RESULT:      -7.4      3.706      9.854
REMARK  Name = 
REMARK  7 active torsions:
REMARK  status: ('A' for Active; 'I' for Inactive)
REMARK    1  A    between atoms: C_1  and  C_2
REMARK    2  A    between atoms: C_4  and  C_5
REMARK    3  A    between atoms: C_8  and  C_9
REMARK    4  A    between atoms: C_10  and  O_11
REMARK    5  A    between atoms: O_11  and  C_12
REMARK    6  A    between atoms: N_15  and  C_16
REMARK    7  A    between atoms: C_19  and  C_20
REMARK                            x       y       z     vdW  Elec       q    Type
REMARK                         _______ _______ _______ _____ _____    ______ ____
ROOT
ATOM      1  C   UNL     1       0.167  11.417  19.414  0.00  0.00    +0.000 A 
ATOM      2  N   UNL     1       1.327  10.725  19.400  0.00  0.00    +0.000 NA
ATOM      3  C   UNL     1       1.370   9.616  18.633  0.00  0.00    +0.000 A 
ATOM      4  N   UNL     1       2.519   8.831  18.733  0.00  0.00    +0.000 N 
ATOM      5  N   UNL     1       0.374   9.232  17.814  0.00  0.00    +0.000 NA
ATOM      6  C   UNL     1      -0.713   9.997  17.808  0.00  0.00    +0.000 A 
ATOM      7  C   UNL     1      -0.880  11.104  18.595  0.00  0.00    +0.000 A 
ATOM      8  C   UNL     1      -2.175  11.778  18.322  0.00  0.00    +0.000 C 
ATOM      9  C   UNL     1      -2.939  10.671  17.572  0.00  0.00    +0.000 C 
ATOM     10  C   UNL     1      -1.883   9.789  16.893  0.00  0.00    +0.000 C 
ATOM     11  H   UNL     1       3.204   9.290  19.315  0.00  0.00    +0.000 HD
ENDROOT
BRANCH   4  12
ATOM     12  C   UNL     1       2.727   7.476  18.433  0.00  0.00    +0.000 A 
ATOM     13  C   UNL     1       3.699   7.033  17.522  0.00  0.00    +0.000 A 
ATOM     14  C   UNL     1       3.942   5.673  17.304  0.00  0.00    +0.000 A 
ATOM     15  C   UNL     1       3.214   4.717  18.010  0.00  0.00    +0.000 A 
ATOM     16  C   UNL     1       2.252   5.142  18.918  0.00  0.00    +0.000 A 
ATOM     17  F   UNL     1       1.542   4.243  19.620  0.00  0.00    +0.000 F 
ATOM     18  C   UNL     1       2.008   6.499  19.136  0.00  0.00    +0.000 A 
BRANCH  15  19
ATOM     19  C   UNL     1       3.466   3.326  17.801  0.00  0.00    +0.000 C 
ATOM     20  N   UNL     1       3.688   2.193  17.678  0.00  0.00    +0.000 NA
ENDBRANCH  15  19
ENDBRANCH   4  12
BRANCH   1  21
ATOM     21  O   UNL     1      -0.014  12.504  20.253  0.00  0.00    +0.000 OA
BRANCH  21  29
ATOM     22  C   UNL     1      -0.022  10.157  22.270  0.00  0.00    +0.000 C 
ATOM     23  C   UNL     1      -0.920  11.365  22.264  0.00  0.00    +0.000 A 
ATOM     24  C   UNL     1      -1.963  11.357  23.214  0.00  0.00    +0.000 A 
ATOM     25  C   UNL     1      -2.925  12.370  23.257  0.00  0.00    +0.000 A 
ATOM     26  C   UNL     1      -2.857  13.419  22.349  0.00  0.00    +0.000 A 
ATOM     27  C   UNL     1      -1.833  13.466  21.390  0.00  0.00    +0.000 A 
ATOM     28  C   UNL     1      -1.827  14.611  20.408  0.00  0.00    +0.000 C 
ATOM     29  C   UNL     1      -0.853  12.440  21.347  0.00  0.00    +0.000 A 
BRANCH  25  30
ATOM     30  C   UNL     1      -3.975  12.317  24.221  0.00  0.00    +0.000 C 
ATOM     31  N   UNL     1      -4.831  12.273  25.004  0.00  0.00    +0.000 NA
ENDBRANCH  25  30
ENDBRANCH  21  29
ENDBRANCH   1  21
TORSDOF 5
ENDMDL
MODEL 7
REMARK VINA RESULT:      -7.4      0.906      1.261
REMARK  Name = 
REMARK  7 active torsions:
REMARK  status: ('A' for Active; 'I' for Inactive)
REMARK    1  A    between atoms: C_1  and  C_2
REMARK    2  A    between atoms: C_4  and  C_5
REMARK    3  A    between atoms: C_8  and  C_9
REMARK    4  A    between atoms: C_10  and  O_11
REMARK    5  A    between atoms: O_11  and  C_12
REMARK    6  A    between atoms: N_15  and  C_16
REMARK    7  A    between atoms: C_19  and  C_20
REMARK                            x       y       z     vdW  Elec       q    Type
REMARK                         _______ _______ _______ _____ _____    ______ ____
ROOT
ATOM      1  C   UNL     1       3.934   4.401  19.614  0.00  0.00    +0.000 A 
ATOM      2  N   UNL     1       3.883   5.737  19.808  0.00  0.00    +0.000 NA
ATOM      3  C   UNL     1       2.667   6.276  20.042  0.00  0.00    +0.000 A 
ATOM      4  N   UNL     1       2.602   7.668  20.100  0.00  0.00    +0.000 N 
ATOM      5  N   UNL     1       1.544   5.553  20.196  0.00  0.00    +0.000 NA
ATOM      6  C   UNL     1       1.669   4.234  20.074  0.00  0.00    +0.000 A 
ATOM      7  C   UNL     1       2.842   3.597  19.775  0.00  0.00    +0.000 A 
ATOM      8  C   UNL     1       2.674   2.121  19.762  0.00  0.00    +0.000 C 
ATOM      9  C   UNL     1       1.142   1.993  19.672  0.00  0.00    +0.000 C 
ATOM     10  C   UNL     1       0.555   3.259  20.310  0.00  0.00    +0.000 C 
ATOM     11  H   UNL     1       3.531   8.062  20.053  0.00  0.00    +0.000 HD
ENDROOT
BRANCH   4  12
ATOM     12  C   UNL     1       1.519   8.539  19.912  0.00  0.00    +0.000 A 
ATOM     13  C   UNL     1       0.853   9.175  20.972  0.00  0.00    +0.000 A 
ATOM     14  C   UNL     1      -0.170  10.102  20.752  0.00  0.00    +0.000 A 
ATOM     15  C   UNL     1      -0.545  10.424  19.449  0.00  0.00    +0.000 A 
ATOM     16  C   UNL     1       0.109   9.806  18.390  0.00  0.00    +0.000 A 
ATOM     17  F   UNL     1      -0.225  10.104  17.123  0.00  0.00    +0.000 F 
ATOM     18  C   UNL     1       1.129   8.879  18.609  0.00  0.00    +0.000 A 
BRANCH  15  19
ATOM     19  C   UNL     1      -1.581  11.381  19.217  0.00  0.00    +0.000 C 
ATOM     20  N   UNL     1      -2.456  12.123  19.036  0.00  0.00    +0.000 NA
ENDBRANCH  15  19
ENDBRANCH   4  12
BRANCH   1  21
ATOM     21  O   UNL     1       5.114   3.770  19.257  0.00  0.00    +0.000 OA
BRANCH  21  29
ATOM     22  C   UNL     1       7.527   5.704  19.148  0.00  0.00    +0.000 C 
ATOM     23  C   UNL     1       6.858   5.006  17.994  0.00  0.00    +0.000 A 
ATOM     24  C   UNL     1       7.307   5.378  16.710  0.00  0.00    +0.000 A 
ATOM     25  C   UNL     1       6.708   4.879  15.550  0.00  0.00    +0.000 A 
ATOM     26  C   UNL     1       5.649   3.987  15.654  0.00  0.00    +0.000 A 
ATOM     27  C   UNL     1       5.174   3.589  16.913  0.00  0.00    +0.000 A 
ATOM     28  C   UNL     1       4.000   2.644  16.967  0.00  0.00    +0.000 C 
ATOM     29  C   UNL     1       5.782   4.092  18.093  0.00  0.00    +0.000 A 
BRANCH  25  30
ATOM     30  C   UNL     1       7.179   5.294  14.269  0.00  0.00    +0.000 C 
ATOM     31  N   UNL     1       7.564   5.634  13.227  0.00  0.00    +0.000 NA
ENDBRANCH  25  30
ENDBRANCH  21  29
ENDBRANCH   1  21
TORSDOF 5
ENDMDL
MODEL 8
REMARK VINA RESULT:      -7.4      3.467      9.477
REMARK  Name = 
REMARK  7 active torsions:
REMARK  status: ('A' for Active; 'I' for Inactive)
REMARK    1  A    between atoms: C_1  and  C_2
REMARK    2  A    between atoms: C_4  and  C_5
REMARK    3  A    between atoms: C_8  and  C_9
REMARK    4  A    between atoms: C_10  and  O_11
REMARK    5  A    between atoms: O_11  and  C_12
REMARK    6  A    between atoms: N_15  and  C_16
REMARK    7  A    between atoms: C_19  and  C_20
REMARK                            x       y       z     vdW  Elec       q    Type
REMARK                         _______ _______ _______ _____ _____    ______ ____
ROOT
ATOM      1  C   UNL     1       0.240  10.270  19.090  0.00  0.00    +0.000 A 
ATOM      2  N   UNL     1       0.862   9.588  18.103  0.00  0.00    +0.000 NA
ATOM      3  C   UNL     1       1.663   8.567  18.474  0.00  0.00    +0.000 A 
ATOM      4  N   UNL     1       2.410   7.960  17.465  0.00  0.00    +0.000 N 
ATOM      5  N   UNL     1       1.786   8.134  19.741  0.00  0.00    +0.000 NA
ATOM      6  C   UNL     1       1.087   8.792  20.661  0.00  0.00    +0.000 A 
ATOM      7  C   UNL     1       0.297   9.878  20.397  0.00  0.00    +0.000 A 
ATOM      8  C   UNL     1      -0.397  10.359  21.619  0.00  0.00    +0.000 C 
ATOM      9  C   UNL     1       0.427   9.672  22.724  0.00  0.00    +0.000 C 
ATOM     10  C   UNL     1       1.017   8.397  22.106  0.00  0.00    +0.000 C 
ATOM     11  H   UNL     1       2.146   8.335  16.564  0.00  0.00    +0.000 HD
ENDROOT
BRANCH   4  12
ATOM     12  C   UNL     1       3.589   7.205  17.532  0.00  0.00    +0.000 A 
ATOM     13  C   UNL     1       4.726   7.486  16.756  0.00  0.00    +0.000 A 
ATOM     14  C   UNL     1       5.917   6.768  16.903  0.00  0.00    +0.000 A 
ATOM     15  C   UNL     1       5.999   5.748  17.849  0.00  0.00    +0.000 A 
ATOM     16  C   UNL     1       4.883   5.462  18.626  0.00  0.00    +0.000 A 
ATOM     17  F   UNL     1       4.936   4.490  19.552  0.00  0.00    +0.000 F 
ATOM     18  C   UNL     1       3.694   6.177  18.480  0.00  0.00    +0.000 A 
BRANCH  15  19
ATOM     19  C   UNL     1       7.218   5.018  18.013  0.00  0.00    +0.000 C 
ATOM     20  N   UNL     1       8.181   4.388  18.162  0.00  0.00    +0.000 NA
ENDBRANCH  15  19
ENDBRANCH   4  12
BRANCH   1  21
ATOM     21  O   UNL     1      -0.513  11.400  18.820  0.00  0.00    +0.000 OA
BRANCH  21  29
ATOM     22  C   UNL     1      -2.082   9.694  16.770  0.00  0.00    +0.000 C 
ATOM     23  C   UNL     1      -2.645  10.626  17.811  0.00  0.00    +0.000 A 
ATOM     24  C   UNL     1      -4.039  10.836  17.757  0.00  0.00    +0.000 A 
ATOM     25  C   UNL     1      -4.678  11.746  18.602  0.00  0.00    +0.000 A 
ATOM     26  C   UNL     1      -3.931  12.463  19.528  0.00  0.00    +0.000 A 
ATOM     27  C   UNL     1      -2.542  12.282  19.616  0.00  0.00    +0.000 A 
ATOM     28  C   UNL     1      -1.777  13.111  20.617  0.00  0.00    +0.000 C 
ATOM     29  C   UNL     1      -1.891  11.355  18.761  0.00  0.00    +0.000 A 
BRANCH  25  30
ATOM     30  C   UNL     1      -6.087  11.943  18.503  0.00  0.00    +0.000 C 
ATOM     31  N   UNL     1      -7.235  12.104  18.425  0.00  0.00    +0.000 NA
ENDBRANCH  25  30
ENDBRANCH  21  29
ENDBRANCH   1  21
TORSDOF 5
ENDMDL
MODEL 9
REMARK VINA RESULT:      -7.3      3.902     10.147
REMARK  Name = 
REMARK  7 active torsions:
REMARK  status: ('A' for Active; 'I' for Inactive)
REMARK    1  A    between atoms: C_1  and  C_2
REMARK    2  A    between atoms: C_4  and  C_5
REMARK    3  A    between atoms: C_8  and  C_9
REMARK    4  A    between atoms: C_10  and  O_11
REMARK    5  A    between atoms: O_11  and  C_12
REMARK    6  A    between atoms: N_15  and  C_16
REMARK    7  A    between atoms: C_19  and  C_20
REMARK                            x       y       z     vdW  Elec       q    Type
REMARK                         _______ _______ _______ _____ _____    ______ ____
ROOT
ATOM      1  C   UNL     1       0.056  11.469  20.082  0.00  0.00    +0.000 A 
ATOM      2  N   UNL     1       1.071  10.600  20.282  0.00  0.00    +0.000 NA
ATOM      3  C   UNL     1       1.089   9.490  19.514  0.00  0.00    +0.000 A 
ATOM      4  N   UNL     1       2.055   8.532  19.821  0.00  0.00    +0.000 N 
ATOM      5  N   UNL     1       0.227   9.263  18.506  0.00  0.00    +0.000 NA
ATOM      6  C   UNL     1      -0.702  10.192  18.303  0.00  0.00    +0.000 A 
ATOM      7  C   UNL     1      -0.844  11.319  19.066  0.00  0.00    +0.000 A 
ATOM      8  C   UNL     1      -1.936  12.188  18.558  0.00  0.00    +0.000 C 
ATOM      9  C   UNL     1      -2.701  11.211  17.646  0.00  0.00    +0.000 C 
ATOM     10  C   UNL     1      -1.684  10.165  17.170  0.00  0.00    +0.000 C 
ATOM     11  H   UNL     1       2.675   8.882  20.538  0.00  0.00    +0.000 HD
ENDROOT
BRANCH   4  12
ATOM     12  C   UNL     1       2.101   7.160  19.538  0.00  0.00    +0.000 A 
ATOM     13  C   UNL     1       2.633   6.639  18.347  0.00  0.00    +0.000 A 
ATOM     14  C   UNL     1       2.742   5.263  18.126  0.00  0.00    +0.000 A 
ATOM     15  C   UNL     1       2.326   4.368  19.109  0.00  0.00    +0.000 A 
ATOM     16  C   UNL     1       1.801   4.869  20.294  0.00  0.00    +0.000 A 
ATOM     17  F   UNL     1       1.400   4.030  21.264  0.00  0.00    +0.000 F 
ATOM     18  C   UNL     1       1.691   6.243  20.516  0.00  0.00    +0.000 A 
BRANCH  15  19
ATOM     19  C   UNL     1       2.447   2.959  18.895  0.00  0.00    +0.000 C 
ATOM     20  N   UNL     1       2.514   1.809  18.759  0.00  0.00    +0.000 NA
ENDBRANCH  15  19
ENDBRANCH   4  12
BRANCH   1  21
ATOM     21  O   UNL     1      -0.113  12.578  20.893  0.00  0.00    +0.000 OA
BRANCH  21  29
ATOM     22  C   UNL     1      -0.865  10.409  22.968  0.00  0.00    +0.000 C 
ATOM     23  C   UNL     1      -1.589  11.698  22.685  0.00  0.00    +0.000 A 
ATOM     24  C   UNL     1      -2.818  11.871  23.356  0.00  0.00    +0.000 A 
ATOM     25  C   UNL     1      -3.637  12.977  23.114  0.00  0.00    +0.000 A 
ATOM     26  C   UNL     1      -3.237  13.939  22.197  0.00  0.00    +0.000 A 
ATOM     27  C   UNL     1      -2.021  13.806  21.510  0.00  0.00    +0.000 A 
ATOM     28  C   UNL     1      -1.652  14.864  20.500  0.00  0.00    +0.000 C 
ATOM     29  C   UNL     1      -1.185  12.685  21.756  0.00  0.00    +0.000 A 
BRANCH  25  30
ATOM     30  C   UNL     1      -4.882  13.106  23.800  0.00  0.00    +0.000 C 
ATOM     31  N   UNL     1      -5.894  13.210  24.360  0.00  0.00    +0.000 NA
ENDBRANCH  25  30
ENDBRANCH  21  29
ENDBRANCH   1  21
TORSDOF 5
ENDMDL
