MODEL 1
REMARK VINA RESULT:      -5.5      0.000      0.000
REMARK  Name = 
REMARK  10 active torsions:
REMARK  status: ('A' for Active; 'I' for Inactive)
REMARK    1  A    between atoms: C_1  and  C_2
REMARK    2  A    between atoms: C_2  and  C_3
REMARK    3  A    between atoms: C_3  and  C_4
REMARK    4  A    between atoms: C_3  and  C_5
REMARK    5  A    between atoms: C_3  and  N_14
REMARK    6  A    between atoms: N_7  and  C_8
REMARK    7  A    between atoms: N_14  and  C_15
REMARK    8  A    between atoms: C_15  and  C_16
REMARK    9  A    between atoms: C_21  and  C_23
REMARK   10  A    between atoms: C_26  and  O_27
REMARK                            x       y       z     vdW  Elec       q    Type
REMARK                         _______ _______ _______ _____ _____    ______ ____
ROOT
ATOM      1  N   UNL     1       7.101  14.288  21.494  0.00  0.00    +0.000 N 
ATOM      2  C   UNL     1       7.118  14.861  20.199  0.00  0.00    +0.000 C 
ATOM      3  O   UNL     1       8.137  14.887  19.507  0.00  0.00    +0.000 OA
ENDROOT
BRANCH   2   4
ATOM      4  C   UNL     1       5.918  15.358  19.473  0.00  0.00    +0.000 A 
ATOM      5  C   UNL     1       5.114  14.608  18.616  0.00  0.00    +0.000 A 
ATOM      6  C   UNL     1       4.115  15.253  17.886  0.00  0.00    +0.000 A 
ATOM      7  C   UNL     1       3.917  16.610  18.080  0.00  0.00    +0.000 A 
ATOM      8  N   UNL     1       4.627  17.356  18.947  0.00  0.00    +0.000 NA
ATOM      9  C   UNL     1       5.603  16.712  19.615  0.00  0.00    +0.000 A 
BRANCH   7  10
ATOM     10  O   UNL     1       2.968  17.307  17.388  0.00  0.00    +0.000 OA
ATOM     11  H   UNL     1       3.326  18.191  17.200  0.00  0.00    +0.000 HD
ENDBRANCH   7  10
ENDBRANCH   2   4
BRANCH   1  12
ATOM     12  C   UNL     1       8.433  13.979  22.220  0.00  0.00    +0.000 C 
ATOM     13  C   UNL     1       9.558  15.005  21.942  0.00  0.00    +0.000 C 
BRANCH  12  14
ATOM     14  C   UNL     1       8.956  12.580  21.746  0.00  0.00    +0.000 C 
ATOM     15  O   UNL     1       8.550  11.521  22.223  0.00  0.00    +0.000 OA
ATOM     16  N   UNL     1       9.982  12.633  20.832  0.00  0.00    +0.000 N 
ATOM     17  H   UNL     1      10.128  13.563  20.465  0.00  0.00    +0.000 HD
BRANCH  16  18
ATOM     18  C   UNL     1      10.499  11.530  20.016  0.00  0.00    +0.000 C 
ATOM     19  C   UNL     1       9.547  11.335  18.825  0.00  0.00    +0.000 C 
ATOM     20  C   UNL     1       9.647  12.506  17.844  0.00  0.00    +0.000 C 
ATOM     21  C   UNL     1      11.071  12.656  17.324  0.00  0.00    +0.000 C 
ATOM     22  C   UNL     1      12.077  12.805  18.463  0.00  0.00    +0.000 C 
ATOM     23  C   UNL     1      11.937  11.689  19.497  0.00  0.00    +0.000 C 
ENDBRANCH  16  18
ENDBRANCH  12  14
BRANCH  12  25
ATOM     24  C   UNL     1       8.823  15.035  24.620  0.00  0.00    +0.000 C 
ATOM     25  C   UNL     1       8.308  13.879  23.777  0.00  0.00    +0.000 C 
ENDBRANCH  12  25
ENDBRANCH   1  12
BRANCH   1  26
ATOM     26  C   UNL     1       5.864  13.813  22.165  0.00  0.00    +0.000 C 
BRANCH  26  27
ATOM     27  C   UNL     1       4.840  14.883  22.512  0.00  0.00    +0.000 A 
ATOM     28  C   UNL     1       3.505  15.044  22.174  0.00  0.00    +0.000 A 
ATOM     29  C   UNL     1       2.999  16.338  22.488  0.00  0.00    +0.000 A 
ATOM     30  C   UNL     1       3.906  17.081  23.202  0.00  0.00    +0.000 A 
ATOM     31  S   UNL     1       5.367  16.228  23.463  0.00  0.00    +0.000 S 
ENDBRANCH  26  27
ENDBRANCH   1  26
TORSDOF 8
ENDMDL
MODEL 2
REMARK VINA RESULT:      -5.4      8.973     11.534
REMARK  Name = 
REMARK  10 active torsions:
REMARK  status: ('A' for Active; 'I' for Inactive)
REMARK    1  A    between atoms: C_1  and  C_2
REMARK    2  A    between atoms: C_2  and  C_3
REMARK    3  A    between atoms: C_3  and  C_4
REMARK    4  A    between atoms: C_3  and  C_5
REMARK    5  A    between atoms: C_3  and  N_14
REMARK    6  A    between atoms: N_7  and  C_8
REMARK    7  A    between atoms: N_14  and  C_15
REMARK    8  A    between atoms: C_15  and  C_16
REMARK    9  A    between atoms: C_21  and  C_23
REMARK   10  A    between atoms: C_26  and  O_27
REMARK                            x       y       z     vdW  Elec       q    Type
REMARK                         _______ _______ _______ _____ _____    ______ ____
ROOT
ATOM      1  N   UNL     1      -3.483  11.744  19.076  0.00  0.00    +0.000 N 
ATOM      2  C   UNL     1      -2.868  12.773  19.829  0.00  0.00    +0.000 C 
ATOM      3  O   UNL     1      -1.783  13.261  19.507  0.00  0.00    +0.000 OA
ENDROOT
BRANCH   2   4
ATOM      4  C   UNL     1      -3.494  13.474  20.982  0.00  0.00    +0.000 A 
ATOM      5  C   UNL     1      -3.706  14.849  21.083  0.00  0.00    +0.000 A 
ATOM      6  C   UNL     1      -4.162  15.377  22.292  0.00  0.00    +0.000 A 
ATOM      7  C   UNL     1      -4.444  14.511  23.335  0.00  0.00    +0.000 A 
ATOM      8  N   UNL     1      -4.317  13.172  23.255  0.00  0.00    +0.000 NA
ATOM      9  C   UNL     1      -3.847  12.695  22.087  0.00  0.00    +0.000 A 
BRANCH   7  10
ATOM     10  O   UNL     1      -4.879  14.960  24.549  0.00  0.00    +0.000 OA
ATOM     11  H   UNL     1      -4.099  15.228  25.063  0.00  0.00    +0.000 HD
ENDBRANCH   7  10
ENDBRANCH   2   4
BRANCH   1  12
ATOM     12  C   UNL     1      -2.665  10.962  18.019  0.00  0.00    +0.000 C 
ATOM     13  C   UNL     1      -3.128   9.499  17.817  0.00  0.00    +0.000 C 
BRANCH  12  14
ATOM     14  C   UNL     1      -1.166  10.914  18.473  0.00  0.00    +0.000 C 
ATOM     15  O   UNL     1      -0.259  11.445  17.834  0.00  0.00    +0.000 OA
ATOM     16  N   UNL     1      -0.930  10.138  19.585  0.00  0.00    +0.000 N 
ATOM     17  H   UNL     1      -1.782   9.859  20.052  0.00  0.00    +0.000 HD
BRANCH  16  18
ATOM     18  C   UNL     1       0.290  10.101  20.396  0.00  0.00    +0.000 C 
ATOM     19  C   UNL     1       0.254  11.295  21.363  0.00  0.00    +0.000 C 
ATOM     20  C   UNL     1      -0.822  11.102  22.433  0.00  0.00    +0.000 C 
ATOM     21  C   UNL     1      -0.573   9.826  23.227  0.00  0.00    +0.000 C 
ATOM     22  C   UNL     1      -0.477   8.604  22.318  0.00  0.00    +0.000 C 
ATOM     23  C   UNL     1       0.535   8.809  21.192  0.00  0.00    +0.000 C 
ENDBRANCH  16  18
ENDBRANCH  12  14
BRANCH  12  25
ATOM     24  C   UNL     1      -2.962  10.742  15.395  0.00  0.00    +0.000 C 
ATOM     25  C   UNL     1      -2.656  11.619  16.599  0.00  0.00    +0.000 C 
ENDBRANCH  12  25
ENDBRANCH   1  12
BRANCH   1  26
ATOM     26  C   UNL     1      -4.938  11.450  19.124  0.00  0.00    +0.000 C 
BRANCH  26  27
ATOM     27  C   UNL     1      -5.844  12.443  18.413  0.00  0.00    +0.000 A 
ATOM     28  C   UNL     1      -6.017  12.758  17.074  0.00  0.00    +0.000 A 
ATOM     29  C   UNL     1      -6.772  13.949  16.871  0.00  0.00    +0.000 A 
ATOM     30  C   UNL     1      -7.294  14.428  18.046  0.00  0.00    +0.000 A 
ATOM     31  S   UNL     1      -6.850  13.460  19.385  0.00  0.00    +0.000 S 
ENDBRANCH  26  27
ENDBRANCH   1  26
TORSDOF 8
ENDMDL
MODEL 3
REMARK VINA RESULT:      -5.4      6.308      9.064
REMARK  Name = 
REMARK  10 active torsions:
REMARK  status: ('A' for Active; 'I' for Inactive)
REMARK    1  A    between atoms: C_1  and  C_2
REMARK    2  A    between atoms: C_2  and  C_3
REMARK    3  A    between atoms: C_3  and  C_4
REMARK    4  A    between atoms: C_3  and  C_5
REMARK    5  A    between atoms: C_3  and  N_14
REMARK    6  A    between atoms: N_7  and  C_8
REMARK    7  A    between atoms: N_14  and  C_15
REMARK    8  A    between atoms: C_15  and  C_16
REMARK    9  A    between atoms: C_21  and  C_23
REMARK   10  A    between atoms: C_26  and  O_27
REMARK                            x       y       z     vdW  Elec       q    Type
REMARK                         _______ _______ _______ _____ _____    ______ ____
ROOT
ATOM      1  N   UNL     1      -0.067  12.097  20.073  0.00  0.00    +0.000 N 
ATOM      2  C   UNL     1       0.657  11.004  20.606  0.00  0.00    +0.000 C 
ATOM      3  O   UNL     1       0.731  10.795  21.818  0.00  0.00    +0.000 OA
ENDROOT
BRANCH   2   4
ATOM      4  C   UNL     1       1.282   9.921  19.799  0.00  0.00    +0.000 A 
ATOM      5  C   UNL     1       1.660  10.017  18.460  0.00  0.00    +0.000 A 
ATOM      6  C   UNL     1       2.090   8.869  17.794  0.00  0.00    +0.000 A 
ATOM      7  C   UNL     1       2.183   7.682  18.501  0.00  0.00    +0.000 A 
ATOM      8  N   UNL     1       1.892   7.563  19.810  0.00  0.00    +0.000 NA
ATOM      9  C   UNL     1       1.451   8.681  20.419  0.00  0.00    +0.000 A 
BRANCH   7  10
ATOM     10  O   UNL     1       2.582   6.518  17.908  0.00  0.00    +0.000 OA
ATOM     11  H   UNL     1       1.794   5.962  17.785  0.00  0.00    +0.000 HD
ENDBRANCH   7  10
ENDBRANCH   2   4
BRANCH   1  12
ATOM     12  C   UNL     1      -0.510  13.257  20.998  0.00  0.00    +0.000 C 
ATOM     13  C   UNL     1      -1.539  14.219  20.355  0.00  0.00    +0.000 C 
BRANCH  12  14
ATOM     14  C   UNL     1       0.747  14.111  21.377  0.00  0.00    +0.000 C 
ATOM     15  O   UNL     1       0.971  14.494  22.525  0.00  0.00    +0.000 OA
ATOM     16  N   UNL     1       1.524  14.492  20.307  0.00  0.00    +0.000 N 
ATOM     17  H   UNL     1       1.270  14.015  19.453  0.00  0.00    +0.000 HD
BRANCH  16  18
ATOM     18  C   UNL     1       2.875  15.057  20.351  0.00  0.00    +0.000 C 
ATOM     19  C   UNL     1       3.676  14.465  19.181  0.00  0.00    +0.000 C 
ATOM     20  C   UNL     1       3.169  15.003  17.840  0.00  0.00    +0.000 C 
ATOM     21  C   UNL     1       3.272  16.522  17.794  0.00  0.00    +0.000 C 
ATOM     22  C   UNL     1       2.536  17.174  18.961  0.00  0.00    +0.000 C 
ATOM     23  C   UNL     1       2.969  16.591  20.306  0.00  0.00    +0.000 C 
ENDBRANCH  16  18
ENDBRANCH  12  14
BRANCH  12  25
ATOM     24  C   UNL     1      -2.603  12.403  22.382  0.00  0.00    +0.000 C 
ATOM     25  C   UNL     1      -1.133  12.794  22.357  0.00  0.00    +0.000 C 
ENDBRANCH  12  25
ENDBRANCH   1  12
BRANCH   1  26
ATOM     26  C   UNL     1      -0.576  12.142  18.678  0.00  0.00    +0.000 C 
BRANCH  26  27
ATOM     27  C   UNL     1      -1.756  11.234  18.368  0.00  0.00    +0.000 A 
ATOM     28  C   UNL     1      -1.842   9.972  17.800  0.00  0.00    +0.000 A 
ATOM     29  C   UNL     1      -3.170   9.608  17.439  0.00  0.00    +0.000 A 
ATOM     30  C   UNL     1      -4.089  10.526  17.882  0.00  0.00    +0.000 A 
ATOM     31  S   UNL     1      -3.345  11.831  18.703  0.00  0.00    +0.000 S 
ENDBRANCH  26  27
ENDBRANCH   1  26
TORSDOF 8
ENDMDL
MODEL 4
REMARK VINA RESULT:      -5.4      2.902      4.950
REMARK  Name = 
REMARK  10 active torsions:
REMARK  status: ('A' for Active; 'I' for Inactive)
REMARK    1  A    between atoms: C_1  and  C_2
REMARK    2  A    between atoms: C_2  and  C_3
REMARK    3  A    between atoms: C_3  and  C_4
REMARK    4  A    between atoms: C_3  and  C_5
REMARK    5  A    between atoms: C_3  and  N_14
REMARK    6  A    between atoms: N_7  and  C_8
REMARK    7  A    between atoms: N_14  and  C_15
REMARK    8  A    between atoms: C_15  and  C_16
REMARK    9  A    between atoms: C_21  and  C_23
REMARK   10  A    between atoms: C_26  and  O_27
REMARK                            x       y       z     vdW  Elec       q    Type
REMARK                         _______ _______ _______ _____ _____    ______ ____
ROOT
ATOM      1  N   UNL     1       6.956  13.418  23.018  0.00  0.00    +0.000 N 
ATOM      2  C   UNL     1       7.214  12.998  24.345  0.00  0.00    +0.000 C 
ATOM      3  O   UNL     1       8.319  13.135  24.873  0.00  0.00    +0.000 OA
ENDROOT
BRANCH   2   4
ATOM      4  C   UNL     1       6.185  12.488  25.292  0.00  0.00    +0.000 A 
ATOM      5  C   UNL     1       5.681  13.174  26.396  0.00  0.00    +0.000 A 
ATOM      6  C   UNL     1       4.834  12.506  27.280  0.00  0.00    +0.000 A 
ATOM      7  C   UNL     1       4.475  11.198  27.001  0.00  0.00    +0.000 A 
ATOM      8  N   UNL     1       4.885  10.523  25.911  0.00  0.00    +0.000 NA
ATOM      9  C   UNL     1       5.725  11.184  25.091  0.00  0.00    +0.000 A 
BRANCH   7  10
ATOM     10  O   UNL     1       3.662  10.480  27.831  0.00  0.00    +0.000 OA
ATOM     11  H   UNL     1       4.041   9.589  27.921  0.00  0.00    +0.000 HD
ENDBRANCH   7  10
ENDBRANCH   2   4
BRANCH   1  12
ATOM     12  C   UNL     1       8.133  13.752  22.069  0.00  0.00    +0.000 C 
ATOM     13  C   UNL     1       7.704  14.424  20.742  0.00  0.00    +0.000 C 
BRANCH  12  14
ATOM     14  C   UNL     1       8.876  12.424  21.696  0.00  0.00    +0.000 C 
ATOM     15  O   UNL     1       8.507  11.320  22.095  0.00  0.00    +0.000 OA
ATOM     16  N   UNL     1      10.035  12.600  20.976  0.00  0.00    +0.000 N 
ATOM     17  H   UNL     1      10.143  13.547  20.639  0.00  0.00    +0.000 HD
BRANCH  16  18
ATOM     18  C   UNL     1      10.800  11.572  20.264  0.00  0.00    +0.000 C 
ATOM     19  C   UNL     1       9.969  11.114  19.054  0.00  0.00    +0.000 C 
ATOM     20  C   UNL     1       9.890  12.216  17.995  0.00  0.00    +0.000 C 
ATOM     21  C   UNL     1      11.283  12.612  17.521  0.00  0.00    +0.000 C 
ATOM     22  C   UNL     1      12.178  13.032  18.684  0.00  0.00    +0.000 C 
ATOM     23  C   UNL     1      12.205  11.980  19.792  0.00  0.00    +0.000 C 
ENDBRANCH  16  18
ENDBRANCH  12  14
BRANCH  12  25
ATOM     24  C   UNL     1       8.901  16.161  22.866  0.00  0.00    +0.000 C 
ATOM     25  C   UNL     1       9.222  14.683  22.699  0.00  0.00    +0.000 C 
ENDBRANCH  12  25
ENDBRANCH   1  12
BRANCH   1  26
ATOM     26  C   UNL     1       5.595  13.710  22.499  0.00  0.00    +0.000 C 
BRANCH  26  27
ATOM     27  C   UNL     1       4.979  15.026  22.947  0.00  0.00    +0.000 A 
ATOM     28  C   UNL     1       5.366  15.968  23.888  0.00  0.00    +0.000 A 
ATOM     29  C   UNL     1       4.347  16.918  24.185  0.00  0.00    +0.000 A 
ATOM     30  C   UNL     1       3.264  16.780  23.353  0.00  0.00    +0.000 A 
ATOM     31  S   UNL     1       3.471  15.494  22.242  0.00  0.00    +0.000 S 
ENDBRANCH  26  27
ENDBRANCH   1  26
TORSDOF 8
ENDMDL
MODEL 5
REMARK VINA RESULT:      -5.4      2.637      5.345
REMARK  Name = 
REMARK  10 active torsions:
REMARK  status: ('A' for Active; 'I' for Inactive)
REMARK    1  A    between atoms: C_1  and  C_2
REMARK    2  A    between atoms: C_2  and  C_3
REMARK    3  A    between atoms: C_3  and  C_4
REMARK    4  A    between atoms: C_3  and  C_5
REMARK    5  A    between atoms: C_3  and  N_14
REMARK    6  A    between atoms: N_7  and  C_8
REMARK    7  A    between atoms: N_14  and  C_15
REMARK    8  A    between atoms: C_15  and  C_16
REMARK    9  A    between atoms: C_21  and  C_23
REMARK   10  A    between atoms: C_26  and  O_27
REMARK                            x       y       z     vdW  Elec       q    Type
REMARK                         _______ _______ _______ _____ _____    ______ ____
ROOT
ATOM      1  N   UNL     1       7.631  15.094  21.081  0.00  0.00    +0.000 N 
ATOM      2  C   UNL     1       7.829  13.717  21.344  0.00  0.00    +0.000 C 
ATOM      3  O   UNL     1       8.348  12.960  20.521  0.00  0.00    +0.000 OA
ENDROOT
BRANCH   2   4
ATOM      4  C   UNL     1       7.579  13.056  22.653  0.00  0.00    +0.000 A 
ATOM      5  C   UNL     1       8.556  12.631  23.552  0.00  0.00    +0.000 A 
ATOM      6  C   UNL     1       8.173  11.887  24.668  0.00  0.00    +0.000 A 
ATOM      7  C   UNL     1       6.825  11.644  24.878  0.00  0.00    +0.000 A 
ATOM      8  N   UNL     1       5.846  12.095  24.071  0.00  0.00    +0.000 NA
ATOM      9  C   UNL     1       6.250  12.784  22.986  0.00  0.00    +0.000 A 
BRANCH   7  10
ATOM     10  O   UNL     1       6.381  10.911  25.941  0.00  0.00    +0.000 OA
ATOM     11  H   UNL     1       6.573  11.414  26.750  0.00  0.00    +0.000 HD
ENDBRANCH   7  10
ENDBRANCH   2   4
BRANCH   1  12
ATOM     12  C   UNL     1       7.748  15.630  19.633  0.00  0.00    +0.000 C 
ATOM     13  C   UNL     1       7.105  14.710  18.565  0.00  0.00    +0.000 C 
BRANCH  12  14
ATOM     14  C   UNL     1       9.264  15.775  19.266  0.00  0.00    +0.000 C 
ATOM     15  O   UNL     1       9.903  16.806  19.472  0.00  0.00    +0.000 OA
ATOM     16  N   UNL     1       9.796  14.697  18.597  0.00  0.00    +0.000 N 
ATOM     17  H   UNL     1       9.180  13.896  18.598  0.00  0.00    +0.000 HD
BRANCH  16  18
ATOM     18  C   UNL     1      11.214  14.418  18.354  0.00  0.00    +0.000 C 
ATOM     19  C   UNL     1      11.857  14.024  19.693  0.00  0.00    +0.000 C 
ATOM     20  C   UNL     1      11.358  12.655  20.160  0.00  0.00    +0.000 C 
ATOM     21  C   UNL     1      11.671  11.583  19.123  0.00  0.00    +0.000 C 
ATOM     22  C   UNL     1      11.101  11.938  17.752  0.00  0.00    +0.000 C 
ATOM     23  C   UNL     1      11.521  13.337  17.305  0.00  0.00    +0.000 C 
ENDBRANCH  16  18
ENDBRANCH  12  14
BRANCH  12  25
ATOM     24  C   UNL     1       5.663  17.141  19.004  0.00  0.00    +0.000 C 
ATOM     25  C   UNL     1       7.123  17.049  19.420  0.00  0.00    +0.000 C 
ENDBRANCH  12  25
ENDBRANCH   1  12
BRANCH   1  26
ATOM     26  C   UNL     1       7.461  16.116  22.145  0.00  0.00    +0.000 C 
BRANCH  26  27
ATOM     27  C   UNL     1       8.648  16.319  23.072  0.00  0.00    +0.000 A 
ATOM     28  C   UNL     1      10.009  16.449  22.836  0.00  0.00    +0.000 A 
ATOM     29  C   UNL     1      10.797  16.343  24.018  0.00  0.00    +0.000 A 
ATOM     30  C   UNL     1      10.018  16.296  25.147  0.00  0.00    +0.000 A 
ATOM     31  S   UNL     1       8.348  16.352  24.775  0.00  0.00    +0.000 S 
ENDBRANCH  26  27
ENDBRANCH   1  26
TORSDOF 8
ENDMDL
MODEL 6
REMARK VINA RESULT:      -5.4      2.240      4.548
REMARK  Name = 
REMARK  10 active torsions:
REMARK  status: ('A' for Active; 'I' for Inactive)
REMARK    1  A    between atoms: C_1  and  C_2
REMARK    2  A    between atoms: C_2  and  C_3
REMARK    3  A    between atoms: C_3  and  C_4
REMARK    4  A    between atoms: C_3  and  C_5
REMARK    5  A    between atoms: C_3  and  N_14
REMARK    6  A    between atoms: N_7  and  C_8
REMARK    7  A    between atoms: N_14  and  C_15
REMARK    8  A    between atoms: C_15  and  C_16
REMARK    9  A    between atoms: C_21  and  C_23
REMARK   10  A    between atoms: C_26  and  O_27
REMARK                            x       y       z     vdW  Elec       q    Type
REMARK                         _______ _______ _______ _____ _____    ______ ____
ROOT
ATOM      1  N   UNL     1       7.188  15.406  20.657  0.00  0.00    +0.000 N 
ATOM      2  C   UNL     1       7.857  14.638  21.640  0.00  0.00    +0.000 C 
ATOM      3  O   UNL     1       9.086  14.545  21.673  0.00  0.00    +0.000 OA
ENDROOT
BRANCH   2   4
ATOM      4  C   UNL     1       7.200  13.985  22.803  0.00  0.00    +0.000 A 
ATOM      5  C   UNL     1       6.878  12.632  22.906  0.00  0.00    +0.000 A 
ATOM      6  C   UNL     1       6.123  12.196  23.994  0.00  0.00    +0.000 A 
ATOM      7  C   UNL     1       5.765  13.112  24.969  0.00  0.00    +0.000 A 
ATOM      8  N   UNL     1       6.114  14.412  24.942  0.00  0.00    +0.000 NA
ATOM      9  C   UNL     1       6.817  14.810  23.864  0.00  0.00    +0.000 A 
BRANCH   7  10
ATOM     10  O   UNL     1       5.014  12.756  26.053  0.00  0.00    +0.000 OA
ATOM     11  H   UNL     1       5.067  11.790  26.147  0.00  0.00    +0.000 HD
ENDBRANCH   7  10
ENDBRANCH   2   4
BRANCH   1  12
ATOM     12  C   UNL     1       7.948  15.880  19.393  0.00  0.00    +0.000 C 
ATOM     13  C   UNL     1       7.286  17.078  18.670  0.00  0.00    +0.000 C 
BRANCH  12  14
ATOM     14  C   UNL     1       8.010  14.698  18.367  0.00  0.00    +0.000 C 
ATOM     15  O   UNL     1       7.269  14.627  17.387  0.00  0.00    +0.000 OA
ATOM     16  N   UNL     1       8.882  13.690  18.707  0.00  0.00    +0.000 N 
ATOM     17  H   UNL     1       9.488  13.943  19.476  0.00  0.00    +0.000 HD
BRANCH  16  18
ATOM     18  C   UNL     1       9.355  12.600  17.848  0.00  0.00    +0.000 C 
ATOM     19  C   UNL     1      10.711  13.015  17.258  0.00  0.00    +0.000 C 
ATOM     20  C   UNL     1      11.796  13.037  18.337  0.00  0.00    +0.000 C 
ATOM     21  C   UNL     1      11.935  11.668  18.992  0.00  0.00    +0.000 C 
ATOM     22  C   UNL     1      10.607  11.174  19.558  0.00  0.00    +0.000 C 
ATOM     23  C   UNL     1       9.490  11.222  18.517  0.00  0.00    +0.000 C 
ENDBRANCH  16  18
ENDBRANCH  12  14
BRANCH  12  25
ATOM     24  C   UNL     1      10.226  16.908  18.511  0.00  0.00    +0.000 C 
ATOM     25  C   UNL     1       9.435  16.293  19.654  0.00  0.00    +0.000 C 
ENDBRANCH  12  25
ENDBRANCH   1  12
BRANCH   1  26
ATOM     26  C   UNL     1       5.808  15.931  20.825  0.00  0.00    +0.000 C 
BRANCH  26  27
ATOM     27  C   UNL     1       4.689  15.050  20.292  0.00  0.00    +0.000 A 
ATOM     28  C   UNL     1       4.244  14.778  19.007  0.00  0.00    +0.000 A 
ATOM     29  C   UNL     1       2.986  14.112  18.978  0.00  0.00    +0.000 A 
ATOM     30  C   UNL     1       2.573  13.748  20.235  0.00  0.00    +0.000 A 
ATOM     31  S   UNL     1       3.687  14.233  21.440  0.00  0.00    +0.000 S 
ENDBRANCH  26  27
ENDBRANCH   1  26
TORSDOF 8
ENDMDL
MODEL 7
REMARK VINA RESULT:      -5.4      7.734     10.757
REMARK  Name = 
REMARK  10 active torsions:
REMARK  status: ('A' for Active; 'I' for Inactive)
REMARK    1  A    between atoms: C_1  and  C_2
REMARK    2  A    between atoms: C_2  and  C_3
REMARK    3  A    between atoms: C_3  and  C_4
REMARK    4  A    between atoms: C_3  and  C_5
REMARK    5  A    between atoms: C_3  and  N_14
REMARK    6  A    between atoms: N_7  and  C_8
REMARK    7  A    between atoms: N_14  and  C_15
REMARK    8  A    between atoms: C_15  and  C_16
REMARK    9  A    between atoms: C_21  and  C_23
REMARK   10  A    between atoms: C_26  and  O_27
REMARK                            x       y       z     vdW  Elec       q    Type
REMARK                         _______ _______ _______ _____ _____    ______ ____
ROOT
ATOM      1  N   UNL     1      -1.767  13.426  20.874  0.00  0.00    +0.000 N 
ATOM      2  C   UNL     1      -2.266  12.459  21.779  0.00  0.00    +0.000 C 
ATOM      3  O   UNL     1      -1.627  11.447  22.074  0.00  0.00    +0.000 OA
ENDROOT
BRANCH   2   4
ATOM      4  C   UNL     1      -3.516  12.601  22.573  0.00  0.00    +0.000 A 
ATOM      5  C   UNL     1      -3.600  12.629  23.964  0.00  0.00    +0.000 A 
ATOM      6  C   UNL     1      -4.857  12.610  24.568  0.00  0.00    +0.000 A 
ATOM      7  C   UNL     1      -5.984  12.623  23.763  0.00  0.00    +0.000 A 
ATOM      8  N   UNL     1      -5.946  12.665  22.418  0.00  0.00    +0.000 NA
ATOM      9  C   UNL     1      -4.719  12.652  21.864  0.00  0.00    +0.000 A 
BRANCH   7  10
ATOM     10  O   UNL     1      -7.246  12.592  24.287  0.00  0.00    +0.000 OA
ATOM     11  H   UNL     1      -7.304  13.287  24.964  0.00  0.00    +0.000 HD
ENDBRANCH   7  10
ENDBRANCH   2   4
BRANCH   1  12
ATOM     12  C   UNL     1      -0.558  13.088  19.967  0.00  0.00    +0.000 C 
ATOM     13  C   UNL     1      -0.329  14.098  18.816  0.00  0.00    +0.000 C 
BRANCH  12  14
ATOM     14  C   UNL     1      -0.793  11.685  19.312  0.00  0.00    +0.000 C 
ATOM     15  O   UNL     1       0.054  10.792  19.327  0.00  0.00    +0.000 OA
ATOM     16  N   UNL     1      -1.978  11.567  18.622  0.00  0.00    +0.000 N 
ATOM     17  H   UNL     1      -2.604  12.342  18.791  0.00  0.00    +0.000 HD
BRANCH  16  18
ATOM     18  C   UNL     1      -2.599  10.333  18.133  0.00  0.00    +0.000 C 
ATOM     19  C   UNL     1      -4.121  10.538  18.125  0.00  0.00    +0.000 C 
ATOM     20  C   UNL     1      -4.536  11.533  17.038  0.00  0.00    +0.000 C 
ATOM     21  C   UNL     1      -4.091  11.048  15.664  0.00  0.00    +0.000 C 
ATOM     22  C   UNL     1      -2.590  10.777  15.617  0.00  0.00    +0.000 C 
ATOM     23  C   UNL     1      -2.143   9.850  16.746  0.00  0.00    +0.000 C 
ENDBRANCH  16  18
ENDBRANCH  12  14
BRANCH  12  25
ATOM     24  C   UNL     1       2.024  13.665  20.134  0.00  0.00    +0.000 C 
ATOM     25  C   UNL     1       0.805  12.977  20.729  0.00  0.00    +0.000 C 
ENDBRANCH  12  25
ENDBRANCH   1  12
BRANCH   1  26
ATOM     26  C   UNL     1      -2.240  14.834  20.835  0.00  0.00    +0.000 C 
BRANCH  26  27
ATOM     27  C   UNL     1      -1.680  15.757  21.906  0.00  0.00    +0.000 A 
ATOM     28  C   UNL     1      -2.008  15.948  23.240  0.00  0.00    +0.000 A 
ATOM     29  C   UNL     1      -1.413  17.114  23.802  0.00  0.00    +0.000 A 
ATOM     30  C   UNL     1      -0.520  17.698  22.938  0.00  0.00    +0.000 A 
ATOM     31  S   UNL     1      -0.425  16.856  21.451  0.00  0.00    +0.000 S 
ENDBRANCH  26  27
ENDBRANCH   1  26
TORSDOF 8
ENDMDL
MODEL 8
REMARK VINA RESULT:      -5.4      6.920      9.970
REMARK  Name = 
REMARK  10 active torsions:
REMARK  status: ('A' for Active; 'I' for Inactive)
REMARK    1  A    between atoms: C_1  and  C_2
REMARK    2  A    between atoms: C_2  and  C_3
REMARK    3  A    between atoms: C_3  and  C_4
REMARK    4  A    between atoms: C_3  and  C_5
REMARK    5  A    between atoms: C_3  and  N_14
REMARK    6  A    between atoms: N_7  and  C_8
REMARK    7  A    between atoms: N_14  and  C_15
REMARK    8  A    between atoms: C_15  and  C_16
REMARK    9  A    between atoms: C_21  and  C_23
REMARK   10  A    between atoms: C_26  and  O_27
REMARK                            x       y       z     vdW  Elec       q    Type
REMARK                         _______ _______ _______ _____ _____    ______ ____
ROOT
ATOM      1  N   UNL     1       0.034  11.854  20.105  0.00  0.00    +0.000 N 
ATOM      2  C   UNL     1       0.652  13.034  20.585  0.00  0.00    +0.000 C 
ATOM      3  O   UNL     1       1.348  13.041  21.602  0.00  0.00    +0.000 OA
ENDROOT
BRANCH   2   4
ATOM      4  C   UNL     1       0.659  14.341  19.875  0.00  0.00    +0.000 A 
ATOM      5  C   UNL     1      -0.467  15.087  19.527  0.00  0.00    +0.000 A 
ATOM      6  C   UNL     1      -0.309  16.217  18.725  0.00  0.00    +0.000 A 
ATOM      7  C   UNL     1       0.969  16.596  18.349  0.00  0.00    +0.000 A 
ATOM      8  N   UNL     1       2.086  15.943  18.720  0.00  0.00    +0.000 NA
ATOM      9  C   UNL     1       1.900  14.839  19.469  0.00  0.00    +0.000 A 
BRANCH   7  10
ATOM     10  O   UNL     1       1.195  17.683  17.553  0.00  0.00    +0.000 OA
ATOM     11  H   UNL     1       1.190  17.381  16.629  0.00  0.00    +0.000 HD
ENDBRANCH   7  10
ENDBRANCH   2   4
BRANCH   1  12
ATOM     12  C   UNL     1      -0.067  10.607  21.016  0.00  0.00    +0.000 C 
ATOM     13  C   UNL     1      -0.985   9.490  20.459  0.00  0.00    +0.000 C 
BRANCH  12  14
ATOM     14  C   UNL     1      -0.654  11.038  22.403  0.00  0.00    +0.000 C 
ATOM     15  O   UNL     1      -0.319  10.509  23.462  0.00  0.00    +0.000 OA
ATOM     16  N   UNL     1      -1.653  11.981  22.333  0.00  0.00    +0.000 N 
ATOM     17  H   UNL     1      -1.738  12.390  21.412  0.00  0.00    +0.000 HD
BRANCH  16  18
ATOM     18  C   UNL     1      -2.209  12.767  23.439  0.00  0.00    +0.000 C 
ATOM     19  C   UNL     1      -2.063  14.255  23.084  0.00  0.00    +0.000 C 
ATOM     20  C   UNL     1      -3.003  14.642  21.940  0.00  0.00    +0.000 C 
ATOM     21  C   UNL     1      -4.453  14.358  22.313  0.00  0.00    +0.000 C 
ATOM     22  C   UNL     1      -4.658  12.902  22.724  0.00  0.00    +0.000 C 
ATOM     23  C   UNL     1      -3.671  12.472  23.809  0.00  0.00    +0.000 C 
ENDBRANCH  16  18
ENDBRANCH  12  14
BRANCH  12  25
ATOM     24  C   UNL     1       1.413   8.415  21.200  0.00  0.00    +0.000 C 
ATOM     25  C   UNL     1       1.307   9.927  21.330  0.00  0.00    +0.000 C 
ENDBRANCH  12  25
ENDBRANCH   1  12
BRANCH   1  26
ATOM     26  C   UNL     1      -0.405  11.673  18.697  0.00  0.00    +0.000 C 
BRANCH  26  27
ATOM     27  C   UNL     1      -1.902  11.764  18.448  0.00  0.00    +0.000 A 
ATOM     28  C   UNL     1      -2.952  12.238  19.220  0.00  0.00    +0.000 A 
ATOM     29  C   UNL     1      -4.232  11.877  18.710  0.00  0.00    +0.000 A 
ATOM     30  C   UNL     1      -4.139  11.276  17.480  0.00  0.00    +0.000 A 
ATOM     31  S   UNL     1      -2.515  11.127  16.962  0.00  0.00    +0.000 S 
ENDBRANCH  26  27
ENDBRANCH   1  26
TORSDOF 8
ENDMDL
MODEL 9
REMARK VINA RESULT:      -5.4      6.614      9.733
REMARK  Name = 
REMARK  10 active torsions:
REMARK  status: ('A' for Active; 'I' for Inactive)
REMARK    1  A    between atoms: C_1  and  C_2
REMARK    2  A    between atoms: C_2  and  C_3
REMARK    3  A    between atoms: C_3  and  C_4
REMARK    4  A    between atoms: C_3  and  C_5
REMARK    5  A    between atoms: C_3  and  N_14
REMARK    6  A    between atoms: N_7  and  C_8
REMARK    7  A    between atoms: N_14  and  C_15
REMARK    8  A    between atoms: C_15  and  C_16
REMARK    9  A    between atoms: C_21  and  C_23
REMARK   10  A    between atoms: C_26  and  O_27
REMARK                            x       y       z     vdW  Elec       q    Type
REMARK                         _______ _______ _______ _____ _____    ______ ____
ROOT
ATOM      1  N   UNL     1       0.498  11.068  20.049  0.00  0.00    +0.000 N 
ATOM      2  C   UNL     1       1.258  12.195  20.444  0.00  0.00    +0.000 C 
ATOM      3  O   UNL     1       1.894  12.219  21.499  0.00  0.00    +0.000 OA
ENDROOT
BRANCH   2   4
ATOM      4  C   UNL     1       1.496  13.398  19.602  0.00  0.00    +0.000 A 
ATOM      5  C   UNL     1       2.614  13.624  18.800  0.00  0.00    +0.000 A 
ATOM      6  C   UNL     1       2.770  14.869  18.189  0.00  0.00    +0.000 A 
ATOM      7  C   UNL     1       1.778  15.822  18.354  0.00  0.00    +0.000 A 
ATOM      8  N   UNL     1       0.652  15.620  19.064  0.00  0.00    +0.000 NA
ATOM      9  C   UNL     1       0.545  14.419  19.666  0.00  0.00    +0.000 A 
BRANCH   7  10
ATOM     10  O   UNL     1       1.873  17.065  17.797  0.00  0.00    +0.000 OA
ATOM     11  H   UNL     1       2.161  16.957  16.875  0.00  0.00    +0.000 HD
ENDBRANCH   7  10
ENDBRANCH   2   4
BRANCH   1  12
ATOM     12  C   UNL     1       0.165   9.959  21.077  0.00  0.00    +0.000 C 
ATOM     13  C   UNL     1      -0.921   8.962  20.602  0.00  0.00    +0.000 C 
BRANCH  12  14
ATOM     14  C   UNL     1      -0.366  10.629  22.390  0.00  0.00    +0.000 C 
ATOM     15  O   UNL     1      -0.013  10.267  23.512  0.00  0.00    +0.000 OA
ATOM     16  N   UNL     1      -1.340  11.580  22.193  0.00  0.00    +0.000 N 
ATOM     17  H   UNL     1      -1.443  11.837  21.221  0.00  0.00    +0.000 HD
BRANCH  16  18
ATOM     18  C   UNL     1      -1.839  12.552  23.171  0.00  0.00    +0.000 C 
ATOM     19  C   UNL     1      -1.580  13.961  22.614  0.00  0.00    +0.000 C 
ATOM     20  C   UNL     1      -2.484  14.252  21.414  0.00  0.00    +0.000 C 
ATOM     21  C   UNL     1      -3.952  14.133  21.802  0.00  0.00    +0.000 C 
ATOM     22  C   UNL     1      -4.268  12.768  22.409  0.00  0.00    +0.000 C 
ATOM     23  C   UNL     1      -3.321  12.423  23.558  0.00  0.00    +0.000 C 
ENDBRANCH  16  18
ENDBRANCH  12  14
BRANCH  12  25
ATOM     24  C   UNL     1       1.573   7.723  20.876  0.00  0.00    +0.000 C 
ATOM     25  C   UNL     1       1.394   9.093  21.510  0.00  0.00    +0.000 C 
ENDBRANCH  12  25
ENDBRANCH   1  12
BRANCH   1  26
ATOM     26  C   UNL     1       0.111  10.792  18.641  0.00  0.00    +0.000 C 
BRANCH  26  27
ATOM     27  C   UNL     1      -1.348  11.035  18.290  0.00  0.00    +0.000 A 
ATOM     28  C   UNL     1      -2.298  11.910  18.794  0.00  0.00    +0.000 A 
ATOM     29  C   UNL     1      -3.623  11.611  18.364  0.00  0.00    +0.000 A 
ATOM     30  C   UNL     1      -3.638  10.617  17.417  0.00  0.00    +0.000 A 
ATOM     31  S   UNL     1      -2.065  10.035  17.075  0.00  0.00    +0.000 S 
ENDBRANCH  26  27
ENDBRANCH   1  26
TORSDOF 8
ENDMDL
