MODEL 1
REMARK VINA RESULT:      -8.3      0.000      0.000
REMARK  Name = 
REMARK  9 active torsions:
REMARK  status: ('A' for Active; 'I' for Inactive)
REMARK    1  A    between atoms: C_6  and  C_7
REMARK    2  A    between atoms: C_6  and  C_8
REMARK    3  A    between atoms: C_8  and  O_9
REMARK    4  A    between atoms: C_10  and  O_11
REMARK    5  A    between atoms: C_14  and  C_15
REMARK    6  A    between atoms: C_16  and  C_17
REMARK    7  A    between atoms: C_18  and  C_19
REMARK    8  A    between atoms: C_22  and  C_23
REMARK    9  A    between atoms: C_22  and  C_24
REMARK                            x       y       z     vdW  Elec       q    Type
REMARK                         _______ _______ _______ _____ _____    ______ ____
ROOT
ATOM      1  C   UNL     1       3.950   7.469  16.603  0.00  0.00    +0.000 C 
ATOM      2  C   UNL     1       4.081   6.749  17.734  0.00  0.00    +0.000 C 
ATOM      3  C   UNL     1       5.232   5.780  17.888  0.00  0.00    +0.000 C 
ATOM      4  C   UNL     1       4.812   4.347  18.275  0.00  0.00    +0.000 C 
ATOM      5  C   UNL     1       3.779   4.305  19.421  0.00  0.00    +0.000 C 
ATOM      6  C   UNL     1       3.354   2.861  19.962  0.00  0.00    +0.000 C 
ATOM      7  C   UNL     1       4.596   1.956  20.161  0.00  0.00    +0.000 C 
ATOM      8  C   UNL     1       2.686   3.131  21.339  0.00  0.00    +0.000 C 
ATOM      9  C   UNL     1       1.452   4.026  21.219  0.00  0.00    +0.000 C 
ATOM     10  C   UNL     1       1.627   5.293  20.386  0.00  0.00    +0.000 C 
ATOM     11  C   UNL     1       2.566   5.261  19.138  0.00  0.00    +0.000 C 
ATOM     12  C   UNL     1       1.808   4.840  17.839  0.00  0.00    +0.000 C 
ATOM     13  C   UNL     1       3.085   6.752  18.903  0.00  0.00    +0.000 C 
ENDROOT
BRANCH   8  14
ATOM     14  O   UNL     1       2.328   1.916  22.003  0.00  0.00    +0.000 OA
ATOM     15  H   UNL     1       2.856   1.185  21.640  0.00  0.00    +0.000 HD
ENDBRANCH   8  14
BRANCH  13  16
ATOM     16  C   UNL     1       1.904   7.691  18.665  0.00  0.00    +0.000 C 
ATOM     17  C   UNL     1       1.756   8.992  18.989  0.00  0.00    +0.000 C 
BRANCH  17  18
ATOM     18  C   UNL     1       0.544   9.711  18.683  0.00  0.00    +0.000 C 
ATOM     19  C   UNL     1      -0.315   9.494  17.686  0.00  0.00    +0.000 C 
ATOM     20  C   UNL     1      -1.394  10.416  17.751  0.00  0.00    +0.000 C 
ATOM     21  C   UNL     1      -2.465  10.479  16.935  0.00  0.00    +0.000 C 
ATOM     22  C   UNL     1      -2.688   9.569  15.751  0.00  0.00    +0.000 C 
ATOM     23  C   UNL     1      -3.568  11.488  17.124  0.00  0.00    +0.000 C 
ATOM     24  O   UNL     1      -1.194  11.274  18.829  0.00  0.00    +0.000 OA
ATOM     25  C   UNL     1      -0.009  10.887  19.399  0.00  0.00    +0.000 C 
ATOM     26  O   UNL     1       0.523  11.416  20.362  0.00  0.00    +0.000 OA
ENDBRANCH  17  18
ENDBRANCH  13  16
BRANCH   6  27
ATOM     27  C   UNL     1       2.367   2.009  19.118  0.00  0.00    +0.000 C 
BRANCH  27  28
ATOM     28  O   UNL     1       2.988   1.456  17.965  0.00  0.00    +0.000 OA
ATOM     29  H   UNL     1       3.540   0.714  18.270  0.00  0.00    +0.000 HD
ENDBRANCH  27  28
ENDBRANCH   6  27
TORSDOF 5
ENDMDL
MODEL 2
REMARK VINA RESULT:      -8.1      2.911      4.547
REMARK  Name = 
REMARK  9 active torsions:
REMARK  status: ('A' for Active; 'I' for Inactive)
REMARK    1  A    between atoms: C_6  and  C_7
REMARK    2  A    between atoms: C_6  and  C_8
REMARK    3  A    between atoms: C_8  and  O_9
REMARK    4  A    between atoms: C_10  and  O_11
REMARK    5  A    between atoms: C_14  and  C_15
REMARK    6  A    between atoms: C_16  and  C_17
REMARK    7  A    between atoms: C_18  and  C_19
REMARK    8  A    between atoms: C_22  and  C_23
REMARK    9  A    between atoms: C_22  and  C_24
REMARK                            x       y       z     vdW  Elec       q    Type
REMARK                         _______ _______ _______ _____ _____    ______ ____
ROOT
ATOM      1  C   UNL     1       1.053   4.311  19.812  0.00  0.00    +0.000 C 
ATOM      2  C   UNL     1       1.787   4.384  18.684  0.00  0.00    +0.000 C 
ATOM      3  C   UNL     1       2.300   3.122  18.028  0.00  0.00    +0.000 C 
ATOM      4  C   UNL     1       3.819   3.115  17.760  0.00  0.00    +0.000 C 
ATOM      5  C   UNL     1       4.330   4.424  17.122  0.00  0.00    +0.000 C 
ATOM      6  C   UNL     1       5.876   4.477  16.714  0.00  0.00    +0.000 C 
ATOM      7  C   UNL     1       6.302   3.178  15.985  0.00  0.00    +0.000 C 
ATOM      8  C   UNL     1       5.990   5.679  15.737  0.00  0.00    +0.000 C 
ATOM      9  C   UNL     1       5.579   6.999  16.391  0.00  0.00    +0.000 C 
ATOM     10  C   UNL     1       4.257   6.980  17.155  0.00  0.00    +0.000 C 
ATOM     11  C   UNL     1       3.838   5.684  17.920  0.00  0.00    +0.000 C 
ATOM     12  C   UNL     1       4.372   5.664  19.387  0.00  0.00    +0.000 C 
ATOM     13  C   UNL     1       2.244   5.687  18.012  0.00  0.00    +0.000 C 
ENDROOT
BRANCH   8  14
ATOM     14  O   UNL     1       7.311   5.807  15.204  0.00  0.00    +0.000 OA
ATOM     15  H   UNL     1       7.261   6.202  14.317  0.00  0.00    +0.000 HD
ENDBRANCH   8  14
BRANCH  13  16
ATOM     16  C   UNL     1       1.762   6.932  18.756  0.00  0.00    +0.000 C 
ATOM     17  C   UNL     1       1.834   8.231  18.400  0.00  0.00    +0.000 C 
BRANCH  17  18
ATOM     18  C   UNL     1       1.323   9.274  19.255  0.00  0.00    +0.000 C 
ATOM     19  C   UNL     1       0.691   9.149  20.422  0.00  0.00    +0.000 C 
ATOM     20  C   UNL     1       0.370  10.427  20.953  0.00  0.00    +0.000 C 
ATOM     21  C   UNL     1      -0.237  10.696  22.127  0.00  0.00    +0.000 C 
ATOM     22  C   UNL     1      -0.725   9.644  23.094  0.00  0.00    +0.000 C 
ATOM     23  C   UNL     1      -0.497  12.102  22.599  0.00  0.00    +0.000 C 
ATOM     24  O   UNL     1       0.798  11.409  20.064  0.00  0.00    +0.000 OA
ATOM     25  C   UNL     1       1.359  10.737  19.008  0.00  0.00    +0.000 C 
ATOM     26  O   UNL     1       1.831  11.252  18.007  0.00  0.00    +0.000 OA
ENDBRANCH  17  18
ENDBRANCH  13  16
BRANCH   6  27
ATOM     27  C   UNL     1       6.936   4.676  17.833  0.00  0.00    +0.000 C 
BRANCH  27  28
ATOM     28  O   UNL     1       8.172   4.050  17.516  0.00  0.00    +0.000 OA
ATOM     29  H   UNL     1       8.776   4.224  18.259  0.00  0.00    +0.000 HD
ENDBRANCH  27  28
ENDBRANCH   6  27
TORSDOF 5
ENDMDL
MODEL 3
REMARK VINA RESULT:      -8.0      2.824      4.547
REMARK  Name = 
REMARK  9 active torsions:
REMARK  status: ('A' for Active; 'I' for Inactive)
REMARK    1  A    between atoms: C_6  and  C_7
REMARK    2  A    between atoms: C_6  and  C_8
REMARK    3  A    between atoms: C_8  and  O_9
REMARK    4  A    between atoms: C_10  and  O_11
REMARK    5  A    between atoms: C_14  and  C_15
REMARK    6  A    between atoms: C_16  and  C_17
REMARK    7  A    between atoms: C_18  and  C_19
REMARK    8  A    between atoms: C_22  and  C_23
REMARK    9  A    between atoms: C_22  and  C_24
REMARK                            x       y       z     vdW  Elec       q    Type
REMARK                         _______ _______ _______ _____ _____    ______ ____
ROOT
ATOM      1  C   UNL     1       1.347   4.824  20.360  0.00  0.00    +0.000 C 
ATOM      2  C   UNL     1       1.889   4.789  19.126  0.00  0.00    +0.000 C 
ATOM      3  C   UNL     1       2.193   3.462  18.467  0.00  0.00    +0.000 C 
ATOM      4  C   UNL     1       3.643   3.320  17.961  0.00  0.00    +0.000 C 
ATOM      5  C   UNL     1       4.138   4.554  17.178  0.00  0.00    +0.000 C 
ATOM      6  C   UNL     1       5.596   4.463  16.527  0.00  0.00    +0.000 C 
ATOM      7  C   UNL     1       5.800   3.104  15.811  0.00  0.00    +0.000 C 
ATOM      8  C   UNL     1       5.637   5.610  15.479  0.00  0.00    +0.000 C 
ATOM      9  C   UNL     1       5.437   6.985  16.116  0.00  0.00    +0.000 C 
ATOM     10  C   UNL     1       4.260   7.106  17.081  0.00  0.00    +0.000 C 
ATOM     11  C   UNL     1       3.877   5.882  17.974  0.00  0.00    +0.000 C 
ATOM     12  C   UNL     1       4.642   5.882  19.336  0.00  0.00    +0.000 C 
ATOM     13  C   UNL     1       2.325   6.020  18.319  0.00  0.00    +0.000 C 
ENDROOT
BRANCH   8  14
ATOM     14  O   UNL     1       6.859   5.606  14.735  0.00  0.00    +0.000 OA
ATOM     15  H   UNL     1       7.010   6.492  14.363  0.00  0.00    +0.000 HD
ENDBRANCH   8  14
BRANCH  13  16
ATOM     16  C   UNL     1       2.064   7.331  19.060  0.00  0.00    +0.000 C 
ATOM     17  C   UNL     1       1.271   8.369  18.723  0.00  0.00    +0.000 C 
BRANCH  17  18
ATOM     18  C   UNL     1       1.166   9.537  19.562  0.00  0.00    +0.000 C 
ATOM     19  C   UNL     1       1.187  10.820  19.199  0.00  0.00    +0.000 C 
ATOM     20  C   UNL     1       1.034  11.661  20.334  0.00  0.00    +0.000 C 
ATOM     21  C   UNL     1       0.973  13.007  20.351  0.00  0.00    +0.000 C 
ATOM     22  C   UNL     1       1.095  13.881  19.125  0.00  0.00    +0.000 C 
ATOM     23  C   UNL     1       0.777  13.792  21.621  0.00  0.00    +0.000 C 
ATOM     24  O   UNL     1       0.938  10.870  21.475  0.00  0.00    +0.000 OA
ATOM     25  C   UNL     1       1.041   9.574  21.041  0.00  0.00    +0.000 C 
ATOM     26  O   UNL     1       1.025   8.582  21.752  0.00  0.00    +0.000 OA
ENDBRANCH  17  18
ENDBRANCH  13  16
BRANCH   6  27
ATOM     27  C   UNL     1       6.837   4.622  17.449  0.00  0.00    +0.000 C 
BRANCH  27  28
ATOM     28  O   UNL     1       8.018   4.106  16.850  0.00  0.00    +0.000 OA
ATOM     29  H   UNL     1       7.862   3.159  16.690  0.00  0.00    +0.000 HD
ENDBRANCH  27  28
ENDBRANCH   6  27
TORSDOF 5
ENDMDL
MODEL 4
REMARK VINA RESULT:      -7.3      1.249      1.480
REMARK  Name = 
REMARK  9 active torsions:
REMARK  status: ('A' for Active; 'I' for Inactive)
REMARK    1  A    between atoms: C_6  and  C_7
REMARK    2  A    between atoms: C_6  and  C_8
REMARK    3  A    between atoms: C_8  and  O_9
REMARK    4  A    between atoms: C_10  and  O_11
REMARK    5  A    between atoms: C_14  and  C_15
REMARK    6  A    between atoms: C_16  and  C_17
REMARK    7  A    between atoms: C_18  and  C_19
REMARK    8  A    between atoms: C_22  and  C_23
REMARK    9  A    between atoms: C_22  and  C_24
REMARK                            x       y       z     vdW  Elec       q    Type
REMARK                         _______ _______ _______ _____ _____    ______ ____
ROOT
ATOM      1  C   UNL     1       3.682   7.779  16.990  0.00  0.00    +0.000 C 
ATOM      2  C   UNL     1       3.914   6.841  17.930  0.00  0.00    +0.000 C 
ATOM      3  C   UNL     1       4.922   5.743  17.675  0.00  0.00    +0.000 C 
ATOM      4  C   UNL     1       4.379   4.316  17.892  0.00  0.00    +0.000 C 
ATOM      5  C   UNL     1       3.579   4.162  19.203  0.00  0.00    +0.000 C 
ATOM      6  C   UNL     1       3.058   2.694  19.567  0.00  0.00    +0.000 C 
ATOM      7  C   UNL     1       4.172   1.640  19.347  0.00  0.00    +0.000 C 
ATOM      8  C   UNL     1       2.700   2.761  21.077  0.00  0.00    +0.000 C 
ATOM      9  C   UNL     1       1.607   3.789  21.369  0.00  0.00    +0.000 C 
ATOM     10  C   UNL     1       1.806   5.169  20.746  0.00  0.00    +0.000 C 
ATOM     11  C   UNL     1       2.485   5.280  19.344  0.00  0.00    +0.000 C 
ATOM     12  C   UNL     1       1.449   5.204  18.178  0.00  0.00    +0.000 C 
ATOM     13  C   UNL     1       3.161   6.724  19.263  0.00  0.00    +0.000 C 
ENDROOT
BRANCH   8  14
ATOM     14  O   UNL     1       2.299   1.486  21.585  0.00  0.00    +0.000 OA
ATOM     15  H   UNL     1       1.705   1.058  20.944  0.00  0.00    +0.000 HD
ENDBRANCH   8  14
BRANCH  13  16
ATOM     16  C   UNL     1       2.103   7.812  19.438  0.00  0.00    +0.000 C 
ATOM     17  C   UNL     1       1.625   8.376  20.566  0.00  0.00    +0.000 C 
BRANCH  17  18
ATOM     18  C   UNL     1       0.606   9.396  20.523  0.00  0.00    +0.000 C 
ATOM     19  C   UNL     1      -0.094   9.819  19.470  0.00  0.00    +0.000 C 
ATOM     20  C   UNL     1      -1.016  10.829  19.859  0.00  0.00    +0.000 C 
ATOM     21  C   UNL     1      -1.911  11.464  19.076  0.00  0.00    +0.000 C 
ATOM     22  C   UNL     1      -2.066  11.225  17.592  0.00  0.00    +0.000 C 
ATOM     23  C   UNL     1      -2.862  12.501  19.612  0.00  0.00    +0.000 C 
ATOM     24  O   UNL     1      -0.873  11.073  21.222  0.00  0.00    +0.000 OA
ATOM     25  C   UNL     1       0.125  10.235  21.649  0.00  0.00    +0.000 C 
ATOM     26  O   UNL     1       0.560  10.169  22.787  0.00  0.00    +0.000 OA
ENDBRANCH  17  18
ENDBRANCH  13  16
BRANCH   6  27
ATOM     27  C   UNL     1       1.819   2.135  18.813  0.00  0.00    +0.000 C 
BRANCH  27  28
ATOM     28  O   UNL     1       2.121   1.798  17.466  0.00  0.00    +0.000 OA
ATOM     29  H   UNL     1       2.079   0.828  17.401  0.00  0.00    +0.000 HD
ENDBRANCH  27  28
ENDBRANCH   6  27
TORSDOF 5
ENDMDL
MODEL 5
REMARK VINA RESULT:      -6.9      1.478      2.176
REMARK  Name = 
REMARK  9 active torsions:
REMARK  status: ('A' for Active; 'I' for Inactive)
REMARK    1  A    between atoms: C_6  and  C_7
REMARK    2  A    between atoms: C_6  and  C_8
REMARK    3  A    between atoms: C_8  and  O_9
REMARK    4  A    between atoms: C_10  and  O_11
REMARK    5  A    between atoms: C_14  and  C_15
REMARK    6  A    between atoms: C_16  and  C_17
REMARK    7  A    between atoms: C_18  and  C_19
REMARK    8  A    between atoms: C_22  and  C_23
REMARK    9  A    between atoms: C_22  and  C_24
REMARK                            x       y       z     vdW  Elec       q    Type
REMARK                         _______ _______ _______ _____ _____    ______ ____
ROOT
ATOM      1  C   UNL     1       3.869   7.509  16.816  0.00  0.00    +0.000 C 
ATOM      2  C   UNL     1       4.055   6.641  17.830  0.00  0.00    +0.000 C 
ATOM      3  C   UNL     1       5.058   5.517  17.693  0.00  0.00    +0.000 C 
ATOM      4  C   UNL     1       4.490   4.115  17.992  0.00  0.00    +0.000 C 
ATOM      5  C   UNL     1       3.641   4.064  19.280  0.00  0.00    +0.000 C 
ATOM      6  C   UNL     1       3.090   2.632  19.730  0.00  0.00    +0.000 C 
ATOM      7  C   UNL     1       4.198   1.554  19.628  0.00  0.00    +0.000 C 
ATOM      8  C   UNL     1       2.678   2.812  21.217  0.00  0.00    +0.000 C 
ATOM      9  C   UNL     1       1.588   3.869  21.394  0.00  0.00    +0.000 C 
ATOM     10  C   UNL     1       1.826   5.198  20.680  0.00  0.00    +0.000 C 
ATOM     11  C   UNL     1       2.557   5.200  19.300  0.00  0.00    +0.000 C 
ATOM     12  C   UNL     1       1.563   5.050  18.104  0.00  0.00    +0.000 C 
ATOM     13  C   UNL     1       3.253   6.628  19.139  0.00  0.00    +0.000 C 
ENDROOT
BRANCH   8  14
ATOM     14  O   UNL     1       2.243   1.581  21.801  0.00  0.00    +0.000 OA
ATOM     15  H   UNL     1       3.021   1.047  22.039  0.00  0.00    +0.000 HD
ENDBRANCH   8  14
BRANCH  13  16
ATOM     16  C   UNL     1       2.203   7.736  19.196  0.00  0.00    +0.000 C 
ATOM     17  C   UNL     1       1.815   8.504  20.235  0.00  0.00    +0.000 C 
BRANCH  17  18
ATOM     18  C   UNL     1       0.786   9.503  20.088  0.00  0.00    +0.000 C 
ATOM     19  C   UNL     1       0.119  10.150  21.045  0.00  0.00    +0.000 C 
ATOM     20  C   UNL     1      -0.801  11.071  20.475  0.00  0.00    +0.000 C 
ATOM     21  C   UNL     1      -1.617  11.920  21.129  0.00  0.00    +0.000 C 
ATOM     22  C   UNL     1      -1.721  12.014  22.633  0.00  0.00    +0.000 C 
ATOM     23  C   UNL     1      -2.532  12.877  20.411  0.00  0.00    +0.000 C 
ATOM     24  O   UNL     1      -0.729  10.983  19.088  0.00  0.00    +0.000 OA
ATOM     25  C   UNL     1       0.208  10.019  18.822  0.00  0.00    +0.000 C 
ATOM     26  O   UNL     1       0.538   9.635  17.711  0.00  0.00    +0.000 OA
ENDBRANCH  17  18
ENDBRANCH  13  16
BRANCH   6  27
ATOM     27  C   UNL     1       1.872   2.031  18.973  0.00  0.00    +0.000 C 
BRANCH  27  28
ATOM     28  O   UNL     1       2.171   1.759  17.611  0.00  0.00    +0.000 OA
ATOM     29  H   UNL     1       1.913   0.836  17.444  0.00  0.00    +0.000 HD
ENDBRANCH  27  28
ENDBRANCH   6  27
TORSDOF 5
ENDMDL
MODEL 6
REMARK VINA RESULT:      -6.6      2.786      8.743
REMARK  Name = 
REMARK  9 active torsions:
REMARK  status: ('A' for Active; 'I' for Inactive)
REMARK    1  A    between atoms: C_6  and  C_7
REMARK    2  A    between atoms: C_6  and  C_8
REMARK    3  A    between atoms: C_8  and  O_9
REMARK    4  A    between atoms: C_10  and  O_11
REMARK    5  A    between atoms: C_14  and  C_15
REMARK    6  A    between atoms: C_16  and  C_17
REMARK    7  A    between atoms: C_18  and  C_19
REMARK    8  A    between atoms: C_22  and  C_23
REMARK    9  A    between atoms: C_22  and  C_24
REMARK                            x       y       z     vdW  Elec       q    Type
REMARK                         _______ _______ _______ _____ _____    ______ ____
ROOT
ATOM      1  C   UNL     1      -0.857   8.606  22.142  0.00  0.00    +0.000 C 
ATOM      2  C   UNL     1      -0.138   9.738  22.006  0.00  0.00    +0.000 C 
ATOM      3  C   UNL     1      -0.535  10.986  22.764  0.00  0.00    +0.000 C 
ATOM      4  C   UNL     1      -0.707  12.239  21.882  0.00  0.00    +0.000 C 
ATOM      5  C   UNL     1       0.445  12.439  20.876  0.00  0.00    +0.000 C 
ATOM      6  C   UNL     1       0.408  13.766  19.984  0.00  0.00    +0.000 C 
ATOM      7  C   UNL     1       0.067  15.005  20.849  0.00  0.00    +0.000 C 
ATOM      8  C   UNL     1       1.850  13.909  19.422  0.00  0.00    +0.000 C 
ATOM      9  C   UNL     1       2.258  12.714  18.560  0.00  0.00    +0.000 C 
ATOM     10  C   UNL     1       1.991  11.337  19.163  0.00  0.00    +0.000 C 
ATOM     11  C   UNL     1       0.728  11.129  20.058  0.00  0.00    +0.000 C 
ATOM     12  C   UNL     1      -0.523  10.704  19.224  0.00  0.00    +0.000 C 
ATOM     13  C   UNL     1       1.049   9.920  21.049  0.00  0.00    +0.000 C 
ENDROOT
BRANCH   8  14
ATOM     14  O   UNL     1       2.008  15.114  18.667  0.00  0.00    +0.000 OA
ATOM     15  H   UNL     1       1.516  15.035  17.832  0.00  0.00    +0.000 HD
ENDBRANCH   8  14
BRANCH  13  16
ATOM     16  C   UNL     1       1.362   8.653  20.253  0.00  0.00    +0.000 C 
ATOM     17  C   UNL     1       2.203   7.639  20.541  0.00  0.00    +0.000 C 
BRANCH  17  18
ATOM     18  C   UNL     1       2.368   6.522  19.645  0.00  0.00    +0.000 C 
ATOM     19  C   UNL     1       2.055   5.242  19.853  0.00  0.00    +0.000 C 
ATOM     20  C   UNL     1       2.361   4.462  18.706  0.00  0.00    +0.000 C 
ATOM     21  C   UNL     1       2.150   3.142  18.536  0.00  0.00    +0.000 C 
ATOM     22  C   UNL     1       1.564   2.230  19.588  0.00  0.00    +0.000 C 
ATOM     23  C   UNL     1       2.490   2.427  17.254  0.00  0.00    +0.000 C 
ATOM     24  O   UNL     1       2.919   5.286  17.732  0.00  0.00    +0.000 OA
ATOM     25  C   UNL     1       2.961   6.541  18.284  0.00  0.00    +0.000 C 
ATOM     26  O   UNL     1       3.409   7.540  17.746  0.00  0.00    +0.000 OA
ENDBRANCH  17  18
ENDBRANCH  13  16
BRANCH   6  27
ATOM     27  C   UNL     1      -0.575  13.830  18.782  0.00  0.00    +0.000 C 
BRANCH  27  28
ATOM     28  O   UNL     1      -0.855  15.167  18.392  0.00  0.00    +0.000 OA
ATOM     29  H   UNL     1      -1.389  15.119  17.579  0.00  0.00    +0.000 HD
ENDBRANCH  27  28
ENDBRANCH   6  27
TORSDOF 5
ENDMDL
MODEL 7
REMARK VINA RESULT:      -6.6      1.770      2.602
REMARK  Name = 
REMARK  9 active torsions:
REMARK  status: ('A' for Active; 'I' for Inactive)
REMARK    1  A    between atoms: C_6  and  C_7
REMARK    2  A    between atoms: C_6  and  C_8
REMARK    3  A    between atoms: C_8  and  O_9
REMARK    4  A    between atoms: C_10  and  O_11
REMARK    5  A    between atoms: C_14  and  C_15
REMARK    6  A    between atoms: C_16  and  C_17
REMARK    7  A    between atoms: C_18  and  C_19
REMARK    8  A    between atoms: C_22  and  C_23
REMARK    9  A    between atoms: C_22  and  C_24
REMARK                            x       y       z     vdW  Elec       q    Type
REMARK                         _______ _______ _______ _____ _____    ______ ____
ROOT
ATOM      1  C   UNL     1       4.436   7.212  15.860  0.00  0.00    +0.000 C 
ATOM      2  C   UNL     1       4.479   6.352  16.896  0.00  0.00    +0.000 C 
ATOM      3  C   UNL     1       5.071   4.972  16.714  0.00  0.00    +0.000 C 
ATOM      4  C   UNL     1       4.149   3.819  17.161  0.00  0.00    +0.000 C 
ATOM      5  C   UNL     1       3.495   4.060  18.537  0.00  0.00    +0.000 C 
ATOM      6  C   UNL     1       2.599   2.877  19.133  0.00  0.00    +0.000 C 
ATOM      7  C   UNL     1       3.309   1.509  18.972  0.00  0.00    +0.000 C 
ATOM      8  C   UNL     1       2.453   3.208  20.644  0.00  0.00    +0.000 C 
ATOM      9  C   UNL     1       1.763   4.552  20.878  0.00  0.00    +0.000 C 
ATOM     10  C   UNL     1       2.299   5.727  20.064  0.00  0.00    +0.000 C 
ATOM     11  C   UNL     1       2.815   5.474  18.611  0.00  0.00    +0.000 C 
ATOM     12  C   UNL     1       1.679   5.608  17.548  0.00  0.00    +0.000 C 
ATOM     13  C   UNL     1       3.883   6.615  18.287  0.00  0.00    +0.000 C 
ENDROOT
BRANCH   8  14
ATOM     14  O   UNL     1       1.745   2.183  21.346  0.00  0.00    +0.000 OA
ATOM     15  H   UNL     1       2.239   1.946  22.150  0.00  0.00    +0.000 HD
ENDBRANCH   8  14
BRANCH  13  16
ATOM     16  C   UNL     1       3.231   7.993  18.395  0.00  0.00    +0.000 C 
ATOM     17  C   UNL     1       2.007   8.401  18.004  0.00  0.00    +0.000 C 
BRANCH  17  18
ATOM     18  C   UNL     1       1.575   9.765  18.187  0.00  0.00    +0.000 C 
ATOM     19  C   UNL     1       2.322  10.869  18.231  0.00  0.00    +0.000 C 
ATOM     20  C   UNL     1       1.503  12.016  18.409  0.00  0.00    +0.000 C 
ATOM     21  C   UNL     1       1.900  13.303  18.464  0.00  0.00    +0.000 C 
ATOM     22  C   UNL     1       3.339  13.755  18.377  0.00  0.00    +0.000 C 
ATOM     23  C   UNL     1       0.929  14.443  18.626  0.00  0.00    +0.000 C 
ATOM     24  O   UNL     1       0.174  11.614  18.509  0.00  0.00    +0.000 OA
ATOM     25  C   UNL     1       0.188  10.247  18.404  0.00  0.00    +0.000 C 
ATOM     26  O   UNL     1      -0.789   9.518  18.469  0.00  0.00    +0.000 OA
ENDBRANCH  17  18
ENDBRANCH  13  16
BRANCH   6  27
ATOM     27  C   UNL     1       1.172   2.660  18.557  0.00  0.00    +0.000 C 
BRANCH  27  28
ATOM     28  O   UNL     1       0.735   1.316  18.705  0.00  0.00    +0.000 OA
ATOM     29  H   UNL     1       0.248   1.268  19.547  0.00  0.00    +0.000 HD
ENDBRANCH  27  28
ENDBRANCH   6  27
TORSDOF 5
ENDMDL
MODEL 8
REMARK VINA RESULT:      -6.4      2.512      8.696
REMARK  Name = 
REMARK  9 active torsions:
REMARK  status: ('A' for Active; 'I' for Inactive)
REMARK    1  A    between atoms: C_6  and  C_7
REMARK    2  A    between atoms: C_6  and  C_8
REMARK    3  A    between atoms: C_8  and  O_9
REMARK    4  A    between atoms: C_10  and  O_11
REMARK    5  A    between atoms: C_14  and  C_15
REMARK    6  A    between atoms: C_16  and  C_17
REMARK    7  A    between atoms: C_18  and  C_19
REMARK    8  A    between atoms: C_22  and  C_23
REMARK    9  A    between atoms: C_22  and  C_24
REMARK                            x       y       z     vdW  Elec       q    Type
REMARK                         _______ _______ _______ _____ _____    ______ ____
ROOT
ATOM      1  C   UNL     1      -0.547   8.176  22.179  0.00  0.00    +0.000 C 
ATOM      2  C   UNL     1      -0.081   9.432  22.036  0.00  0.00    +0.000 C 
ATOM      3  C   UNL     1      -0.697  10.566  22.826  0.00  0.00    +0.000 C 
ATOM      4  C   UNL     1      -1.154  11.764  21.969  0.00  0.00    +0.000 C 
ATOM      5  C   UNL     1      -0.104  12.204  20.927  0.00  0.00    +0.000 C 
ATOM      6  C   UNL     1      -0.444  13.502  20.057  0.00  0.00    +0.000 C 
ATOM      7  C   UNL     1      -1.000  14.639  20.952  0.00  0.00    +0.000 C 
ATOM      8  C   UNL     1       0.916  13.942  19.449  0.00  0.00    +0.000 C 
ATOM      9  C   UNL     1       1.528  12.863  18.556  0.00  0.00    +0.000 C 
ATOM     10  C   UNL     1       1.571  11.456  19.146  0.00  0.00    +0.000 C 
ATOM     11  C   UNL     1       0.411  10.986  20.080  0.00  0.00    +0.000 C 
ATOM     12  C   UNL     1      -0.757  10.321  19.284  0.00  0.00    +0.000 C 
ATOM     13  C   UNL     1       1.009   9.861  21.042  0.00  0.00    +0.000 C 
ENDROOT
BRANCH   8  14
ATOM     14  O   UNL     1       0.797  15.159  18.707  0.00  0.00    +0.000 OA
ATOM     15  H   UNL     1      -0.122  15.474  18.754  0.00  0.00    +0.000 HD
ENDBRANCH   8  14
BRANCH  13  16
ATOM     16  C   UNL     1       1.544   8.692  20.217  0.00  0.00    +0.000 C 
ATOM     17  C   UNL     1       1.919   7.457  20.612  0.00  0.00    +0.000 C 
BRANCH  17  18
ATOM     18  C   UNL     1       2.413   6.485  19.670  0.00  0.00    +0.000 C 
ATOM     19  C   UNL     1       3.259   6.673  18.656  0.00  0.00    +0.000 C 
ATOM     20  C   UNL     1       3.506   5.448  17.980  0.00  0.00    +0.000 C 
ATOM     21  C   UNL     1       4.330   5.243  16.933  0.00  0.00    +0.000 C 
ATOM     22  C   UNL     1       5.134   6.329  16.257  0.00  0.00    +0.000 C 
ATOM     23  C   UNL     1       4.534   3.884  16.317  0.00  0.00    +0.000 C 
ATOM     24  O   UNL     1       2.758   4.439  18.581  0.00  0.00    +0.000 OA
ATOM     25  C   UNL     1       2.062   5.044  19.596  0.00  0.00    +0.000 C 
ATOM     26  O   UNL     1       1.272   4.493  20.344  0.00  0.00    +0.000 OA
ENDBRANCH  17  18
ENDBRANCH  13  16
BRANCH   6  27
ATOM     27  C   UNL     1      -1.463  13.372  18.891  0.00  0.00    +0.000 C 
BRANCH  27  28
ATOM     28  O   UNL     1      -2.778  13.104  19.358  0.00  0.00    +0.000 OA
ATOM     29  H   UNL     1      -3.296  12.808  18.589  0.00  0.00    +0.000 HD
ENDBRANCH  27  28
ENDBRANCH   6  27
TORSDOF 5
ENDMDL
MODEL 9
REMARK VINA RESULT:      -6.3      4.440      7.712
REMARK  Name = 
REMARK  9 active torsions:
REMARK  status: ('A' for Active; 'I' for Inactive)
REMARK    1  A    between atoms: C_6  and  C_7
REMARK    2  A    between atoms: C_6  and  C_8
REMARK    3  A    between atoms: C_8  and  O_9
REMARK    4  A    between atoms: C_10  and  O_11
REMARK    5  A    between atoms: C_14  and  C_15
REMARK    6  A    between atoms: C_16  and  C_17
REMARK    7  A    between atoms: C_18  and  C_19
REMARK    8  A    between atoms: C_22  and  C_23
REMARK    9  A    between atoms: C_22  and  C_24
REMARK                            x       y       z     vdW  Elec       q    Type
REMARK                         _______ _______ _______ _____ _____    ______ ____
ROOT
ATOM      1  C   UNL     1       6.029   6.940  17.221  0.00  0.00    +0.000 C 
ATOM      2  C   UNL     1       4.785   6.520  17.522  0.00  0.00    +0.000 C 
ATOM      3  C   UNL     1       4.053   7.103  18.711  0.00  0.00    +0.000 C 
ATOM      4  C   UNL     1       3.510   6.053  19.702  0.00  0.00    +0.000 C 
ATOM      5  C   UNL     1       2.780   4.883  19.009  0.00  0.00    +0.000 C 
ATOM      6  C   UNL     1       2.094   3.793  19.958  0.00  0.00    +0.000 C 
ATOM      7  C   UNL     1       1.306   4.474  21.105  0.00  0.00    +0.000 C 
ATOM      8  C   UNL     1       1.105   3.028  19.036  0.00  0.00    +0.000 C 
ATOM      9  C   UNL     1       1.815   2.334  17.873  0.00  0.00    +0.000 C 
ATOM     10  C   UNL     1       2.810   3.190  17.093  0.00  0.00    +0.000 C 
ATOM     11  C   UNL     1       3.647   4.268  17.854  0.00  0.00    +0.000 C 
ATOM     12  C   UNL     1       4.991   3.692  18.404  0.00  0.00    +0.000 C 
ATOM     13  C   UNL     1       4.032   5.397  16.794  0.00  0.00    +0.000 C 
ENDROOT
BRANCH   8  14
ATOM     14  O   UNL     1       0.336   2.066  19.763  0.00  0.00    +0.000 OA
ATOM     15  H   UNL     1      -0.428   1.795  19.226  0.00  0.00    +0.000 HD
ENDBRANCH   8  14
BRANCH  13  16
ATOM     16  C   UNL     1       4.843   4.792  15.649  0.00  0.00    +0.000 C 
ATOM     17  C   UNL     1       5.526   5.403  14.659  0.00  0.00    +0.000 C 
BRANCH  17  18
ATOM     18  C   UNL     1       6.230   4.646  13.654  0.00  0.00    +0.000 C 
ATOM     19  C   UNL     1       5.829   3.544  13.017  0.00  0.00    +0.000 C 
ATOM     20  C   UNL     1       6.815   3.121  12.086  0.00  0.00    +0.000 C 
ATOM     21  C   UNL     1       6.745   2.073  11.242  0.00  0.00    +0.000 C 
ATOM     22  C   UNL     1       5.579   1.115  11.167  0.00  0.00    +0.000 C 
ATOM     23  C   UNL     1       7.849   1.740  10.272  0.00  0.00    +0.000 C 
ATOM     24  O   UNL     1       7.905   3.985  12.156  0.00  0.00    +0.000 OA
ATOM     25  C   UNL     1       7.590   4.907  13.120  0.00  0.00    +0.000 C 
ATOM     26  O   UNL     1       8.307   5.822  13.491  0.00  0.00    +0.000 OA
ENDBRANCH  17  18
ENDBRANCH  13  16
BRANCH   6  27
ATOM     27  C   UNL     1       2.997   2.740  20.658  0.00  0.00    +0.000 C 
BRANCH  27  28
ATOM     28  O   UNL     1       2.578   2.480  21.991  0.00  0.00    +0.000 OA
ATOM     29  H   UNL     1       2.232   1.570  22.006  0.00  0.00    +0.000 HD
ENDBRANCH  27  28
ENDBRANCH   6  27
TORSDOF 5
ENDMDL
