MODEL 1
REMARK VINA RESULT:      -7.5      0.000      0.000
REMARK  Name = 
REMARK  3 active torsions:
REMARK  status: ('A' for Active; 'I' for Inactive)
REMARK    1  A    between atoms: S_2  and  N_4
REMARK    2  A    between atoms: S_2  and  C_12
REMARK    3  A    between atoms: N_4  and  C_5
REMARK                            x       y       z     vdW  Elec       q    Type
REMARK                         _______ _______ _______ _____ _____    ______ ____
ROOT
ATOM      1  O   UNL     1       4.805   6.250  18.733  0.00  0.00    +0.000 OA
ATOM      2  S   UNL     1       5.486   4.974  18.649  0.00  0.00    +0.000 S 
ATOM      3  O   UNL     1       6.715   4.711  19.352  0.00  0.00    +0.000 OA
ENDROOT
BRANCH   2   4
ATOM      4  C   UNL     1       5.825   4.738  16.921  0.00  0.00    +0.000 A 
ATOM      5  C   UNL     1       7.043   5.088  16.330  0.00  0.00    +0.000 A 
ATOM      6  C   UNL     1       7.255   4.797  14.979  0.00  0.00    +0.000 A 
ATOM      7  C   UNL     1       6.257   4.168  14.231  0.00  0.00    +0.000 A 
ATOM      8 BR   UNL     1       6.560   3.762  12.410  0.00  0.00    +0.000 Br
ATOM      9  C   UNL     1       5.040   3.826  14.818  0.00  0.00    +0.000 A 
ATOM     10  C   UNL     1       4.823   4.112  16.166  0.00  0.00    +0.000 A 
ENDBRANCH   2   4
BRANCH   2  11
ATOM     11  N   UNL     1       4.339   3.815  19.063  0.00  0.00    +0.000 NA
ATOM     12  H   UNL     1       4.682   2.859  19.003  0.00  0.00    +0.000 HD
BRANCH  11  13
ATOM     13  C   UNL     1       3.252   4.117  19.995  0.00  0.00    +0.000 C 
ATOM     14  C   UNL     1       2.762   2.832  20.704  0.00  0.00    +0.000 C 
ATOM     15  C   UNL     1       1.254   2.794  20.381  0.00  0.00    +0.000 C 
ATOM     16  C   UNL     1       1.064   2.397  18.908  0.00  0.00    +0.000 C 
ATOM     17  C   UNL     1       1.557   3.638  18.154  0.00  0.00    +0.000 C 
ATOM     18  C   UNL     1       1.960   4.599  19.294  0.00  0.00    +0.000 C 
ATOM     19  C   UNL     1       0.902   4.278  20.348  0.00  0.00    +0.000 C 
ENDBRANCH  11  13
ENDBRANCH   2  11
TORSDOF 3
ENDMDL
MODEL 2
REMARK VINA RESULT:      -7.4      0.156      1.152
REMARK  Name = 
REMARK  3 active torsions:
REMARK  status: ('A' for Active; 'I' for Inactive)
REMARK    1  A    between atoms: S_2  and  N_4
REMARK    2  A    between atoms: S_2  and  C_12
REMARK    3  A    between atoms: N_4  and  C_5
REMARK                            x       y       z     vdW  Elec       q    Type
REMARK                         _______ _______ _______ _____ _____    ______ ____
ROOT
ATOM      1  O   UNL     1       4.652   6.220  18.601  0.00  0.00    +0.000 OA
ATOM      2  S   UNL     1       5.403   4.982  18.618  0.00  0.00    +0.000 S 
ATOM      3  O   UNL     1       6.643   4.844  19.338  0.00  0.00    +0.000 OA
ENDROOT
BRANCH   2   4
ATOM      4  C   UNL     1       5.761   4.629  16.913  0.00  0.00    +0.000 A 
ATOM      5  C   UNL     1       4.827   4.059  16.042  0.00  0.00    +0.000 A 
ATOM      6  C   UNL     1       5.166   3.884  14.696  0.00  0.00    +0.000 A 
ATOM      7  C   UNL     1       6.426   4.274  14.234  0.00  0.00    +0.000 A 
ATOM      8 BR   UNL     1       6.867   4.053  12.409  0.00  0.00    +0.000 Br
ATOM      9  C   UNL     1       7.358   4.835  15.103  0.00  0.00    +0.000 A 
ATOM     10  C   UNL     1       7.026   5.013  16.446  0.00  0.00    +0.000 A 
ENDBRANCH   2   4
BRANCH   2  11
ATOM     11  N   UNL     1       4.322   3.797  19.123  0.00  0.00    +0.000 NA
ATOM     12  H   UNL     1       4.713   2.858  19.126  0.00  0.00    +0.000 HD
BRANCH  11  13
ATOM     13  C   UNL     1       3.226   4.107  20.041  0.00  0.00    +0.000 C 
ATOM     14  C   UNL     1       2.742   2.830  20.771  0.00  0.00    +0.000 C 
ATOM     15  C   UNL     1       1.236   2.775  20.439  0.00  0.00    +0.000 C 
ATOM     16  C   UNL     1       1.060   2.349  18.972  0.00  0.00    +0.000 C 
ATOM     17  C   UNL     1       1.548   3.580  18.199  0.00  0.00    +0.000 C 
ATOM     18  C   UNL     1       1.935   4.565  19.323  0.00  0.00    +0.000 C 
ATOM     19  C   UNL     1       0.872   4.255  20.376  0.00  0.00    +0.000 C 
ENDBRANCH  11  13
ENDBRANCH   2  11
TORSDOF 3
ENDMDL
MODEL 3
REMARK VINA RESULT:      -7.0      0.804      1.212
REMARK  Name = 
REMARK  3 active torsions:
REMARK  status: ('A' for Active; 'I' for Inactive)
REMARK    1  A    between atoms: S_2  and  N_4
REMARK    2  A    between atoms: S_2  and  C_12
REMARK    3  A    between atoms: N_4  and  C_5
REMARK                            x       y       z     vdW  Elec       q    Type
REMARK                         _______ _______ _______ _____ _____    ______ ____
ROOT
ATOM      1  O   UNL     1       4.807   6.231  18.515  0.00  0.00    +0.000 OA
ATOM      2  S   UNL     1       5.226   4.855  18.346  0.00  0.00    +0.000 S 
ATOM      3  O   UNL     1       6.254   4.258  19.159  0.00  0.00    +0.000 OA
ENDROOT
BRANCH   2   4
ATOM      4  C   UNL     1       5.775   4.737  16.660  0.00  0.00    +0.000 A 
ATOM      5  C   UNL     1       7.067   5.087  16.255  0.00  0.00    +0.000 A 
ATOM      6  C   UNL     1       7.441   4.892  14.921  0.00  0.00    +0.000 A 
ATOM      7  C   UNL     1       6.530   4.356  14.008  0.00  0.00    +0.000 A 
ATOM      8 BR   UNL     1       7.051   4.078  12.213  0.00  0.00    +0.000 Br
ATOM      9  C   UNL     1       5.241   4.014  14.410  0.00  0.00    +0.000 A 
ATOM     10  C   UNL     1       4.861   4.205  15.739  0.00  0.00    +0.000 A 
ENDBRANCH   2   4
BRANCH   2  11
ATOM     11  N   UNL     1       3.822   3.933  18.445  0.00  0.00    +0.000 NA
ATOM     12  H   UNL     1       3.477   3.612  17.543  0.00  0.00    +0.000 HD
BRANCH  11  13
ATOM     13  C   UNL     1       3.508   3.150  19.640  0.00  0.00    +0.000 C 
ATOM     14  C   UNL     1       2.273   2.248  19.398  0.00  0.00    +0.000 C 
ATOM     15  C   UNL     1       1.300   2.660  20.522  0.00  0.00    +0.000 C 
ATOM     16  C   UNL     1       0.711   4.042  20.197  0.00  0.00    +0.000 C 
ATOM     17  C   UNL     1       1.908   4.979  20.404  0.00  0.00    +0.000 C 
ATOM     18  C   UNL     1       3.034   4.014  20.832  0.00  0.00    +0.000 C 
ATOM     19  C   UNL     1       2.258   2.992  21.662  0.00  0.00    +0.000 C 
ENDBRANCH  11  13
ENDBRANCH   2  11
TORSDOF 3
ENDMDL
MODEL 4
REMARK VINA RESULT:      -6.8      0.703      1.632
REMARK  Name = 
REMARK  3 active torsions:
REMARK  status: ('A' for Active; 'I' for Inactive)
REMARK    1  A    between atoms: S_2  and  N_4
REMARK    2  A    between atoms: S_2  and  C_12
REMARK    3  A    between atoms: N_4  and  C_5
REMARK                            x       y       z     vdW  Elec       q    Type
REMARK                         _______ _______ _______ _____ _____    ______ ____
ROOT
ATOM      1  O   UNL     1       4.992   6.558  18.525  0.00  0.00    +0.000 OA
ATOM      2  S   UNL     1       5.641   5.266  18.612  0.00  0.00    +0.000 S 
ATOM      3  O   UNL     1       6.909   5.085  19.271  0.00  0.00    +0.000 OA
ENDROOT
BRANCH   2   4
ATOM      4  C   UNL     1       5.860   4.739  16.929  0.00  0.00    +0.000 A 
ATOM      5  C   UNL     1       4.911   3.975  16.242  0.00  0.00    +0.000 A 
ATOM      6  C   UNL     1       5.128   3.667  14.895  0.00  0.00    +0.000 A 
ATOM      7  C   UNL     1       6.282   4.117  14.249  0.00  0.00    +0.000 A 
ATOM      8 BR   UNL     1       6.557   3.712  12.424  0.00  0.00    +0.000 Br
ATOM      9  C   UNL     1       7.231   4.871  14.936  0.00  0.00    +0.000 A 
ATOM     10  C   UNL     1       7.020   5.183  16.279  0.00  0.00    +0.000 A 
ENDBRANCH   2   4
BRANCH   2  11
ATOM     11  N   UNL     1       4.502   4.226  19.283  0.00  0.00    +0.000 NA
ATOM     12  H   UNL     1       4.844   3.708  20.089  0.00  0.00    +0.000 HD
BRANCH  11  13
ATOM     13  C   UNL     1       3.068   4.494  19.174  0.00  0.00    +0.000 C 
ATOM     14  C   UNL     1       2.499   5.001  20.521  0.00  0.00    +0.000 C 
ATOM     15  C   UNL     1       1.364   4.003  20.832  0.00  0.00    +0.000 C 
ATOM     16  C   UNL     1       1.977   2.663  21.269  0.00  0.00    +0.000 C 
ATOM     17  C   UNL     1       2.577   2.122  19.965  0.00  0.00    +0.000 C 
ATOM     18  C   UNL     1       2.223   3.220  18.938  0.00  0.00    +0.000 C 
ATOM     19  C   UNL     1       0.849   3.667  19.436  0.00  0.00    +0.000 C 
ENDBRANCH  11  13
ENDBRANCH   2  11
TORSDOF 3
ENDMDL
MODEL 5
REMARK VINA RESULT:      -6.7      3.315      4.133
REMARK  Name = 
REMARK  3 active torsions:
REMARK  status: ('A' for Active; 'I' for Inactive)
REMARK    1  A    between atoms: S_2  and  N_4
REMARK    2  A    between atoms: S_2  and  C_12
REMARK    3  A    between atoms: N_4  and  C_5
REMARK                            x       y       z     vdW  Elec       q    Type
REMARK                         _______ _______ _______ _____ _____    ______ ____
ROOT
ATOM      1  O   UNL     1       6.269   4.995  19.641  0.00  0.00    +0.000 OA
ATOM      2  S   UNL     1       5.233   4.600  18.710  0.00  0.00    +0.000 S 
ATOM      3  O   UNL     1       5.530   4.146  17.375  0.00  0.00    +0.000 OA
ENDROOT
BRANCH   2   4
ATOM      4  C   UNL     1       4.186   6.027  18.542  0.00  0.00    +0.000 A 
ATOM      5  C   UNL     1       4.209   6.858  17.418  0.00  0.00    +0.000 A 
ATOM      6  C   UNL     1       3.298   7.916  17.333  0.00  0.00    +0.000 A 
ATOM      7  C   UNL     1       2.380   8.137  18.363  0.00  0.00    +0.000 A 
ATOM      8 BR   UNL     1       1.140   9.557  18.230  0.00  0.00    +0.000 Br
ATOM      9  C   UNL     1       2.363   7.313  19.486  0.00  0.00    +0.000 A 
ATOM     10  C   UNL     1       3.268   6.255  19.577  0.00  0.00    +0.000 A 
ENDBRANCH   2   4
BRANCH   2  11
ATOM     11  N   UNL     1       4.316   3.439  19.510  0.00  0.00    +0.000 NA
ATOM     12  H   UNL     1       4.197   3.623  20.504  0.00  0.00    +0.000 HD
BRANCH  11  13
ATOM     13  C   UNL     1       3.295   2.659  18.811  0.00  0.00    +0.000 C 
ATOM     14  C   UNL     1       2.340   3.587  18.021  0.00  0.00    +0.000 C 
ATOM     15  C   UNL     1       0.945   3.219  18.570  0.00  0.00    +0.000 C 
ATOM     16  C   UNL     1       0.794   3.794  19.988  0.00  0.00    +0.000 C 
ATOM     17  C   UNL     1       1.742   2.917  20.814  0.00  0.00    +0.000 C 
ATOM     18  C   UNL     1       2.313   1.939  19.765  0.00  0.00    +0.000 C 
ATOM     19  C   UNL     1       1.102   1.729  18.856  0.00  0.00    +0.000 C 
ENDBRANCH  11  13
ENDBRANCH   2  11
TORSDOF 3
ENDMDL
MODEL 6
REMARK VINA RESULT:      -6.7      0.747      1.233
REMARK  Name = 
REMARK  3 active torsions:
REMARK  status: ('A' for Active; 'I' for Inactive)
REMARK    1  A    between atoms: S_2  and  N_4
REMARK    2  A    between atoms: S_2  and  C_12
REMARK    3  A    between atoms: N_4  and  C_5
REMARK                            x       y       z     vdW  Elec       q    Type
REMARK                         _______ _______ _______ _____ _____    ______ ____
ROOT
ATOM      1  O   UNL     1       4.467   6.679  18.231  0.00  0.00    +0.000 OA
ATOM      2  S   UNL     1       5.298   5.498  18.337  0.00  0.00    +0.000 S 
ATOM      3  O   UNL     1       6.527   5.488  19.089  0.00  0.00    +0.000 OA
ENDROOT
BRANCH   2   4
ATOM      4  C   UNL     1       5.719   5.069  16.665  0.00  0.00    +0.000 A 
ATOM      5  C   UNL     1       6.947   5.397  16.082  0.00  0.00    +0.000 A 
ATOM      6  C   UNL     1       7.227   4.955  14.785  0.00  0.00    +0.000 A 
ATOM      7  C   UNL     1       6.285   4.197  14.083  0.00  0.00    +0.000 A 
ATOM      8 BR   UNL     1       6.681   3.587  12.339  0.00  0.00    +0.000 Br
ATOM      9  C   UNL     1       5.059   3.877  14.662  0.00  0.00    +0.000 A 
ATOM     10  C   UNL     1       4.774   4.314  15.956  0.00  0.00    +0.000 A 
ENDBRANCH   2   4
BRANCH   2  11
ATOM     11  N   UNL     1       4.287   4.274  18.894  0.00  0.00    +0.000 NA
ATOM     12  H   UNL     1       4.754   3.594  19.488  0.00  0.00    +0.000 HD
BRANCH  11  13
ATOM     13  C   UNL     1       2.851   4.493  19.066  0.00  0.00    +0.000 C 
ATOM     14  C   UNL     1       2.539   5.001  20.494  0.00  0.00    +0.000 C 
ATOM     15  C   UNL     1       1.523   3.970  21.030  0.00  0.00    +0.000 C 
ATOM     16  C   UNL     1       2.257   2.658  21.348  0.00  0.00    +0.000 C 
ATOM     17  C   UNL     1       2.608   2.118  19.956  0.00  0.00    +0.000 C 
ATOM     18  C   UNL     1       2.021   3.188  19.011  0.00  0.00    +0.000 C 
ATOM     19  C   UNL     1       0.756   3.597  19.765  0.00  0.00    +0.000 C 
ENDBRANCH  11  13
ENDBRANCH   2  11
TORSDOF 3
ENDMDL
MODEL 7
REMARK VINA RESULT:      -6.7      4.180      6.560
REMARK  Name = 
REMARK  3 active torsions:
REMARK  status: ('A' for Active; 'I' for Inactive)
REMARK    1  A    between atoms: S_2  and  N_4
REMARK    2  A    between atoms: S_2  and  C_12
REMARK    3  A    between atoms: N_4  and  C_5
REMARK                            x       y       z     vdW  Elec       q    Type
REMARK                         _______ _______ _______ _____ _____    ______ ____
ROOT
ATOM      1  O   UNL     1       1.999   5.163  17.967  0.00  0.00    +0.000 OA
ATOM      2  S   UNL     1       2.864   5.856  18.899  0.00  0.00    +0.000 S 
ATOM      3  O   UNL     1       3.061   5.399  20.251  0.00  0.00    +0.000 OA
ENDROOT
BRANCH   2   4
ATOM      4  C   UNL     1       2.209   7.505  19.008  0.00  0.00    +0.000 A 
ATOM      5  C   UNL     1       2.159   8.377  17.916  0.00  0.00    +0.000 A 
ATOM      6  C   UNL     1       1.557   9.630  18.070  0.00  0.00    +0.000 A 
ATOM      7  C   UNL     1       1.017  10.002  19.304  0.00  0.00    +0.000 A 
ATOM      8 BR   UNL     1       0.189  11.690  19.497  0.00  0.00    +0.000 Br
ATOM      9  C   UNL     1       1.074   9.136  20.394  0.00  0.00    +0.000 A 
ATOM     10  C   UNL     1       1.672   7.885  20.246  0.00  0.00    +0.000 A 
ENDBRANCH   2   4
BRANCH   2  11
ATOM     11  N   UNL     1       4.352   5.995  18.127  0.00  0.00    +0.000 NA
ATOM     12  H   UNL     1       5.147   5.977  18.762  0.00  0.00    +0.000 HD
BRANCH  11  13
ATOM     13  C   UNL     1       4.540   5.544  16.748  0.00  0.00    +0.000 C 
ATOM     14  C   UNL     1       4.914   4.042  16.707  0.00  0.00    +0.000 C 
ATOM     15  C   UNL     1       6.248   4.024  15.932  0.00  0.00    +0.000 C 
ATOM     16  C   UNL     1       7.363   4.571  16.838  0.00  0.00    +0.000 C 
ATOM     17  C   UNL     1       7.027   6.065  16.929  0.00  0.00    +0.000 C 
ATOM     18  C   UNL     1       5.762   6.189  16.053  0.00  0.00    +0.000 C 
ATOM     19  C   UNL     1       6.057   5.175  14.949  0.00  0.00    +0.000 C 
ENDBRANCH  11  13
ENDBRANCH   2  11
TORSDOF 3
ENDMDL
MODEL 8
REMARK VINA RESULT:      -6.6      4.042      6.371
REMARK  Name = 
REMARK  3 active torsions:
REMARK  status: ('A' for Active; 'I' for Inactive)
REMARK    1  A    between atoms: S_2  and  N_4
REMARK    2  A    between atoms: S_2  and  C_12
REMARK    3  A    between atoms: N_4  and  C_5
REMARK                            x       y       z     vdW  Elec       q    Type
REMARK                         _______ _______ _______ _____ _____    ______ ____
ROOT
ATOM      1  O   UNL     1       2.187   4.787  18.412  0.00  0.00    +0.000 OA
ATOM      2  S   UNL     1       2.789   5.523  19.504  0.00  0.00    +0.000 S 
ATOM      3  O   UNL     1       2.566   5.172  20.883  0.00  0.00    +0.000 OA
ENDROOT
BRANCH   2   4
ATOM      4  C   UNL     1       2.226   7.198  19.306  0.00  0.00    +0.000 A 
ATOM      5  C   UNL     1       2.314   7.890  18.094  0.00  0.00    +0.000 A 
ATOM      6  C   UNL     1       1.778   9.179  18.005  0.00  0.00    +0.000 A 
ATOM      7  C   UNL     1       1.166   9.764  19.117  0.00  0.00    +0.000 A 
ATOM      8 BR   UNL     1       0.427  11.498  18.980  0.00  0.00    +0.000 Br
ATOM      9  C   UNL     1       1.086   9.076  20.326  0.00  0.00    +0.000 A 
ATOM     10  C   UNL     1       1.618   7.790  20.421  0.00  0.00    +0.000 A 
ENDBRANCH   2   4
BRANCH   2  11
ATOM     11  N   UNL     1       4.441   5.545  19.187  0.00  0.00    +0.000 NA
ATOM     12  H   UNL     1       5.017   5.665  20.017  0.00  0.00    +0.000 HD
BRANCH  11  13
ATOM     13  C   UNL     1       5.004   4.843  18.033  0.00  0.00    +0.000 C 
ATOM     14  C   UNL     1       6.494   4.499  18.273  0.00  0.00    +0.000 C 
ATOM     15  C   UNL     1       7.213   5.155  17.075  0.00  0.00    +0.000 C 
ATOM     16  C   UNL     1       7.237   6.679  17.275  0.00  0.00    +0.000 C 
ATOM     17  C   UNL     1       5.770   7.073  17.067  0.00  0.00    +0.000 C 
ATOM     18  C   UNL     1       5.087   5.722  16.762  0.00  0.00    +0.000 C 
ATOM     19  C   UNL     1       6.176   5.005  15.965  0.00  0.00    +0.000 C 
ENDBRANCH  11  13
ENDBRANCH   2  11
TORSDOF 3
ENDMDL
MODEL 9
REMARK VINA RESULT:      -6.6      3.966      5.246
REMARK  Name = 
REMARK  3 active torsions:
REMARK  status: ('A' for Active; 'I' for Inactive)
REMARK    1  A    between atoms: S_2  and  N_4
REMARK    2  A    between atoms: S_2  and  C_12
REMARK    3  A    between atoms: N_4  and  C_5
REMARK                            x       y       z     vdW  Elec       q    Type
REMARK                         _______ _______ _______ _____ _____    ______ ____
ROOT
ATOM      1  O   UNL     1       4.881   5.916  19.037  0.00  0.00    +0.000 OA
ATOM      2  S   UNL     1       3.989   6.183  17.927  0.00  0.00    +0.000 S 
ATOM      3  O   UNL     1       4.461   6.699  16.668  0.00  0.00    +0.000 OA
ENDROOT
BRANCH   2   4
ATOM      4  C   UNL     1       2.807   7.356  18.549  0.00  0.00    +0.000 A 
ATOM      5  C   UNL     1       2.305   7.310  19.854  0.00  0.00    +0.000 A 
ATOM      6  C   UNL     1       1.435   8.317  20.286  0.00  0.00    +0.000 A 
ATOM      7  C   UNL     1       1.074   9.352  19.420  0.00  0.00    +0.000 A 
ATOM      8 BR   UNL     1      -0.085  10.719  20.020  0.00  0.00    +0.000 Br
ATOM      9  C   UNL     1       1.569   9.393  18.118  0.00  0.00    +0.000 A 
ATOM     10  C   UNL     1       2.437   8.393  17.681  0.00  0.00    +0.000 A 
ENDBRANCH   2   4
BRANCH   2  11
ATOM     11  N   UNL     1       3.138   4.755  17.669  0.00  0.00    +0.000 NA
ATOM     12  H   UNL     1       2.835   4.626  16.707  0.00  0.00    +0.000 HD
BRANCH  11  13
ATOM     13  C   UNL     1       3.363   3.573  18.502  0.00  0.00    +0.000 C 
ATOM     14  C   UNL     1       2.771   2.309  17.835  0.00  0.00    +0.000 C 
ATOM     15  C   UNL     1       1.804   1.755  18.904  0.00  0.00    +0.000 C 
ATOM     16  C   UNL     1       0.559   2.653  18.969  0.00  0.00    +0.000 C 
ATOM     17  C   UNL     1       1.098   3.938  19.610  0.00  0.00    +0.000 C 
ATOM     18  C   UNL     1       2.589   3.611  19.841  0.00  0.00    +0.000 C 
ATOM     19  C   UNL     1       2.521   2.127  20.198  0.00  0.00    +0.000 C 
ENDBRANCH  11  13
ENDBRANCH   2  11
TORSDOF 3
ENDMDL
