MODEL 1
REMARK VINA RESULT:     -10.0      0.000      0.000
REMARK  Name = 
REMARK  7 active torsions:
REMARK  status: ('A' for Active; 'I' for Inactive)
REMARK    1  A    between atoms: C_1  and  C_2
REMARK    2  A    between atoms: C_2  and  C_3
REMARK    3  A    between atoms: C_2  and  C_4
REMARK    4  A    between atoms: C_2  and  N_5
REMARK    5  A    between atoms: C_6  and  C_7
REMARK    6  A    between atoms: C_13  and  N_14
REMARK    7  A    between atoms: C_22  and  C_23
REMARK                            x       y       z     vdW  Elec       q    Type
REMARK                         _______ _______ _______ _____ _____    ______ ____
ROOT
ATOM      1  N   UNL     1       3.578   4.468  18.217  0.00  0.00    +0.000 N 
ATOM      2  C   UNL     1       4.283   5.276  17.265  0.00  0.00    +0.000 A 
ATOM      3  N   UNL     1       3.897   6.532  17.435  0.00  0.00    +0.000 NA
ATOM      4  C   UNL     1       3.101   6.607  18.532  0.00  0.00    +0.000 A 
ATOM      5  C   UNL     1       2.560   7.758  19.162  0.00  0.00    +0.000 A 
ATOM      6  C   UNL     1       1.677   7.642  20.254  0.00  0.00    +0.000 A 
ATOM      7  C   UNL     1       1.372   6.345  20.677  0.00  0.00    +0.000 A 
ATOM      8  C   UNL     1       1.927   5.201  20.087  0.00  0.00    +0.000 A 
ATOM      9  C   UNL     1       2.821   5.340  19.014  0.00  0.00    +0.000 A 
ENDROOT
BRANCH   6  10
ATOM     10  C   UNL     1       1.030   8.804  20.910  0.00  0.00    +0.000 A 
ATOM     11  C   UNL     1       0.186   9.686  20.268  0.00  0.00    +0.000 A 
ATOM     12  N   UNL     1      -0.501  10.684  20.875  0.00  0.00    +0.000 NA
ATOM     13  C   UNL     1      -0.350  10.797  22.195  0.00  0.00    +0.000 A 
ATOM     14  N   UNL     1      -1.083  11.763  22.851  0.00  0.00    +0.000 N 
ATOM     15  N   UNL     1       0.482  10.054  22.924  0.00  0.00    +0.000 NA
ATOM     16  C   UNL     1       1.148   9.081  22.265  0.00  0.00    +0.000 A 
ATOM     17  H   UNL     1      -1.325  12.503  22.210  0.00  0.00    +0.000 HD
ATOM     18  H   UNL     1      -0.623  12.016  23.713  0.00  0.00    +0.000 HD
ENDBRANCH   6  10
BRANCH   2  19
ATOM     19  C   UNL     1       5.236   4.925  16.138  0.00  0.00    +0.000 A 
ATOM     20  C   UNL     1       4.824   4.340  14.927  0.00  0.00    +0.000 A 
ATOM     21  C   UNL     1       5.646   4.208  13.808  0.00  0.00    +0.000 A 
ATOM     22 BR   UNL     1       4.970   3.428  12.229  0.00  0.00    +0.000 Br
ATOM     23  C   UNL     1       6.925   4.690  13.881  0.00  0.00    +0.000 A 
ATOM     24  N   UNL     1       7.416   5.234  15.008  0.00  0.00    +0.000 NA
ATOM     25  C   UNL     1       6.608   5.276  16.134  0.00  0.00    +0.000 A 
BRANCH  25  26
ATOM     26  N   UNL     1       7.340   5.580  17.319  0.00  0.00    +0.000 N 
ATOM     27  C   UNL     1       7.569   4.702  18.357  0.00  0.00    +0.000 A 
ATOM     28  N   UNL     1       8.066   5.328  19.398  0.00  0.00    +0.000 NA
ATOM     29  C   UNL     1       8.056   6.626  18.985  0.00  0.00    +0.000 A 
ATOM     30  N   UNL     1       7.574   6.846  17.761  0.00  0.00    +0.000 NA
ENDBRANCH  25  26
ENDBRANCH   2  19
BRANCH   1  32
ATOM     31  C   UNL     1       2.229   2.379  18.163  0.00  0.00    +0.000 C 
ATOM     32  C   UNL     1       3.639   2.992  18.387  0.00  0.00    +0.000 C 
ATOM     33  C   UNL     1       4.344   2.625  19.726  0.00  0.00    +0.000 C 
ATOM     34  C   UNL     1       4.504   2.204  17.362  0.00  0.00    +0.000 C 
ENDBRANCH   1  32
TORSDOF 4
ENDMDL
MODEL 2
REMARK VINA RESULT:      -9.7      0.706      1.452
REMARK  Name = 
REMARK  7 active torsions:
REMARK  status: ('A' for Active; 'I' for Inactive)
REMARK    1  A    between atoms: C_1  and  C_2
REMARK    2  A    between atoms: C_2  and  C_3
REMARK    3  A    between atoms: C_2  and  C_4
REMARK    4  A    between atoms: C_2  and  N_5
REMARK    5  A    between atoms: C_6  and  C_7
REMARK    6  A    between atoms: C_13  and  N_14
REMARK    7  A    between atoms: C_22  and  C_23
REMARK                            x       y       z     vdW  Elec       q    Type
REMARK                         _______ _______ _______ _____ _____    ______ ____
ROOT
ATOM      1  N   UNL     1       3.327   4.623  18.554  0.00  0.00    +0.000 N 
ATOM      2  C   UNL     1       4.064   5.435  17.630  0.00  0.00    +0.000 A 
ATOM      3  N   UNL     1       3.655   6.687  17.774  0.00  0.00    +0.000 NA
ATOM      4  C   UNL     1       2.809   6.758  18.834  0.00  0.00    +0.000 A 
ATOM      5  C   UNL     1       2.225   7.906  19.431  0.00  0.00    +0.000 A 
ATOM      6  C   UNL     1       1.295   7.784  20.483  0.00  0.00    +0.000 A 
ATOM      7  C   UNL     1       0.988   6.485  20.899  0.00  0.00    +0.000 A 
ATOM      8  C   UNL     1       1.583   5.346  20.342  0.00  0.00    +0.000 A 
ATOM      9  C   UNL     1       2.524   5.490  19.310  0.00  0.00    +0.000 A 
ENDROOT
BRANCH   6  10
ATOM     10  C   UNL     1       0.604   8.941  21.101  0.00  0.00    +0.000 A 
ATOM     11  C   UNL     1       0.598   9.209  22.454  0.00  0.00    +0.000 A 
ATOM     12  N   UNL     1       0.068  10.319  23.022  0.00  0.00    +0.000 NA
ATOM     13  C   UNL     1      -0.471  11.216  22.196  0.00  0.00    +0.000 A 
ATOM     14  N   UNL     1      -0.962  12.384  22.738  0.00  0.00    +0.000 N 
ATOM     15  N   UNL     1      -0.588  11.051  20.879  0.00  0.00    +0.000 NA
ATOM     16  C   UNL     1      -0.050   9.921  20.367  0.00  0.00    +0.000 A 
ATOM     17  H   UNL     1      -1.210  12.235  23.704  0.00  0.00    +0.000 HD
ATOM     18  H   UNL     1      -1.662  12.779  22.125  0.00  0.00    +0.000 HD
ENDBRANCH   6  10
BRANCH   2  19
ATOM     19  C   UNL     1       5.072   5.090  16.549  0.00  0.00    +0.000 A 
ATOM     20  C   UNL     1       4.733   4.433  15.354  0.00  0.00    +0.000 A 
ATOM     21  C   UNL     1       5.598   4.299  14.268  0.00  0.00    +0.000 A 
ATOM     22 BR   UNL     1       5.018   3.418  12.704  0.00  0.00    +0.000 Br
ATOM     23  C   UNL     1       6.846   4.854  14.360  0.00  0.00    +0.000 A 
ATOM     24  N   UNL     1       7.269   5.470  15.476  0.00  0.00    +0.000 NA
ATOM     25  C   UNL     1       6.423   5.515  16.573  0.00  0.00    +0.000 A 
BRANCH  25  26
ATOM     26  N   UNL     1       7.097   5.908  17.766  0.00  0.00    +0.000 N 
ATOM     27  C   UNL     1       7.735   7.116  17.955  0.00  0.00    +0.000 A 
ATOM     28  N   UNL     1       8.453   7.098  19.054  0.00  0.00    +0.000 NA
ATOM     29  C   UNL     1       8.294   5.815  19.481  0.00  0.00    +0.000 A 
ATOM     30  N   UNL     1       7.535   5.033  18.712  0.00  0.00    +0.000 NA
ENDBRANCH  25  26
ENDBRANCH   2  19
BRANCH   1  32
ATOM     31  C   UNL     1       4.822   2.745  19.206  0.00  0.00    +0.000 C 
ATOM     32  C   UNL     1       3.398   3.149  18.736  0.00  0.00    +0.000 C 
ATOM     33  C   UNL     1       2.857   2.417  17.473  0.00  0.00    +0.000 C 
ATOM     34  C   UNL     1       2.501   2.538  19.850  0.00  0.00    +0.000 C 
ENDBRANCH   1  32
TORSDOF 4
ENDMDL
MODEL 3
REMARK VINA RESULT:      -8.9      1.006      1.342
REMARK  Name = 
REMARK  7 active torsions:
REMARK  status: ('A' for Active; 'I' for Inactive)
REMARK    1  A    between atoms: C_1  and  C_2
REMARK    2  A    between atoms: C_2  and  C_3
REMARK    3  A    between atoms: C_2  and  C_4
REMARK    4  A    between atoms: C_2  and  N_5
REMARK    5  A    between atoms: C_6  and  C_7
REMARK    6  A    between atoms: C_13  and  N_14
REMARK    7  A    between atoms: C_22  and  C_23
REMARK                            x       y       z     vdW  Elec       q    Type
REMARK                         _______ _______ _______ _____ _____    ______ ____
ROOT
ATOM      1  N   UNL     1       3.610   5.089  18.025  0.00  0.00    +0.000 N 
ATOM      2  C   UNL     1       4.304   5.733  16.948  0.00  0.00    +0.000 A 
ATOM      3  N   UNL     1       3.900   6.994  16.901  0.00  0.00    +0.000 NA
ATOM      4  C   UNL     1       3.101   7.244  17.970  0.00  0.00    +0.000 A 
ATOM      5  C   UNL     1       2.543   8.478  18.395  0.00  0.00    +0.000 A 
ATOM      6  C   UNL     1       1.660   8.537  19.491  0.00  0.00    +0.000 A 
ATOM      7  C   UNL     1       1.373   7.327  20.129  0.00  0.00    +0.000 A 
ATOM      8  C   UNL     1       1.945   6.108  19.743  0.00  0.00    +0.000 A 
ATOM      9  C   UNL     1       2.839   6.074  18.661  0.00  0.00    +0.000 A 
ENDROOT
BRANCH   6  10
ATOM     10  C   UNL     1       0.995   9.784  19.939  0.00  0.00    +0.000 A 
ATOM     11  C   UNL     1       0.833  10.146  21.260  0.00  0.00    +0.000 A 
ATOM     12  N   UNL     1       0.330  11.330  21.684  0.00  0.00    +0.000 NA
ATOM     13  C   UNL     1      -0.016  12.206  20.740  0.00  0.00    +0.000 A 
ATOM     14  N   UNL     1      -0.473  13.444  21.139  0.00  0.00    +0.000 N 
ATOM     15  N   UNL     1       0.028  11.959  19.432  0.00  0.00    +0.000 NA
ATOM     16  C   UNL     1       0.530  10.758  19.066  0.00  0.00    +0.000 A 
ATOM     17  H   UNL     1      -0.859  13.383  22.069  0.00  0.00    +0.000 HD
ATOM     18  H   UNL     1      -1.049  13.847  20.414  0.00  0.00    +0.000 HD
ENDBRANCH   6  10
BRANCH   2  19
ATOM     19  C   UNL     1       5.265   5.208  15.897  0.00  0.00    +0.000 A 
ATOM     20  C   UNL     1       4.854   4.481  14.766  0.00  0.00    +0.000 A 
ATOM     21  C   UNL     1       5.690   4.179  13.691  0.00  0.00    +0.000 A 
ATOM     22 BR   UNL     1       5.016   3.217  12.214  0.00  0.00    +0.000 Br
ATOM     23  C   UNL     1       6.982   4.628  13.727  0.00  0.00    +0.000 A 
ATOM     24  N   UNL     1       7.471   5.301  14.782  0.00  0.00    +0.000 NA
ATOM     25  C   UNL     1       6.647   5.515  15.875  0.00  0.00    +0.000 A 
BRANCH  25  26
ATOM     26  N   UNL     1       7.369   5.951  17.025  0.00  0.00    +0.000 N 
ATOM     27  C   UNL     1       7.567   5.204  18.167  0.00  0.00    +0.000 A 
ATOM     28  N   UNL     1       8.062   5.946  19.130  0.00  0.00    +0.000 NA
ATOM     29  C   UNL     1       8.082   7.183  18.560  0.00  0.00    +0.000 A 
ATOM     30  N   UNL     1       7.620   7.257  17.311  0.00  0.00    +0.000 NA
ENDBRANCH  25  26
ENDBRANCH   2  19
BRANCH   1  32
ATOM     31  C   UNL     1       2.283   3.159  18.864  0.00  0.00    +0.000 C 
ATOM     32  C   UNL     1       3.691   3.665  18.445  0.00  0.00    +0.000 C 
ATOM     33  C   UNL     1       4.832   3.467  19.485  0.00  0.00    +0.000 C 
ATOM     34  C   UNL     1       4.094   2.635  17.351  0.00  0.00    +0.000 C 
ENDBRANCH   1  32
TORSDOF 4
ENDMDL
MODEL 4
REMARK VINA RESULT:      -8.9      1.242      1.744
REMARK  Name = 
REMARK  7 active torsions:
REMARK  status: ('A' for Active; 'I' for Inactive)
REMARK    1  A    between atoms: C_1  and  C_2
REMARK    2  A    between atoms: C_2  and  C_3
REMARK    3  A    between atoms: C_2  and  C_4
REMARK    4  A    between atoms: C_2  and  N_5
REMARK    5  A    between atoms: C_6  and  C_7
REMARK    6  A    between atoms: C_13  and  N_14
REMARK    7  A    between atoms: C_22  and  C_23
REMARK                            x       y       z     vdW  Elec       q    Type
REMARK                         _______ _______ _______ _____ _____    ______ ____
ROOT
ATOM      1  N   UNL     1       3.755   5.355  18.083  0.00  0.00    +0.000 N 
ATOM      2  C   UNL     1       4.406   5.925  16.939  0.00  0.00    +0.000 A 
ATOM      3  N   UNL     1       3.933   7.151  16.772  0.00  0.00    +0.000 NA
ATOM      4  C   UNL     1       3.128   7.463  17.820  0.00  0.00    +0.000 A 
ATOM      5  C   UNL     1       2.505   8.702  18.127  0.00  0.00    +0.000 A 
ATOM      6  C   UNL     1       1.628   8.822  19.222  0.00  0.00    +0.000 A 
ATOM      7  C   UNL     1       1.412   7.668  19.981  0.00  0.00    +0.000 A 
ATOM      8  C   UNL     1       2.047   6.449  19.710  0.00  0.00    +0.000 A 
ATOM      9  C   UNL     1       2.935   6.356  18.627  0.00  0.00    +0.000 A 
ENDROOT
BRANCH   6  10
ATOM     10  C   UNL     1       0.898  10.070  19.551  0.00  0.00    +0.000 A 
ATOM     11  C   UNL     1      -0.284  10.113  20.260  0.00  0.00    +0.000 A 
ATOM     12  N   UNL     1      -0.905  11.248  20.665  0.00  0.00    +0.000 NA
ATOM     13  C   UNL     1      -0.305  12.400  20.361  0.00  0.00    +0.000 A 
ATOM     14  N   UNL     1      -0.879  13.568  20.814  0.00  0.00    +0.000 N 
ATOM     15  N   UNL     1       0.802  12.500  19.628  0.00  0.00    +0.000 NA
ATOM     16  C   UNL     1       1.373  11.337  19.242  0.00  0.00    +0.000 A 
ATOM     17  H   UNL     1      -1.866  13.429  20.965  0.00  0.00    +0.000 HD
ATOM     18  H   UNL     1      -0.595  14.339  20.227  0.00  0.00    +0.000 HD
ENDBRANCH   6  10
BRANCH   2  19
ATOM     19  C   UNL     1       5.387   5.350  15.934  0.00  0.00    +0.000 A 
ATOM     20  C   UNL     1       5.003   4.534  14.856  0.00  0.00    +0.000 A 
ATOM     21  C   UNL     1       5.854   4.176  13.810  0.00  0.00    +0.000 A 
ATOM     22 BR   UNL     1       5.215   3.095  12.402  0.00  0.00    +0.000 Br
ATOM     23  C   UNL     1       7.135   4.659  13.822  0.00  0.00    +0.000 A 
ATOM     24  N   UNL     1       7.599   5.418  14.829  0.00  0.00    +0.000 NA
ATOM     25  C   UNL     1       6.762   5.689  15.899  0.00  0.00    +0.000 A 
BRANCH  25  26
ATOM     26  N   UNL     1       7.463   6.223  17.019  0.00  0.00    +0.000 N 
ATOM     27  C   UNL     1       7.690   5.558  18.205  0.00  0.00    +0.000 A 
ATOM     28  N   UNL     1       8.153   6.377  19.120  0.00  0.00    +0.000 NA
ATOM     29  C   UNL     1       8.124   7.576  18.474  0.00  0.00    +0.000 A 
ATOM     30  N   UNL     1       7.661   7.555  17.224  0.00  0.00    +0.000 NA
ENDBRANCH  25  26
ENDBRANCH   2  19
BRANCH   1  32
ATOM     31  C   UNL     1       5.353   3.816  19.206  0.00  0.00    +0.000 C 
ATOM     32  C   UNL     1       3.916   3.987  18.641  0.00  0.00    +0.000 C 
ATOM     33  C   UNL     1       3.450   2.918  17.610  0.00  0.00    +0.000 C 
ATOM     34  C   UNL     1       3.037   3.625  19.872  0.00  0.00    +0.000 C 
ENDBRANCH   1  32
TORSDOF 4
ENDMDL
MODEL 5
REMARK VINA RESULT:      -8.7      1.487      2.060
REMARK  Name = 
REMARK  7 active torsions:
REMARK  status: ('A' for Active; 'I' for Inactive)
REMARK    1  A    between atoms: C_1  and  C_2
REMARK    2  A    between atoms: C_2  and  C_3
REMARK    3  A    between atoms: C_2  and  C_4
REMARK    4  A    between atoms: C_2  and  N_5
REMARK    5  A    between atoms: C_6  and  C_7
REMARK    6  A    between atoms: C_13  and  N_14
REMARK    7  A    between atoms: C_22  and  C_23
REMARK                            x       y       z     vdW  Elec       q    Type
REMARK                         _______ _______ _______ _____ _____    ______ ____
ROOT
ATOM      1  N   UNL     1       3.409   5.535  18.187  0.00  0.00    +0.000 N 
ATOM      2  C   UNL     1       4.203   6.041  17.106  0.00  0.00    +0.000 A 
ATOM      3  N   UNL     1       3.837   7.296  16.887  0.00  0.00    +0.000 NA
ATOM      4  C   UNL     1       2.963   7.678  17.854  0.00  0.00    +0.000 A 
ATOM      5  C   UNL     1       2.405   8.961  18.092  0.00  0.00    +0.000 A 
ATOM      6  C   UNL     1       1.440   9.158  19.100  0.00  0.00    +0.000 A 
ATOM      7  C   UNL     1       1.072   8.032  19.843  0.00  0.00    +0.000 A 
ATOM      8  C   UNL     1       1.641   6.768  19.641  0.00  0.00    +0.000 A 
ATOM      9  C   UNL     1       2.616   6.598  18.646  0.00  0.00    +0.000 A 
ENDROOT
BRANCH   6  10
ATOM     10  C   UNL     1       0.774  10.459  19.351  0.00  0.00    +0.000 A 
ATOM     11  C   UNL     1       1.187  11.659  18.811  0.00  0.00    +0.000 A 
ATOM     12  N   UNL     1       0.526  12.835  18.939  0.00  0.00    +0.000 NA
ATOM     13  C   UNL     1      -0.614  12.809  19.631  0.00  0.00    +0.000 A 
ATOM     14  N   UNL     1      -1.341  13.977  19.727  0.00  0.00    +0.000 N 
ATOM     15  N   UNL     1      -1.089  11.735  20.258  0.00  0.00    +0.000 NA
ATOM     16  C   UNL     1      -0.385  10.591  20.103  0.00  0.00    +0.000 A 
ATOM     17  H   UNL     1      -0.730  14.771  19.607  0.00  0.00    +0.000 HD
ATOM     18  H   UNL     1      -1.926  13.950  20.549  0.00  0.00    +0.000 HD
ENDBRANCH   6  10
BRANCH   2  19
ATOM     19  C   UNL     1       5.229   5.386  16.201  0.00  0.00    +0.000 A 
ATOM     20  C   UNL     1       4.893   4.685  15.029  0.00  0.00    +0.000 A 
ATOM     21  C   UNL     1       5.826   4.263  14.081  0.00  0.00    +0.000 A 
ATOM     22 BR   UNL     1       5.252   3.353  12.533  0.00  0.00    +0.000 Br
ATOM     23  C   UNL     1       7.146   4.561  14.292  0.00  0.00    +0.000 A 
ATOM     24  N   UNL     1       7.562   5.197  15.400  0.00  0.00    +0.000 NA
ATOM     25  C   UNL     1       6.628   5.530  16.368  0.00  0.00    +0.000 A 
BRANCH  25  26
ATOM     26  N   UNL     1       7.232   5.906  17.603  0.00  0.00    +0.000 N 
ATOM     27  C   UNL     1       7.729   7.158  17.894  0.00  0.00    +0.000 A 
ATOM     28  N   UNL     1       8.424   7.138  19.008  0.00  0.00    +0.000 NA
ATOM     29  C   UNL     1       8.399   5.817  19.339  0.00  0.00    +0.000 A 
ATOM     30  N   UNL     1       7.745   5.016  18.497  0.00  0.00    +0.000 NA
ENDBRANCH  25  26
ENDBRANCH   2  19
BRANCH   1  32
ATOM     31  C   UNL     1       4.836   3.836  19.312  0.00  0.00    +0.000 C 
ATOM     32  C   UNL     1       3.419   4.165  18.767  0.00  0.00    +0.000 C 
ATOM     33  C   UNL     1       2.813   3.142  17.762  0.00  0.00    +0.000 C 
ATOM     34  C   UNL     1       2.526   3.929  20.018  0.00  0.00    +0.000 C 
ENDBRANCH   1  32
TORSDOF 4
ENDMDL
MODEL 6
REMARK VINA RESULT:      -8.7      0.985      1.180
REMARK  Name = 
REMARK  7 active torsions:
REMARK  status: ('A' for Active; 'I' for Inactive)
REMARK    1  A    between atoms: C_1  and  C_2
REMARK    2  A    between atoms: C_2  and  C_3
REMARK    3  A    between atoms: C_2  and  C_4
REMARK    4  A    between atoms: C_2  and  N_5
REMARK    5  A    between atoms: C_6  and  C_7
REMARK    6  A    between atoms: C_13  and  N_14
REMARK    7  A    between atoms: C_22  and  C_23
REMARK                            x       y       z     vdW  Elec       q    Type
REMARK                         _______ _______ _______ _____ _____    ______ ____
ROOT
ATOM      1  N   UNL     1       3.371   5.088  18.496  0.00  0.00    +0.000 N 
ATOM      2  C   UNL     1       4.092   5.755  17.451  0.00  0.00    +0.000 A 
ATOM      3  N   UNL     1       3.659   7.006  17.396  0.00  0.00    +0.000 NA
ATOM      4  C   UNL     1       2.812   7.229  18.433  0.00  0.00    +0.000 A 
ATOM      5  C   UNL     1       2.206   8.447  18.842  0.00  0.00    +0.000 A 
ATOM      6  C   UNL     1       1.280   8.477  19.903  0.00  0.00    +0.000 A 
ATOM      7  C   UNL     1       0.998   7.256  20.522  0.00  0.00    +0.000 A 
ATOM      8  C   UNL     1       1.615   6.054  20.152  0.00  0.00    +0.000 A 
ATOM      9  C   UNL     1       2.552   6.049  19.107  0.00  0.00    +0.000 A 
ENDROOT
BRANCH   6  10
ATOM     10  C   UNL     1       0.567   9.704  20.330  0.00  0.00    +0.000 A 
ATOM     11  C   UNL     1      -0.534  10.226  19.685  0.00  0.00    +0.000 A 
ATOM     12  N   UNL     1      -1.265  11.280  20.124  0.00  0.00    +0.000 NA
ATOM     13  C   UNL     1      -0.885  11.832  21.278  0.00  0.00    +0.000 A 
ATOM     14  N   UNL     1      -1.644  12.865  21.783  0.00  0.00    +0.000 N 
ATOM     15  N   UNL     1       0.196  11.467  21.966  0.00  0.00    +0.000 NA
ATOM     16  C   UNL     1       0.891  10.417  21.476  0.00  0.00    +0.000 A 
ATOM     17  H   UNL     1      -2.139  13.324  21.034  0.00  0.00    +0.000 HD
ATOM     18  H   UNL     1      -1.081  13.436  22.397  0.00  0.00    +0.000 HD
ENDBRANCH   6  10
BRANCH   2  19
ATOM     19  C   UNL     1       5.106   5.261  16.437  0.00  0.00    +0.000 A 
ATOM     20  C   UNL     1       4.754   4.581  15.257  0.00  0.00    +0.000 A 
ATOM     21  C   UNL     1       5.646   4.311  14.220  0.00  0.00    +0.000 A 
ATOM     22 BR   UNL     1       5.049   3.413  12.672  0.00  0.00    +0.000 Br
ATOM     23  C   UNL     1       6.938   4.746  14.345  0.00  0.00    +0.000 A 
ATOM     24  N   UNL     1       7.373   5.373  15.452  0.00  0.00    +0.000 NA
ATOM     25  C   UNL     1       6.490   5.554  16.504  0.00  0.00    +0.000 A 
BRANCH  25  26
ATOM     26  N   UNL     1       7.148   5.939  17.708  0.00  0.00    +0.000 N 
ATOM     27  C   UNL     1       7.737   7.165  17.934  0.00  0.00    +0.000 A 
ATOM     28  N   UNL     1       8.456   7.144  19.032  0.00  0.00    +0.000 NA
ATOM     29  C   UNL     1       8.349   5.843  19.421  0.00  0.00    +0.000 A 
ATOM     30  N   UNL     1       7.621   5.055  18.629  0.00  0.00    +0.000 NA
ENDBRANCH  25  26
ENDBRANCH   2  19
BRANCH   1  32
ATOM     31  C   UNL     1       2.819   2.754  17.834  0.00  0.00    +0.000 C 
ATOM     32  C   UNL     1       3.471   3.663  18.912  0.00  0.00    +0.000 C 
ATOM     33  C   UNL     1       2.955   3.482  20.369  0.00  0.00    +0.000 C 
ATOM     34  C   UNL     1       4.903   3.065  19.019  0.00  0.00    +0.000 C 
ENDBRANCH   1  32
TORSDOF 4
ENDMDL
MODEL 7
REMARK VINA RESULT:      -8.2      3.710      9.340
REMARK  Name = 
REMARK  7 active torsions:
REMARK  status: ('A' for Active; 'I' for Inactive)
REMARK    1  A    between atoms: C_1  and  C_2
REMARK    2  A    between atoms: C_2  and  C_3
REMARK    3  A    between atoms: C_2  and  C_4
REMARK    4  A    between atoms: C_2  and  N_5
REMARK    5  A    between atoms: C_6  and  C_7
REMARK    6  A    between atoms: C_13  and  N_14
REMARK    7  A    between atoms: C_22  and  C_23
REMARK                            x       y       z     vdW  Elec       q    Type
REMARK                         _______ _______ _______ _____ _____    ______ ____
ROOT
ATOM      1  N   UNL     1       1.110   9.408  20.148  0.00  0.00    +0.000 N 
ATOM      2  C   UNL     1       1.171  10.520  19.245  0.00  0.00    +0.000 A 
ATOM      3  N   UNL     1       1.991  10.195  18.257  0.00  0.00    +0.000 NA
ATOM      4  C   UNL     1       2.347   8.891  18.386  0.00  0.00    +0.000 A 
ATOM      5  C   UNL     1       3.107   8.083  17.499  0.00  0.00    +0.000 A 
ATOM      6  C   UNL     1       3.454   6.761  17.838  0.00  0.00    +0.000 A 
ATOM      7  C   UNL     1       3.010   6.296  19.080  0.00  0.00    +0.000 A 
ATOM      8  C   UNL     1       2.230   7.070  19.948  0.00  0.00    +0.000 A 
ATOM      9  C   UNL     1       1.877   8.378  19.582  0.00  0.00    +0.000 A 
ENDROOT
BRANCH   6  10
ATOM     10  C   UNL     1       4.300   5.893  16.983  0.00  0.00    +0.000 A 
ATOM     11  C   UNL     1       4.302   4.515  17.040  0.00  0.00    +0.000 A 
ATOM     12  N   UNL     1       4.983   3.705  16.192  0.00  0.00    +0.000 NA
ATOM     13  C   UNL     1       5.686   4.303  15.229  0.00  0.00    +0.000 A 
ATOM     14  N   UNL     1       6.339   3.505  14.314  0.00  0.00    +0.000 N 
ATOM     15  N   UNL     1       5.820   5.622  15.103  0.00  0.00    +0.000 NA
ATOM     16  C   UNL     1       5.127   6.380  15.981  0.00  0.00    +0.000 A 
ATOM     17  H   UNL     1       6.527   2.601  14.720  0.00  0.00    +0.000 HD
ATOM     18  H   UNL     1       7.113   4.012  13.908  0.00  0.00    +0.000 HD
ENDBRANCH   6  10
BRANCH   2  19
ATOM     19  C   UNL     1       0.571  11.912  19.301  0.00  0.00    +0.000 A 
ATOM     20  C   UNL     1       1.235  13.021  19.856  0.00  0.00    +0.000 A 
ATOM     21  C   UNL     1       0.793  14.337  19.726  0.00  0.00    +0.000 A 
ATOM     22 BR   UNL     1       1.785  15.745  20.494  0.00  0.00    +0.000 Br
ATOM     23  C   UNL     1      -0.345  14.571  19.002  0.00  0.00    +0.000 A 
ATOM     24  N   UNL     1      -1.064  13.570  18.465  0.00  0.00    +0.000 NA
ATOM     25  C   UNL     1      -0.652  12.265  18.681  0.00  0.00    +0.000 A 
BRANCH  25  26
ATOM     26  N   UNL     1      -1.654  11.313  18.333  0.00  0.00    +0.000 N 
ATOM     27  C   UNL     1      -1.498  10.295  17.416  0.00  0.00    +0.000 A 
ATOM     28  N   UNL     1      -2.652   9.732  17.141  0.00  0.00    +0.000 NA
ATOM     29  C   UNL     1      -3.522  10.494  17.860  0.00  0.00    +0.000 A 
ATOM     30  N   UNL     1      -2.985  11.499  18.552  0.00  0.00    +0.000 NA
ENDBRANCH  25  26
ENDBRANCH   2  19
BRANCH   1  32
ATOM     31  C   UNL     1       1.357   9.250  22.619  0.00  0.00    +0.000 C 
ATOM     32  C   UNL     1       0.360   9.309  21.429  0.00  0.00    +0.000 C 
ATOM     33  C   UNL     1      -0.694   8.165  21.357  0.00  0.00    +0.000 C 
ATOM     34  C   UNL     1      -0.533  10.523  21.812  0.00  0.00    +0.000 C 
ENDBRANCH   1  32
TORSDOF 4
ENDMDL
MODEL 8
REMARK VINA RESULT:      -7.9      4.197     10.128
REMARK  Name = 
REMARK  7 active torsions:
REMARK  status: ('A' for Active; 'I' for Inactive)
REMARK    1  A    between atoms: C_1  and  C_2
REMARK    2  A    between atoms: C_2  and  C_3
REMARK    3  A    between atoms: C_2  and  C_4
REMARK    4  A    between atoms: C_2  and  N_5
REMARK    5  A    between atoms: C_6  and  C_7
REMARK    6  A    between atoms: C_13  and  N_14
REMARK    7  A    between atoms: C_22  and  C_23
REMARK                            x       y       z     vdW  Elec       q    Type
REMARK                         _______ _______ _______ _____ _____    ______ ____
ROOT
ATOM      1  N   UNL     1      -0.609  11.243  19.502  0.00  0.00    +0.000 N 
ATOM      2  C   UNL     1      -0.445  11.376  20.921  0.00  0.00    +0.000 A 
ATOM      3  N   UNL     1       0.313  10.373  21.337  0.00  0.00    +0.000 NA
ATOM      4  C   UNL     1       0.770   9.685  20.259  0.00  0.00    +0.000 A 
ATOM      5  C   UNL     1       1.704   8.616  20.215  0.00  0.00    +0.000 A 
ATOM      6  C   UNL     1       2.001   7.961  19.004  0.00  0.00    +0.000 A 
ATOM      7  C   UNL     1       1.334   8.419  17.864  0.00  0.00    +0.000 A 
ATOM      8  C   UNL     1       0.437   9.495  17.887  0.00  0.00    +0.000 A 
ATOM      9  C   UNL     1       0.171  10.149  19.101  0.00  0.00    +0.000 A 
ENDROOT
BRANCH   6  10
ATOM     10  C   UNL     1       2.916   6.798  18.907  0.00  0.00    +0.000 A 
ATOM     11  C   UNL     1       3.953   6.700  18.004  0.00  0.00    +0.000 A 
ATOM     12  N   UNL     1       4.865   5.698  17.975  0.00  0.00    +0.000 NA
ATOM     13  C   UNL     1       4.745   4.752  18.908  0.00  0.00    +0.000 A 
ATOM     14  N   UNL     1       5.694   3.753  18.944  0.00  0.00    +0.000 N 
ATOM     15  N   UNL     1       3.754   4.693  19.795  0.00  0.00    +0.000 NA
ATOM     16  C   UNL     1       2.867   5.713  19.772  0.00  0.00    +0.000 A 
ATOM     17  H   UNL     1       6.114   3.647  18.033  0.00  0.00    +0.000 HD
ATOM     18  H   UNL     1       5.309   2.931  19.387  0.00  0.00    +0.000 HD
ENDBRANCH   6  10
BRANCH   2  19
ATOM     19  C   UNL     1      -1.034  12.346  21.929  0.00  0.00    +0.000 A 
ATOM     20  C   UNL     1      -2.248  12.121  22.602  0.00  0.00    +0.000 A 
ATOM     21  C   UNL     1      -2.694  12.889  23.677  0.00  0.00    +0.000 A 
ATOM     22 BR   UNL     1      -4.331  12.473  24.517  0.00  0.00    +0.000 Br
ATOM     23  C   UNL     1      -1.900  13.913  24.117  0.00  0.00    +0.000 A 
ATOM     24  N   UNL     1      -0.740  14.222  23.513  0.00  0.00    +0.000 NA
ATOM     25  C   UNL     1      -0.359  13.500  22.394  0.00  0.00    +0.000 A 
BRANCH  25  26
ATOM     26  N   UNL     1       0.707  14.122  21.680  0.00  0.00    +0.000 N 
ATOM     27  C   UNL     1       0.588  15.261  20.912  0.00  0.00    +0.000 A 
ATOM     28  N   UNL     1       1.673  15.460  20.201  0.00  0.00    +0.000 NA
ATOM     29  C   UNL     1       2.420  14.362  20.501  0.00  0.00    +0.000 A 
ATOM     30  N   UNL     1       1.864  13.490  21.343  0.00  0.00    +0.000 NA
ENDBRANCH  25  26
ENDBRANCH   2  19
BRANCH   1  32
ATOM     31  C   UNL     1      -0.578  13.341  18.165  0.00  0.00    +0.000 C 
ATOM     32  C   UNL     1      -1.412  12.101  18.590  0.00  0.00    +0.000 C 
ATOM     33  C   UNL     1      -2.812  12.391  19.204  0.00  0.00    +0.000 C 
ATOM     34  C   UNL     1      -1.803  11.485  17.216  0.00  0.00    +0.000 C 
ENDBRANCH   1  32
TORSDOF 4
ENDMDL
MODEL 9
REMARK VINA RESULT:      -7.8      3.779      9.072
REMARK  Name = 
REMARK  7 active torsions:
REMARK  status: ('A' for Active; 'I' for Inactive)
REMARK    1  A    between atoms: C_1  and  C_2
REMARK    2  A    between atoms: C_2  and  C_3
REMARK    3  A    between atoms: C_2  and  C_4
REMARK    4  A    between atoms: C_2  and  N_5
REMARK    5  A    between atoms: C_6  and  C_7
REMARK    6  A    between atoms: C_13  and  N_14
REMARK    7  A    between atoms: C_22  and  C_23
REMARK                            x       y       z     vdW  Elec       q    Type
REMARK                         _______ _______ _______ _____ _____    ______ ____
ROOT
ATOM      1  N   UNL     1       0.850   9.362  20.440  0.00  0.00    +0.000 N 
ATOM      2  C   UNL     1       0.553  10.352  19.447  0.00  0.00    +0.000 A 
ATOM      3  N   UNL     1       1.259  10.064  18.363  0.00  0.00    +0.000 NA
ATOM      4  C   UNL     1       1.879   8.870  18.542  0.00  0.00    +0.000 A 
ATOM      5  C   UNL     1       2.636   8.112  17.610  0.00  0.00    +0.000 A 
ATOM      6  C   UNL     1       3.283   6.921  17.997  0.00  0.00    +0.000 A 
ATOM      7  C   UNL     1       3.135   6.534  19.332  0.00  0.00    +0.000 A 
ATOM      8  C   UNL     1       2.361   7.254  20.253  0.00  0.00    +0.000 A 
ATOM      9  C   UNL     1       1.707   8.426  19.841  0.00  0.00    +0.000 A 
ENDROOT
BRANCH   6  10
ATOM     10  C   UNL     1       4.140   6.124  17.088  0.00  0.00    +0.000 A 
ATOM     11  C   UNL     1       4.174   4.746  17.064  0.00  0.00    +0.000 A 
ATOM     12  N   UNL     1       4.865   4.002  16.166  0.00  0.00    +0.000 NA
ATOM     13  C   UNL     1       5.546   4.670  15.234  0.00  0.00    +0.000 A 
ATOM     14  N   UNL     1       6.209   3.942  14.269  0.00  0.00    +0.000 N 
ATOM     15  N   UNL     1       5.650   5.997  15.184  0.00  0.00    +0.000 NA
ATOM     16  C   UNL     1       4.947   6.687  16.109  0.00  0.00    +0.000 A 
ATOM     17  H   UNL     1       6.421   3.020  14.620  0.00  0.00    +0.000 HD
ATOM     18  H   UNL     1       6.968   4.488  13.888  0.00  0.00    +0.000 HD
ENDBRANCH   6  10
BRANCH   2  19
ATOM     19  C   UNL     1      -0.292  11.612  19.485  0.00  0.00    +0.000 A 
ATOM     20  C   UNL     1      -1.698  11.603  19.486  0.00  0.00    +0.000 A 
ATOM     21  C   UNL     1      -2.483  12.729  19.733  0.00  0.00    +0.000 A 
ATOM     22 BR   UNL     1      -4.364  12.586  19.733  0.00  0.00    +0.000 Br
ATOM     23  C   UNL     1      -1.852  13.912  20.009  0.00  0.00    +0.000 A 
ATOM     24  N   UNL     1      -0.512  14.023  19.997  0.00  0.00    +0.000 NA
ATOM     25  C   UNL     1       0.244  12.911  19.663  0.00  0.00    +0.000 A 
BRANCH  25  26
ATOM     26  N   UNL     1       1.603  13.240  19.385  0.00  0.00    +0.000 N 
ATOM     27  C   UNL     1       2.502  13.742  20.301  0.00  0.00    +0.000 A 
ATOM     28  N   UNL     1       3.594  14.159  19.705  0.00  0.00    +0.000 NA
ATOM     29  C   UNL     1       3.295  13.968  18.390  0.00  0.00    +0.000 A 
ATOM     30  N   UNL     1       2.085  13.471  18.133  0.00  0.00    +0.000 NA
ENDBRANCH  25  26
ENDBRANCH   2  19
BRANCH   1  32
ATOM     31  C   UNL     1       1.532   9.183  22.826  0.00  0.00    +0.000 C 
ATOM     32  C   UNL     1       0.340   9.282  21.835  0.00  0.00    +0.000 C 
ATOM     33  C   UNL     1      -0.748   8.176  21.955  0.00  0.00    +0.000 C 
ATOM     34  C   UNL     1      -0.427  10.524  22.371  0.00  0.00    +0.000 C 
ENDBRANCH   1  32
TORSDOF 4
ENDMDL
