MODEL 1
REMARK VINA RESULT:      -8.9      0.000      0.000
REMARK  Name = 
REMARK  7 active torsions:
REMARK  status: ('A' for Active; 'I' for Inactive)
REMARK    1  A    between atoms: C_1  and  O_2
REMARK    2  A    between atoms: O_2  and  C_3
REMARK    3  A    between atoms: C_12  and  O_13
REMARK    4  A    between atoms: O_13  and  C_14
REMARK    5  A    between atoms: C_14  and  C_15
REMARK    6  A    between atoms: C_15  and  S_16
REMARK    7  A    between atoms: S_16  and  C_17
REMARK                            x       y       z     vdW  Elec       q    Type
REMARK                         _______ _______ _______ _____ _____    ______ ____
ROOT
ATOM      1  C   UNL     1      -0.844  11.425  22.530  0.00  0.00    +0.000 A 
ATOM      2  C   UNL     1      -0.865  10.265  23.310  0.00  0.00    +0.000 A 
ATOM      3  C   UNL     1      -0.266   9.100  22.897  0.00  0.00    +0.000 A 
ATOM      4  C   UNL     1       0.400   9.052  21.670  0.00  0.00    +0.000 A 
ATOM      5  C   UNL     1       0.985   7.862  21.255  0.00  0.00    +0.000 A 
ATOM      6  C   UNL     1       1.692   7.787  20.047  0.00  0.00    +0.000 A 
ATOM      7  N   UNL     1       1.785   8.909  19.278  0.00  0.00    +0.000 N 
ATOM      8  C   UNL     1       1.198  10.078  19.663  0.00  0.00    +0.000 A 
ATOM      9  C   UNL     1       0.492  10.202  20.873  0.00  0.00    +0.000 A 
ATOM     10  C   UNL     1      -0.122  11.416  21.309  0.00  0.00    +0.000 A 
ATOM     11  C   UNL     1       2.621   8.932  18.048  0.00  0.00    +0.000 C 
ATOM     12  C   UNL     1       2.527   7.626  17.284  0.00  0.00    +0.000 C 
ATOM     13  C   UNL     1       2.772   6.458  18.199  0.00  0.00    +0.000 A 
ATOM     14  C   UNL     1       3.345   5.280  17.684  0.00  0.00    +0.000 A 
ATOM     15  C   UNL     1       3.459   4.194  18.524  0.00  0.00    +0.000 A 
ATOM     16  C   UNL     1       3.042   4.259  19.824  0.00  0.00    +0.000 A 
ATOM     17  C   UNL     1       2.499   5.405  20.365  0.00  0.00    +0.000 A 
ATOM     18  C   UNL     1       2.332   6.550  19.547  0.00  0.00    +0.000 A 
ATOM     19  O   UNL     1       3.209   3.078  20.482  0.00  0.00    +0.000 OA
ATOM     20  C   UNL     1       3.705   2.240  19.415  0.00  0.00    +0.000 C 
ATOM     21  O   UNL     1       3.948   2.973  18.192  0.00  0.00    +0.000 OA
ENDROOT
BRANCH   1  23
ATOM     22  C   UNL     1      -2.883  12.319  23.314  0.00  0.00    +0.000 C 
ATOM     23  O   UNL     1      -1.519  12.543  22.932  0.00  0.00    +0.000 OA
ENDBRANCH   1  23
BRANCH  10  24
ATOM     24  O   UNL     1       0.006  12.472  20.437  0.00  0.00    +0.000 OA
BRANCH  24  25
ATOM     25  C   UNL     1      -0.877  12.516  19.303  0.00  0.00    +0.000 C 
BRANCH  25  26
ATOM     26  C   UNL     1      -2.157  13.317  19.606  0.00  0.00    +0.000 C 
BRANCH  26  27
ATOM     27  S   UNL     1      -3.558  12.135  19.686  0.00  0.00    +0.000 S 
BRANCH  27  28
ATOM     28  C   UNL     1      -3.376  11.228  18.155  0.00  0.00    +0.000 A 
ATOM     29  C   UNL     1      -2.269  10.375  18.025  0.00  0.00    +0.000 A 
ATOM     30  C   UNL     1      -1.989   9.753  16.802  0.00  0.00    +0.000 A 
ATOM     31  C   UNL     1      -2.803   9.980  15.698  0.00  0.00    +0.000 A 
ATOM     32  C   UNL     1      -3.906  10.828  15.812  0.00  0.00    +0.000 A 
ATOM     33  C   UNL     1      -4.193  11.451  17.034  0.00  0.00    +0.000 A 
ATOM     34 CL   UNL     1      -5.565  12.509  17.082  0.00  0.00    +0.000 Cl
ENDBRANCH  27  28
ENDBRANCH  26  27
ENDBRANCH  25  26
ENDBRANCH  24  25
ENDBRANCH  10  24
TORSDOF 6
ENDMDL
MODEL 2
REMARK VINA RESULT:      -8.7      4.551      9.313
REMARK  Name = 
REMARK  7 active torsions:
REMARK  status: ('A' for Active; 'I' for Inactive)
REMARK    1  A    between atoms: C_1  and  O_2
REMARK    2  A    between atoms: O_2  and  C_3
REMARK    3  A    between atoms: C_12  and  O_13
REMARK    4  A    between atoms: O_13  and  C_14
REMARK    5  A    between atoms: C_14  and  C_15
REMARK    6  A    between atoms: C_15  and  S_16
REMARK    7  A    between atoms: S_16  and  C_17
REMARK                            x       y       z     vdW  Elec       q    Type
REMARK                         _______ _______ _______ _____ _____    ______ ____
ROOT
ATOM      1  C   UNL     1       2.983   4.246  19.267  0.00  0.00    +0.000 A 
ATOM      2  C   UNL     1       2.283   4.250  20.477  0.00  0.00    +0.000 A 
ATOM      3  C   UNL     1       1.689   5.385  20.969  0.00  0.00    +0.000 A 
ATOM      4  C   UNL     1       1.764   6.582  20.254  0.00  0.00    +0.000 A 
ATOM      5  C   UNL     1       1.175   7.728  20.773  0.00  0.00    +0.000 A 
ATOM      6  C   UNL     1       1.199   8.938  20.065  0.00  0.00    +0.000 A 
ATOM      7  N   UNL     1       1.825   8.968  18.854  0.00  0.00    +0.000 N 
ATOM      8  C   UNL     1       2.425   7.856  18.342  0.00  0.00    +0.000 A 
ATOM      9  C   UNL     1       2.412   6.619  19.011  0.00  0.00    +0.000 A 
ATOM     10  C   UNL     1       3.020   5.435  18.494  0.00  0.00    +0.000 A 
ATOM     11  C   UNL     1       1.783  10.184  17.997  0.00  0.00    +0.000 C 
ATOM     12  C   UNL     1       1.894  11.452  18.820  0.00  0.00    +0.000 C 
ATOM     13  C   UNL     1       0.906  11.437  19.953  0.00  0.00    +0.000 A 
ATOM     14  C   UNL     1       0.382  12.652  20.434  0.00  0.00    +0.000 A 
ATOM     15  C   UNL     1      -0.438  12.611  21.539  0.00  0.00    +0.000 A 
ATOM     16  C   UNL     1      -0.749  11.426  22.146  0.00  0.00    +0.000 A 
ATOM     17  C   UNL     1      -0.271  10.218  21.685  0.00  0.00    +0.000 A 
ATOM     18  C   UNL     1       0.597  10.193  20.565  0.00  0.00    +0.000 A 
ATOM     19  O   UNL     1      -1.545  11.596  23.238  0.00  0.00    +0.000 OA
ATOM     20  C   UNL     1      -1.631  13.037  23.292  0.00  0.00    +0.000 C 
ATOM     21  O   UNL     1      -1.001  13.679  22.159  0.00  0.00    +0.000 OA
ENDROOT
BRANCH   1  23
ATOM     22  C   UNL     1       4.458   2.494  19.834  0.00  0.00    +0.000 C 
ATOM     23  O   UNL     1       3.632   3.120  18.844  0.00  0.00    +0.000 OA
ENDBRANCH   1  23
BRANCH  10  24
ATOM     24  O   UNL     1       3.651   5.593  17.282  0.00  0.00    +0.000 OA
BRANCH  24  25
ATOM     25  C   UNL     1       5.050   5.932  17.294  0.00  0.00    +0.000 C 
BRANCH  25  26
ATOM     26  C   UNL     1       5.931   4.733  16.895  0.00  0.00    +0.000 C 
BRANCH  26  27
ATOM     27  S   UNL     1       7.272   5.355  15.808  0.00  0.00    +0.000 S 
BRANCH  27  28
ATOM     28  C   UNL     1       6.771   4.744  14.203  0.00  0.00    +0.000 A 
ATOM     29  C   UNL     1       5.636   3.921  14.140  0.00  0.00    +0.000 A 
ATOM     30  C   UNL     1       5.279   3.292  12.941  0.00  0.00    +0.000 A 
ATOM     31  C   UNL     1       6.051   3.471  11.798  0.00  0.00    +0.000 A 
ATOM     32  C   UNL     1       7.183   4.286  11.847  0.00  0.00    +0.000 A 
ATOM     33  C   UNL     1       7.544   4.919  13.043  0.00  0.00    +0.000 A 
ATOM     34 CL   UNL     1       8.979   5.892  13.024  0.00  0.00    +0.000 Cl
ENDBRANCH  27  28
ENDBRANCH  26  27
ENDBRANCH  25  26
ENDBRANCH  24  25
ENDBRANCH  10  24
TORSDOF 6
ENDMDL
MODEL 3
REMARK VINA RESULT:      -8.6      2.787      3.827
REMARK  Name = 
REMARK  7 active torsions:
REMARK  status: ('A' for Active; 'I' for Inactive)
REMARK    1  A    between atoms: C_1  and  O_2
REMARK    2  A    between atoms: O_2  and  C_3
REMARK    3  A    between atoms: C_12  and  O_13
REMARK    4  A    between atoms: O_13  and  C_14
REMARK    5  A    between atoms: C_14  and  C_15
REMARK    6  A    between atoms: C_15  and  S_16
REMARK    7  A    between atoms: S_16  and  C_17
REMARK                            x       y       z     vdW  Elec       q    Type
REMARK                         _______ _______ _______ _____ _____    ______ ____
ROOT
ATOM      1  C   UNL     1      -0.848  11.419  22.543  0.00  0.00    +0.000 A 
ATOM      2  C   UNL     1      -0.879  10.258  23.322  0.00  0.00    +0.000 A 
ATOM      3  C   UNL     1      -0.282   9.091  22.913  0.00  0.00    +0.000 A 
ATOM      4  C   UNL     1       0.391   9.040  21.691  0.00  0.00    +0.000 A 
ATOM      5  C   UNL     1       0.974   7.848  21.279  0.00  0.00    +0.000 A 
ATOM      6  C   UNL     1       1.687   7.769  20.076  0.00  0.00    +0.000 A 
ATOM      7  N   UNL     1       1.790   8.891  19.308  0.00  0.00    +0.000 N 
ATOM      8  C   UNL     1       1.206  10.062  19.689  0.00  0.00    +0.000 A 
ATOM      9  C   UNL     1       0.493  10.190  20.895  0.00  0.00    +0.000 A 
ATOM     10  C   UNL     1      -0.118  11.407  21.326  0.00  0.00    +0.000 A 
ATOM     11  C   UNL     1       2.634   8.910  18.082  0.00  0.00    +0.000 C 
ATOM     12  C   UNL     1       2.539   7.604  17.318  0.00  0.00    +0.000 C 
ATOM     13  C   UNL     1       2.773   6.435  18.235  0.00  0.00    +0.000 A 
ATOM     14  C   UNL     1       3.343   5.254  17.723  0.00  0.00    +0.000 A 
ATOM     15  C   UNL     1       3.447   4.168  18.563  0.00  0.00    +0.000 A 
ATOM     16  C   UNL     1       3.022   4.235  19.861  0.00  0.00    +0.000 A 
ATOM     17  C   UNL     1       2.481   5.383  20.399  0.00  0.00    +0.000 A 
ATOM     18  C   UNL     1       2.325   6.529  19.580  0.00  0.00    +0.000 A 
ATOM     19  O   UNL     1       3.179   3.053  20.520  0.00  0.00    +0.000 OA
ATOM     20  C   UNL     1       3.679   2.213  19.456  0.00  0.00    +0.000 C 
ATOM     21  O   UNL     1       3.933   2.945  18.235  0.00  0.00    +0.000 OA
ENDROOT
BRANCH   1  23
ATOM     22  C   UNL     1      -2.870  12.314  23.365  0.00  0.00    +0.000 C 
ATOM     23  O   UNL     1      -1.520  12.539  22.940  0.00  0.00    +0.000 OA
ENDBRANCH   1  23
BRANCH  10  24
ATOM     24  O   UNL     1       0.021  12.461  20.455  0.00  0.00    +0.000 OA
BRANCH  24  25
ATOM     25  C   UNL     1      -1.058  12.723  19.541  0.00  0.00    +0.000 C 
BRANCH  25  26
ATOM     26  C   UNL     1      -0.609  13.610  18.365  0.00  0.00    +0.000 C 
BRANCH  26  27
ATOM     27  S   UNL     1      -0.155  15.255  19.040  0.00  0.00    +0.000 S 
BRANCH  27  28
ATOM     28  C   UNL     1       1.579  15.374  18.614  0.00  0.00    +0.000 A 
ATOM     29  C   UNL     1       2.283  14.180  18.397  0.00  0.00    +0.000 A 
ATOM     30  C   UNL     1       3.671  14.196  18.207  0.00  0.00    +0.000 A 
ATOM     31  C   UNL     1       4.368  15.399  18.239  0.00  0.00    +0.000 A 
ATOM     32  C   UNL     1       3.680  16.594  18.455  0.00  0.00    +0.000 A 
ATOM     33  C   UNL     1       2.292  16.584  18.644  0.00  0.00    +0.000 A 
ATOM     34 CL   UNL     1       1.520  18.108  18.933  0.00  0.00    +0.000 Cl
ENDBRANCH  27  28
ENDBRANCH  26  27
ENDBRANCH  25  26
ENDBRANCH  24  25
ENDBRANCH  10  24
TORSDOF 6
ENDMDL
MODEL 4
REMARK VINA RESULT:      -8.5      2.662      3.641
REMARK  Name = 
REMARK  7 active torsions:
REMARK  status: ('A' for Active; 'I' for Inactive)
REMARK    1  A    between atoms: C_1  and  O_2
REMARK    2  A    between atoms: O_2  and  C_3
REMARK    3  A    between atoms: C_12  and  O_13
REMARK    4  A    between atoms: O_13  and  C_14
REMARK    5  A    between atoms: C_14  and  C_15
REMARK    6  A    between atoms: C_15  and  S_16
REMARK    7  A    between atoms: S_16  and  C_17
REMARK                            x       y       z     vdW  Elec       q    Type
REMARK                         _______ _______ _______ _____ _____    ______ ____
ROOT
ATOM      1  C   UNL     1      -0.983  11.654  22.429  0.00  0.00    +0.000 A 
ATOM      2  C   UNL     1      -0.999  10.522  23.250  0.00  0.00    +0.000 A 
ATOM      3  C   UNL     1      -0.393   9.347  22.879  0.00  0.00    +0.000 A 
ATOM      4  C   UNL     1       0.275   9.259  21.656  0.00  0.00    +0.000 A 
ATOM      5  C   UNL     1       0.867   8.058  21.285  0.00  0.00    +0.000 A 
ATOM      6  C   UNL     1       1.576   7.943  20.081  0.00  0.00    +0.000 A 
ATOM      7  N   UNL     1       1.664   9.038  19.273  0.00  0.00    +0.000 N 
ATOM      8  C   UNL     1       1.070  10.216  19.615  0.00  0.00    +0.000 A 
ATOM      9  C   UNL     1       0.361  10.380  20.819  0.00  0.00    +0.000 A 
ATOM     10  C   UNL     1      -0.260  11.606  21.210  0.00  0.00    +0.000 A 
ATOM     11  C   UNL     1       2.501   9.021  18.043  0.00  0.00    +0.000 C 
ATOM     12  C   UNL     1       2.415   7.687  17.327  0.00  0.00    +0.000 C 
ATOM     13  C   UNL     1       2.666   6.555  18.284  0.00  0.00    +0.000 A 
ATOM     14  C   UNL     1       3.246   5.362  17.812  0.00  0.00    +0.000 A 
ATOM     15  C   UNL     1       3.365   4.308  18.690  0.00  0.00    +0.000 A 
ATOM     16  C   UNL     1       2.946   4.417  19.987  0.00  0.00    +0.000 A 
ATOM     17  C   UNL     1       2.396   5.578  20.486  0.00  0.00    +0.000 A 
ATOM     18  C   UNL     1       2.224   6.693  19.627  0.00  0.00    +0.000 A 
ATOM     19  O   UNL     1       3.118   3.261  20.687  0.00  0.00    +0.000 OA
ATOM     20  C   UNL     1       3.621   2.388  19.651  0.00  0.00    +0.000 C 
ATOM     21  O   UNL     1       3.861   3.078  18.404  0.00  0.00    +0.000 OA
ENDROOT
BRANCH   1  23
ATOM     22  C   UNL     1      -2.909  12.545  23.461  0.00  0.00    +0.000 C 
ATOM     23  O   UNL     1      -1.665  12.782  22.790  0.00  0.00    +0.000 OA
ENDBRANCH   1  23
BRANCH  10  24
ATOM     24  O   UNL     1      -0.136  12.629  20.301  0.00  0.00    +0.000 OA
BRANCH  24  25
ATOM     25  C   UNL     1       1.020  13.480  20.402  0.00  0.00    +0.000 C 
BRANCH  25  26
ATOM     26  C   UNL     1       0.659  14.870  20.958  0.00  0.00    +0.000 C 
BRANCH  26  27
ATOM     27  S   UNL     1      -0.897  15.415  20.153  0.00  0.00    +0.000 S 
BRANCH  27  28
ATOM     28  C   UNL     1      -0.303  16.566  18.920  0.00  0.00    +0.000 A 
ATOM     29  C   UNL     1       1.040  16.468  18.525  0.00  0.00    +0.000 A 
ATOM     30  C   UNL     1       1.605  17.429  17.677  0.00  0.00    +0.000 A 
ATOM     31  C   UNL     1       0.841  18.498  17.223  0.00  0.00    +0.000 A 
ATOM     32  C   UNL     1      -0.495  18.610  17.609  0.00  0.00    +0.000 A 
ATOM     33  C   UNL     1      -1.066  17.650  18.455  0.00  0.00    +0.000 A 
ATOM     34 CL   UNL     1      -2.724  17.877  18.908  0.00  0.00    +0.000 Cl
ENDBRANCH  27  28
ENDBRANCH  26  27
ENDBRANCH  25  26
ENDBRANCH  24  25
ENDBRANCH  10  24
TORSDOF 6
ENDMDL
MODEL 5
REMARK VINA RESULT:      -8.5      1.541      2.070
REMARK  Name = 
REMARK  7 active torsions:
REMARK  status: ('A' for Active; 'I' for Inactive)
REMARK    1  A    between atoms: C_1  and  O_2
REMARK    2  A    between atoms: O_2  and  C_3
REMARK    3  A    between atoms: C_12  and  O_13
REMARK    4  A    between atoms: O_13  and  C_14
REMARK    5  A    between atoms: C_14  and  C_15
REMARK    6  A    between atoms: C_15  and  S_16
REMARK    7  A    between atoms: S_16  and  C_17
REMARK                            x       y       z     vdW  Elec       q    Type
REMARK                         _______ _______ _______ _____ _____    ______ ____
ROOT
ATOM      1  C   UNL     1      -0.865  11.397  22.397  0.00  0.00    +0.000 A 
ATOM      2  C   UNL     1      -0.846  10.270  23.224  0.00  0.00    +0.000 A 
ATOM      3  C   UNL     1      -0.224   9.104  22.850  0.00  0.00    +0.000 A 
ATOM      4  C   UNL     1       0.425   9.021  21.617  0.00  0.00    +0.000 A 
ATOM      5  C   UNL     1       1.034   7.830  21.243  0.00  0.00    +0.000 A 
ATOM      6  C   UNL     1       1.726   7.721  20.028  0.00  0.00    +0.000 A 
ATOM      7  N   UNL     1       1.780   8.813  19.213  0.00  0.00    +0.000 N 
ATOM      8  C   UNL     1       1.170   9.981  19.558  0.00  0.00    +0.000 A 
ATOM      9  C   UNL     1       0.478  10.139  20.772  0.00  0.00    +0.000 A 
ATOM     10  C   UNL     1      -0.160  11.355  21.167  0.00  0.00    +0.000 A 
ATOM     11  C   UNL     1       2.598   8.804  17.970  0.00  0.00    +0.000 C 
ATOM     12  C   UNL     1       2.526   7.465  17.262  0.00  0.00    +0.000 C 
ATOM     13  C   UNL     1       2.813   6.343  18.221  0.00  0.00    +0.000 A 
ATOM     14  C   UNL     1       3.407   5.159  17.746  0.00  0.00    +0.000 A 
ATOM     15  C   UNL     1       3.559   4.112  18.628  0.00  0.00    +0.000 A 
ATOM     16  C   UNL     1       3.159   4.221  19.931  0.00  0.00    +0.000 A 
ATOM     17  C   UNL     1       2.596   5.374  20.432  0.00  0.00    +0.000 A 
ATOM     18  C   UNL     1       2.390   6.481  19.571  0.00  0.00    +0.000 A 
ATOM     19  O   UNL     1       3.364   3.072  20.634  0.00  0.00    +0.000 OA
ATOM     20  C   UNL     1       3.866   2.203  19.595  0.00  0.00    +0.000 C 
ATOM     21  O   UNL     1       4.074   2.890  18.340  0.00  0.00    +0.000 OA
ENDROOT
BRANCH   1  23
ATOM     22  C   UNL     1      -2.808  12.258  23.423  0.00  0.00    +0.000 C 
ATOM     23  O   UNL     1      -1.561  12.514  22.762  0.00  0.00    +0.000 OA
ENDBRANCH   1  23
BRANCH  10  24
ATOM     24  O   UNL     1      -0.069  12.376  20.250  0.00  0.00    +0.000 OA
BRANCH  24  25
ATOM     25  C   UNL     1      -0.930  12.322  19.098  0.00  0.00    +0.000 C 
BRANCH  25  26
ATOM     26  C   UNL     1      -2.320  11.762  19.449  0.00  0.00    +0.000 C 
BRANCH  26  27
ATOM     27  S   UNL     1      -3.406  13.175  19.886  0.00  0.00    +0.000 S 
BRANCH  27  28
ATOM     28  C   UNL     1      -5.034  12.437  19.818  0.00  0.00    +0.000 A 
ATOM     29  C   UNL     1      -5.759  12.337  21.015  0.00  0.00    +0.000 A 
ATOM     30  C   UNL     1      -6.972  11.639  21.056  0.00  0.00    +0.000 A 
ATOM     31  C   UNL     1      -7.469  11.030  19.909  0.00  0.00    +0.000 A 
ATOM     32  C   UNL     1      -6.758  11.120  18.712  0.00  0.00    +0.000 A 
ATOM     33  C   UNL     1      -5.545  11.819  18.664  0.00  0.00    +0.000 A 
ATOM     34 CL   UNL     1      -4.712  11.861  17.144  0.00  0.00    +0.000 Cl
ENDBRANCH  27  28
ENDBRANCH  26  27
ENDBRANCH  25  26
ENDBRANCH  24  25
ENDBRANCH  10  24
TORSDOF 6
ENDMDL
MODEL 6
REMARK VINA RESULT:      -8.4      3.305      4.247
REMARK  Name = 
REMARK  7 active torsions:
REMARK  status: ('A' for Active; 'I' for Inactive)
REMARK    1  A    between atoms: C_1  and  O_2
REMARK    2  A    between atoms: O_2  and  C_3
REMARK    3  A    between atoms: C_12  and  O_13
REMARK    4  A    between atoms: O_13  and  C_14
REMARK    5  A    between atoms: C_14  and  C_15
REMARK    6  A    between atoms: C_15  and  S_16
REMARK    7  A    between atoms: S_16  and  C_17
REMARK                            x       y       z     vdW  Elec       q    Type
REMARK                         _______ _______ _______ _____ _____    ______ ____
ROOT
ATOM      1  C   UNL     1      -1.180  11.781  22.309  0.00  0.00    +0.000 A 
ATOM      2  C   UNL     1      -1.165  10.690  23.184  0.00  0.00    +0.000 A 
ATOM      3  C   UNL     1      -0.532   9.513  22.867  0.00  0.00    +0.000 A 
ATOM      4  C   UNL     1       0.132   9.382  21.646  0.00  0.00    +0.000 A 
ATOM      5  C   UNL     1       0.751   8.179  21.329  0.00  0.00    +0.000 A 
ATOM      6  C   UNL     1       1.457   8.023  20.128  0.00  0.00    +0.000 A 
ATOM      7  N   UNL     1       1.515   9.079  19.268  0.00  0.00    +0.000 N 
ATOM      8  C   UNL     1       0.894  10.258  19.556  0.00  0.00    +0.000 A 
ATOM      9  C   UNL     1       0.188  10.463  20.755  0.00  0.00    +0.000 A 
ATOM     10  C   UNL     1      -0.461  11.691  21.090  0.00  0.00    +0.000 A 
ATOM     11  C   UNL     1       2.347   9.023  18.036  0.00  0.00    +0.000 C 
ATOM     12  C   UNL     1       2.290   7.655  17.384  0.00  0.00    +0.000 C 
ATOM     13  C   UNL     1       2.572   6.576  18.393  0.00  0.00    +0.000 A 
ATOM     14  C   UNL     1       3.178   5.376  17.976  0.00  0.00    +0.000 A 
ATOM     15  C   UNL     1       3.326   4.369  18.903  0.00  0.00    +0.000 A 
ATOM     16  C   UNL     1       2.910   4.530  20.195  0.00  0.00    +0.000 A 
ATOM     17  C   UNL     1       2.335   5.701  20.641  0.00  0.00    +0.000 A 
ATOM     18  C   UNL     1       2.133   6.768  19.731  0.00  0.00    +0.000 A 
ATOM     19  O   UNL     1       3.113   3.414  20.949  0.00  0.00    +0.000 OA
ATOM     20  C   UNL     1       3.632   2.504  19.954  0.00  0.00    +0.000 C 
ATOM     21  O   UNL     1       3.851   3.139  18.673  0.00  0.00    +0.000 OA
ENDROOT
BRANCH   1  23
ATOM     22  C   UNL     1      -1.301  13.726  23.641  0.00  0.00    +0.000 C 
ATOM     23  O   UNL     1      -1.887  12.908  22.620  0.00  0.00    +0.000 OA
ENDBRANCH   1  23
BRANCH  10  24
ATOM     24  O   UNL     1      -0.365  12.673  20.132  0.00  0.00    +0.000 OA
BRANCH  24  25
ATOM     25  C   UNL     1       0.519  13.778  20.389  0.00  0.00    +0.000 C 
BRANCH  25  26
ATOM     26  C   UNL     1      -0.208  15.130  20.277  0.00  0.00    +0.000 C 
BRANCH  26  27
ATOM     27  S   UNL     1       0.983  16.452  20.725  0.00  0.00    +0.000 S 
BRANCH  27  28
ATOM     28  C   UNL     1       1.565  16.996  19.122  0.00  0.00    +0.000 A 
ATOM     29  C   UNL     1       0.744  17.866  18.388  0.00  0.00    +0.000 A 
ATOM     30  C   UNL     1       1.071  18.210  17.071  0.00  0.00    +0.000 A 
ATOM     31  C   UNL     1       2.211  17.686  16.472  0.00  0.00    +0.000 A 
ATOM     32  C   UNL     1       3.035  16.818  17.189  0.00  0.00    +0.000 A 
ATOM     33  C   UNL     1       2.715  16.472  18.509  0.00  0.00    +0.000 A 
ATOM     34 CL   UNL     1       3.777  15.368  19.320  0.00  0.00    +0.000 Cl
ENDBRANCH  27  28
ENDBRANCH  26  27
ENDBRANCH  25  26
ENDBRANCH  24  25
ENDBRANCH  10  24
TORSDOF 6
ENDMDL
MODEL 7
REMARK VINA RESULT:      -8.4      4.489      9.325
REMARK  Name = 
REMARK  7 active torsions:
REMARK  status: ('A' for Active; 'I' for Inactive)
REMARK    1  A    between atoms: C_1  and  O_2
REMARK    2  A    between atoms: O_2  and  C_3
REMARK    3  A    between atoms: C_12  and  O_13
REMARK    4  A    between atoms: O_13  and  C_14
REMARK    5  A    between atoms: C_14  and  C_15
REMARK    6  A    between atoms: C_15  and  S_16
REMARK    7  A    between atoms: S_16  and  C_17
REMARK                            x       y       z     vdW  Elec       q    Type
REMARK                         _______ _______ _______ _____ _____    ______ ____
ROOT
ATOM      1  C   UNL     1       3.285   3.987  19.304  0.00  0.00    +0.000 A 
ATOM      2  C   UNL     1       2.638   4.005  20.543  0.00  0.00    +0.000 A 
ATOM      3  C   UNL     1       2.011   5.130  21.020  0.00  0.00    +0.000 A 
ATOM      4  C   UNL     1       1.996   6.299  20.257  0.00  0.00    +0.000 A 
ATOM      5  C   UNL     1       1.375   7.436  20.759  0.00  0.00    +0.000 A 
ATOM      6  C   UNL     1       1.309   8.617  20.007  0.00  0.00    +0.000 A 
ATOM      7  N   UNL     1       1.880   8.630  18.769  0.00  0.00    +0.000 N 
ATOM      8  C   UNL     1       2.511   7.528  18.272  0.00  0.00    +0.000 A 
ATOM      9  C   UNL     1       2.588   6.319  18.986  0.00  0.00    +0.000 A 
ATOM     10  C   UNL     1       3.230   5.145  18.486  0.00  0.00    +0.000 A 
ATOM     11  C   UNL     1       1.741   9.807  17.870  0.00  0.00    +0.000 C 
ATOM     12  C   UNL     1       1.826  11.111  18.639  0.00  0.00    +0.000 C 
ATOM     13  C   UNL     1       0.889  11.093  19.815  0.00  0.00    +0.000 A 
ATOM     14  C   UNL     1       0.328  12.300  20.274  0.00  0.00    +0.000 A 
ATOM     15  C   UNL     1      -0.441  12.264  21.416  0.00  0.00    +0.000 A 
ATOM     16  C   UNL     1      -0.666  11.090  22.080  0.00  0.00    +0.000 A 
ATOM     17  C   UNL     1      -0.151   9.889  21.643  0.00  0.00    +0.000 A 
ATOM     18  C   UNL     1       0.668   9.861  20.487  0.00  0.00    +0.000 A 
ATOM     19  O   UNL     1      -1.422  11.264  23.200  0.00  0.00    +0.000 OA
ATOM     20  C   UNL     1      -1.576  12.701  23.203  0.00  0.00    +0.000 C 
ATOM     21  O   UNL     1      -1.027  13.327  22.021  0.00  0.00    +0.000 OA
ENDROOT
BRANCH   1  23
ATOM     22  C   UNL     1       4.416   2.020  19.953  0.00  0.00    +0.000 C 
ATOM     23  O   UNL     1       3.969   2.877  18.895  0.00  0.00    +0.000 OA
ENDBRANCH   1  23
BRANCH  10  24
ATOM     24  O   UNL     1       3.800   5.286  17.243  0.00  0.00    +0.000 OA
BRANCH  24  25
ATOM     25  C   UNL     1       5.183   5.677  17.178  0.00  0.00    +0.000 C 
BRANCH  25  26
ATOM     26  C   UNL     1       6.092   4.500  16.779  0.00  0.00    +0.000 C 
BRANCH  26  27
ATOM     27  S   UNL     1       5.350   3.687  15.310  0.00  0.00    +0.000 S 
BRANCH  27  28
ATOM     28  C   UNL     1       6.447   4.206  13.996  0.00  0.00    +0.000 A 
ATOM     29  C   UNL     1       7.407   5.186  14.292  0.00  0.00    +0.000 A 
ATOM     30  C   UNL     1       8.195   5.741  13.276  0.00  0.00    +0.000 A 
ATOM     31  C   UNL     1       8.029   5.331  11.958  0.00  0.00    +0.000 A 
ATOM     32  C   UNL     1       7.077   4.359  11.648  0.00  0.00    +0.000 A 
ATOM     33  C   UNL     1       6.287   3.798  12.661  0.00  0.00    +0.000 A 
ATOM     34 CL   UNL     1       5.111   2.617  12.187  0.00  0.00    +0.000 Cl
ENDBRANCH  27  28
ENDBRANCH  26  27
ENDBRANCH  25  26
ENDBRANCH  24  25
ENDBRANCH  10  24
TORSDOF 6
ENDMDL
MODEL 8
REMARK VINA RESULT:      -8.4      1.636      2.435
REMARK  Name = 
REMARK  7 active torsions:
REMARK  status: ('A' for Active; 'I' for Inactive)
REMARK    1  A    between atoms: C_1  and  O_2
REMARK    2  A    between atoms: O_2  and  C_3
REMARK    3  A    between atoms: C_12  and  O_13
REMARK    4  A    between atoms: O_13  and  C_14
REMARK    5  A    between atoms: C_14  and  C_15
REMARK    6  A    between atoms: C_15  and  S_16
REMARK    7  A    between atoms: S_16  and  C_17
REMARK                            x       y       z     vdW  Elec       q    Type
REMARK                         _______ _______ _______ _____ _____    ______ ____
ROOT
ATOM      1  C   UNL     1      -1.063  11.512  22.334  0.00  0.00    +0.000 A 
ATOM      2  C   UNL     1      -1.003  10.410  23.193  0.00  0.00    +0.000 A 
ATOM      3  C   UNL     1      -0.350   9.253  22.846  0.00  0.00    +0.000 A 
ATOM      4  C   UNL     1       0.290   9.154  21.609  0.00  0.00    +0.000 A 
ATOM      5  C   UNL     1       0.930   7.971  21.263  0.00  0.00    +0.000 A 
ATOM      6  C   UNL     1       1.614   7.847  20.045  0.00  0.00    +0.000 A 
ATOM      7  N   UNL     1       1.628   8.916  19.199  0.00  0.00    +0.000 N 
ATOM      8  C   UNL     1       0.987  10.076  19.517  0.00  0.00    +0.000 A 
ATOM      9  C   UNL     1       0.301  10.248  20.733  0.00  0.00    +0.000 A 
ATOM     10  C   UNL     1      -0.368  11.456  21.099  0.00  0.00    +0.000 A 
ATOM     11  C   UNL     1       2.435   8.896  17.949  0.00  0.00    +0.000 C 
ATOM     12  C   UNL     1       2.396   7.536  17.280  0.00  0.00    +0.000 C 
ATOM     13  C   UNL     1       2.724   6.451  18.267  0.00  0.00    +0.000 A 
ATOM     14  C   UNL     1       3.349   5.271  17.820  0.00  0.00    +0.000 A 
ATOM     15  C   UNL     1       3.540   4.255  18.730  0.00  0.00    +0.000 A 
ATOM     16  C   UNL     1       3.149   4.389  20.033  0.00  0.00    +0.000 A 
ATOM     17  C   UNL     1       2.556   5.540  20.507  0.00  0.00    +0.000 A 
ATOM     18  C   UNL     1       2.310   6.614  19.616  0.00  0.00    +0.000 A 
ATOM     19  O   UNL     1       3.394   3.268  20.766  0.00  0.00    +0.000 OA
ATOM     20  C   UNL     1       3.912   2.384  19.748  0.00  0.00    +0.000 C 
ATOM     21  O   UNL     1       4.089   3.041  18.471  0.00  0.00    +0.000 OA
ENDROOT
BRANCH   1  23
ATOM     22  C   UNL     1      -2.803  12.393  23.662  0.00  0.00    +0.000 C 
ATOM     23  O   UNL     1      -1.789  12.618  22.675  0.00  0.00    +0.000 OA
ENDBRANCH   1  23
BRANCH  10  24
ATOM     24  O   UNL     1      -0.316  12.452  20.153  0.00  0.00    +0.000 OA
BRANCH  24  25
ATOM     25  C   UNL     1      -1.498  12.697  19.370  0.00  0.00    +0.000 C 
BRANCH  25  26
ATOM     26  C   UNL     1      -2.412  11.459  19.312  0.00  0.00    +0.000 C 
BRANCH  26  27
ATOM     27  S   UNL     1      -3.884  11.890  18.305  0.00  0.00    +0.000 S 
BRANCH  27  28
ATOM     28  C   UNL     1      -5.101  12.274  19.558  0.00  0.00    +0.000 A 
ATOM     29  C   UNL     1      -4.771  13.246  20.516  0.00  0.00    +0.000 A 
ATOM     30  C   UNL     1      -5.616  13.486  21.606  0.00  0.00    +0.000 A 
ATOM     31  C   UNL     1      -6.791  12.757  21.756  0.00  0.00    +0.000 A 
ATOM     32  C   UNL     1      -7.131  11.787  20.813  0.00  0.00    +0.000 A 
ATOM     33  C   UNL     1      -6.290  11.544  19.718  0.00  0.00    +0.000 A 
ATOM     34 CL   UNL     1      -6.772  10.303  18.608  0.00  0.00    +0.000 Cl
ENDBRANCH  27  28
ENDBRANCH  26  27
ENDBRANCH  25  26
ENDBRANCH  24  25
ENDBRANCH  10  24
TORSDOF 6
ENDMDL
MODEL 9
REMARK VINA RESULT:      -8.4      3.099      4.080
REMARK  Name = 
REMARK  7 active torsions:
REMARK  status: ('A' for Active; 'I' for Inactive)
REMARK    1  A    between atoms: C_1  and  O_2
REMARK    2  A    between atoms: O_2  and  C_3
REMARK    3  A    between atoms: C_12  and  O_13
REMARK    4  A    between atoms: O_13  and  C_14
REMARK    5  A    between atoms: C_14  and  C_15
REMARK    6  A    between atoms: C_15  and  S_16
REMARK    7  A    between atoms: S_16  and  C_17
REMARK                            x       y       z     vdW  Elec       q    Type
REMARK                         _______ _______ _______ _____ _____    ______ ____
ROOT
ATOM      1  C   UNL     1      -1.073  11.539  22.490  0.00  0.00    +0.000 A 
ATOM      2  C   UNL     1      -1.055  10.396  23.295  0.00  0.00    +0.000 A 
ATOM      3  C   UNL     1      -0.419   9.243  22.907  0.00  0.00    +0.000 A 
ATOM      4  C   UNL     1       0.246   9.189  21.681  0.00  0.00    +0.000 A 
ATOM      5  C   UNL     1       0.870   8.009  21.292  0.00  0.00    +0.000 A 
ATOM      6  C   UNL     1       1.578   7.930  20.084  0.00  0.00    +0.000 A 
ATOM      7  N   UNL     1       1.633   9.037  19.291  0.00  0.00    +0.000 N 
ATOM      8  C   UNL     1       1.008  10.194  19.650  0.00  0.00    +0.000 A 
ATOM      9  C   UNL     1       0.300  10.323  20.858  0.00  0.00    +0.000 A 
ATOM     10  C   UNL     1      -0.352  11.526  21.268  0.00  0.00    +0.000 A 
ATOM     11  C   UNL     1       2.466   9.059  18.058  0.00  0.00    +0.000 C 
ATOM     12  C   UNL     1       2.414   7.734  17.324  0.00  0.00    +0.000 C 
ATOM     13  C   UNL     1       2.698   6.596  18.265  0.00  0.00    +0.000 A 
ATOM     14  C   UNL     1       3.308   5.425  17.775  0.00  0.00    +0.000 A 
ATOM     15  C   UNL     1       3.459   4.363  18.639  0.00  0.00    +0.000 A 
ATOM     16  C   UNL     1       3.041   4.444  19.938  0.00  0.00    +0.000 A 
ATOM     17  C   UNL     1       2.462   5.583  20.454  0.00  0.00    +0.000 A 
ATOM     18  C   UNL     1       2.257   6.704  19.611  0.00  0.00    +0.000 A 
ATOM     19  O   UNL     1       3.247   3.284  20.622  0.00  0.00    +0.000 OA
ATOM     20  C   UNL     1       3.769   2.439  19.573  0.00  0.00    +0.000 C 
ATOM     21  O   UNL     1       3.987   3.151  18.334  0.00  0.00    +0.000 OA
ENDROOT
BRANCH   1  23
ATOM     22  C   UNL     1      -3.121  12.703  22.356  0.00  0.00    +0.000 C 
ATOM     23  O   UNL     1      -1.783  12.642  22.868  0.00  0.00    +0.000 OA
ENDBRANCH   1  23
BRANCH  10  24
ATOM     24  O   UNL     1      -0.259  12.565  20.372  0.00  0.00    +0.000 OA
BRANCH  24  25
ATOM     25  C   UNL     1       0.439  13.751  20.791  0.00  0.00    +0.000 C 
BRANCH  25  26
ATOM     26  C   UNL     1       1.966  13.559  20.754  0.00  0.00    +0.000 C 
BRANCH  26  27
ATOM     27  S   UNL     1       2.748  15.206  20.956  0.00  0.00    +0.000 S 
BRANCH  27  28
ATOM     28  C   UNL     1       2.554  15.920  19.327  0.00  0.00    +0.000 A 
ATOM     29  C   UNL     1       3.504  15.588  18.349  0.00  0.00    +0.000 A 
ATOM     30  C   UNL     1       3.494  16.226  17.102  0.00  0.00    +0.000 A 
ATOM     31  C   UNL     1       2.545  17.202  16.822  0.00  0.00    +0.000 A 
ATOM     32  C   UNL     1       1.595  17.543  17.786  0.00  0.00    +0.000 A 
ATOM     33  C   UNL     1       1.599  16.907  19.034  0.00  0.00    +0.000 A 
ATOM     34 CL   UNL     1       0.402  17.409  20.184  0.00  0.00    +0.000 Cl
ENDBRANCH  27  28
ENDBRANCH  26  27
ENDBRANCH  25  26
ENDBRANCH  24  25
ENDBRANCH  10  24
TORSDOF 6
ENDMDL
