MODEL 1
REMARK VINA RESULT:      -7.7      0.000      0.000
REMARK  Name = 
REMARK  5 active torsions:
REMARK  status: ('A' for Active; 'I' for Inactive)
REMARK    1  A    between atoms: C_1  and  C_2
REMARK    2  A    between atoms: C_5  and  N_6
REMARK    3  A    between atoms: N_9  and  C_10
REMARK    4  A    between atoms: C_10  and  C_11
REMARK    5  A    between atoms: C_11  and  N_12
REMARK                            x       y       z     vdW  Elec       q    Type
REMARK                         _______ _______ _______ _____ _____    ______ ____
ROOT
ATOM      1  N   UNL     1       5.228   5.640  17.202  0.00  0.00    +0.000 N 
ATOM      2  C   UNL     1       6.432   6.254  16.966  0.00  0.00    +0.000 A 
ATOM      3  N   UNL     1       7.181   6.067  15.929  0.00  0.00    +0.000 NA
ATOM      4  C   UNL     1       6.718   5.198  14.936  0.00  0.00    +0.000 A 
ATOM      5  C   UNL     1       7.476   5.034  13.775  0.00  0.00    +0.000 A 
ATOM      6  C   UNL     1       7.014   4.209  12.754  0.00  0.00    +0.000 A 
ATOM      7  F   UNL     1       7.739   4.075  11.636  0.00  0.00    +0.000 F 
ATOM      8  C   UNL     1       5.806   3.529  12.871  0.00  0.00    +0.000 A 
ATOM      9  C   UNL     1       5.048   3.671  14.032  0.00  0.00    +0.000 A 
ATOM     10  C   UNL     1       5.510   4.508  15.056  0.00  0.00    +0.000 A 
ATOM     11  C   UNL     1       4.724   4.714  16.288  0.00  0.00    +0.000 A 
ATOM     12  O   UNL     1       3.683   4.086  16.460  0.00  0.00    +0.000 OA
ENDROOT
BRANCH   1  13
ATOM     13  C   UNL     1       4.378   5.922  18.367  0.00  0.00    +0.000 C 
BRANCH  13  14
ATOM     14  C   UNL     1       4.530   5.020  19.595  0.00  0.00    +0.000 C 
BRANCH  14  20
ATOM     15  C   UNL     1       1.919   6.326  20.554  0.00  0.00    +0.000 C 
ATOM     16  C   UNL     1       2.118   4.871  20.321  0.00  0.00    +0.000 A 
ATOM     17  N   UNL     1       1.176   3.959  20.467  0.00  0.00    +0.000 NA
ATOM     18  C   UNL     1       1.753   2.758  20.162  0.00  0.00    +0.000 A 
ATOM     19  C   UNL     1       3.072   2.938  19.832  0.00  0.00    +0.000 A 
ATOM     20  N   UNL     1       3.312   4.290  19.919  0.00  0.00    +0.000 N 
BRANCH  19  21
ATOM     21  N   UNL     1       4.012   1.932  19.468  0.00  0.00    +0.000 N 
ATOM     22  O   UNL     1       3.785   1.316  18.422  0.00  0.00    +0.000 OA
ATOM     23  O   UNL     1       4.971   1.742  20.223  0.00  0.00    +0.000 OA
ENDBRANCH  19  21
ENDBRANCH  14  20
ENDBRANCH  13  14
ENDBRANCH   1  13
TORSDOF 4
ENDMDL
MODEL 2
REMARK VINA RESULT:      -7.6      4.734      7.234
REMARK  Name = 
REMARK  5 active torsions:
REMARK  status: ('A' for Active; 'I' for Inactive)
REMARK    1  A    between atoms: C_1  and  C_2
REMARK    2  A    between atoms: C_5  and  N_6
REMARK    3  A    between atoms: N_9  and  C_10
REMARK    4  A    between atoms: C_10  and  C_11
REMARK    5  A    between atoms: C_11  and  N_12
REMARK                            x       y       z     vdW  Elec       q    Type
REMARK                         _______ _______ _______ _____ _____    ______ ____
ROOT
ATOM      1  N   UNL     1       2.294   7.587  19.186  0.00  0.00    +0.000 N 
ATOM      2  C   UNL     1       1.917   7.353  20.486  0.00  0.00    +0.000 A 
ATOM      3  N   UNL     1       1.149   8.113  21.194  0.00  0.00    +0.000 NA
ATOM      4  C   UNL     1       0.616   9.255  20.585  0.00  0.00    +0.000 A 
ATOM      5  C   UNL     1      -0.272  10.054  21.307  0.00  0.00    +0.000 A 
ATOM      6  C   UNL     1      -0.849  11.169  20.708  0.00  0.00    +0.000 A 
ATOM      7  F   UNL     1      -1.716  11.917  21.403  0.00  0.00    +0.000 F 
ATOM      8  C   UNL     1      -0.549  11.515  19.394  0.00  0.00    +0.000 A 
ATOM      9  C   UNL     1       0.350  10.735  18.668  0.00  0.00    +0.000 A 
ATOM     10  C   UNL     1       0.924   9.608  19.270  0.00  0.00    +0.000 A 
ATOM     11  C   UNL     1       1.854   8.734  18.527  0.00  0.00    +0.000 A 
ATOM     12  O   UNL     1       2.195   9.037  17.386  0.00  0.00    +0.000 OA
ENDROOT
BRANCH   1  13
ATOM     13  C   UNL     1       3.125   6.669  18.396  0.00  0.00    +0.000 C 
BRANCH  13  14
ATOM     14  C   UNL     1       2.546   5.293  18.060  0.00  0.00    +0.000 C 
BRANCH  14  20
ATOM     15  C   UNL     1       0.903   3.822  20.200  0.00  0.00    +0.000 C 
ATOM     16  C   UNL     1       2.323   3.538  19.859  0.00  0.00    +0.000 A 
ATOM     17  N   UNL     1       3.046   2.586  20.418  0.00  0.00    +0.000 NA
ATOM     18  C   UNL     1       4.282   2.653  19.839  0.00  0.00    +0.000 A 
ATOM     19  C   UNL     1       4.318   3.666  18.916  0.00  0.00    +0.000 A 
ATOM     20  N   UNL     1       3.064   4.232  18.913  0.00  0.00    +0.000 N 
BRANCH  19  21
ATOM     21  N   UNL     1       5.427   4.061  18.115  0.00  0.00    +0.000 N 
ATOM     22  O   UNL     1       6.408   4.514  18.714  0.00  0.00    +0.000 OA
ATOM     23  O   UNL     1       5.326   3.933  16.891  0.00  0.00    +0.000 OA
ENDBRANCH  19  21
ENDBRANCH  14  20
ENDBRANCH  13  14
ENDBRANCH   1  13
TORSDOF 4
ENDMDL
MODEL 3
REMARK VINA RESULT:      -7.5      4.653      7.331
REMARK  Name = 
REMARK  5 active torsions:
REMARK  status: ('A' for Active; 'I' for Inactive)
REMARK    1  A    between atoms: C_1  and  C_2
REMARK    2  A    between atoms: C_5  and  N_6
REMARK    3  A    between atoms: N_9  and  C_10
REMARK    4  A    between atoms: C_10  and  C_11
REMARK    5  A    between atoms: C_11  and  N_12
REMARK                            x       y       z     vdW  Elec       q    Type
REMARK                         _______ _______ _______ _____ _____    ______ ____
ROOT
ATOM      1  N   UNL     1       2.235   7.541  19.251  0.00  0.00    +0.000 N 
ATOM      2  C   UNL     1       1.852   7.384  20.560  0.00  0.00    +0.000 A 
ATOM      3  N   UNL     1       1.107   8.201  21.228  0.00  0.00    +0.000 NA
ATOM      4  C   UNL     1       0.609   9.326  20.563  0.00  0.00    +0.000 A 
ATOM      5  C   UNL     1      -0.254  10.187  21.243  0.00  0.00    +0.000 A 
ATOM      6  C   UNL     1      -0.797  11.288  20.588  0.00  0.00    +0.000 A 
ATOM      7  F   UNL     1      -1.640  12.096  21.244  0.00  0.00    +0.000 F 
ATOM      8  C   UNL     1      -0.487  11.558  19.259  0.00  0.00    +0.000 A 
ATOM      9  C   UNL     1       0.388  10.716  18.574  0.00  0.00    +0.000 A 
ATOM     10  C   UNL     1       0.928   9.603  19.232  0.00  0.00    +0.000 A 
ATOM     11  C   UNL     1       1.830   8.666  18.535  0.00  0.00    +0.000 A 
ATOM     12  O   UNL     1       2.180   8.901  17.381  0.00  0.00    +0.000 OA
ENDROOT
BRANCH   1  13
ATOM     13  C   UNL     1       3.038   6.559  18.509  0.00  0.00    +0.000 C 
BRANCH  13  14
ATOM     14  C   UNL     1       3.836   5.533  19.316  0.00  0.00    +0.000 C 
BRANCH  14  20
ATOM     15  C   UNL     1       5.008   3.976  16.940  0.00  0.00    +0.000 C 
ATOM     16  C   UNL     1       4.045   3.433  17.935  0.00  0.00    +0.000 A 
ATOM     17  N   UNL     1       3.598   2.191  17.936  0.00  0.00    +0.000 NA
ATOM     18  C   UNL     1       2.741   2.092  18.997  0.00  0.00    +0.000 A 
ATOM     19  C   UNL     1       2.657   3.294  19.650  0.00  0.00    +0.000 A 
ATOM     20  N   UNL     1       3.497   4.157  18.984  0.00  0.00    +0.000 N 
BRANCH  19  21
ATOM     21  N   UNL     1       1.862   3.598  20.792  0.00  0.00    +0.000 N 
ATOM     22  O   UNL     1       2.317   3.258  21.888  0.00  0.00    +0.000 OA
ATOM     23  O   UNL     1       0.780   4.164  20.604  0.00  0.00    +0.000 OA
ENDBRANCH  19  21
ENDBRANCH  14  20
ENDBRANCH  13  14
ENDBRANCH   1  13
TORSDOF 4
ENDMDL
MODEL 4
REMARK VINA RESULT:      -7.3      4.096      7.311
REMARK  Name = 
REMARK  5 active torsions:
REMARK  status: ('A' for Active; 'I' for Inactive)
REMARK    1  A    between atoms: C_1  and  C_2
REMARK    2  A    between atoms: C_5  and  N_6
REMARK    3  A    between atoms: N_9  and  C_10
REMARK    4  A    between atoms: C_10  and  C_11
REMARK    5  A    between atoms: C_11  and  N_12
REMARK                            x       y       z     vdW  Elec       q    Type
REMARK                         _______ _______ _______ _____ _____    ______ ____
ROOT
ATOM      1  N   UNL     1       3.051   7.028  18.326  0.00  0.00    +0.000 N 
ATOM      2  C   UNL     1       2.906   6.298  19.480  0.00  0.00    +0.000 A 
ATOM      3  N   UNL     1       2.199   6.644  20.504  0.00  0.00    +0.000 NA
ATOM      4  C   UNL     1       1.484   7.844  20.431  0.00  0.00    +0.000 A 
ATOM      5  C   UNL     1       0.659   8.205  21.498  0.00  0.00    +0.000 A 
ATOM      6  C   UNL     1      -0.097   9.371  21.428  0.00  0.00    +0.000 A 
ATOM      7  F   UNL     1      -0.902   9.698  22.448  0.00  0.00    +0.000 F 
ATOM      8  C   UNL     1      -0.039  10.200  20.312  0.00  0.00    +0.000 A 
ATOM      9  C   UNL     1       0.795   9.860  19.248  0.00  0.00    +0.000 A 
ATOM     10  C   UNL     1       1.549   8.681  19.315  0.00  0.00    +0.000 A 
ATOM     11  C   UNL     1       2.418   8.264  18.197  0.00  0.00    +0.000 A 
ATOM     12  O   UNL     1       2.548   8.997  17.220  0.00  0.00    +0.000 OA
ENDROOT
BRANCH   1  13
ATOM     13  C   UNL     1       3.819   6.573  17.159  0.00  0.00    +0.000 C 
BRANCH  13  14
ATOM     14  C   UNL     1       4.132   5.080  17.050  0.00  0.00    +0.000 C 
BRANCH  14  20
ATOM     15  C   UNL     1       5.614   4.771  14.376  0.00  0.00    +0.000 C 
ATOM     16  C   UNL     1       6.243   4.696  15.721  0.00  0.00    +0.000 A 
ATOM     17  N   UNL     1       7.533   4.518  15.931  0.00  0.00    +0.000 NA
ATOM     18  C   UNL     1       7.705   4.505  17.287  0.00  0.00    +0.000 A 
ATOM     19  C   UNL     1       6.498   4.668  17.917  0.00  0.00    +0.000 A 
ATOM     20  N   UNL     1       5.557   4.803  16.923  0.00  0.00    +0.000 N 
BRANCH  19  21
ATOM     21  N   UNL     1       6.258   4.696  19.321  0.00  0.00    +0.000 N 
ATOM     22  O   UNL     1       5.407   3.911  19.751  0.00  0.00    +0.000 OA
ATOM     23  O   UNL     1       6.903   5.503  19.998  0.00  0.00    +0.000 OA
ENDBRANCH  19  21
ENDBRANCH  14  20
ENDBRANCH  13  14
ENDBRANCH   1  13
TORSDOF 4
ENDMDL
MODEL 5
REMARK VINA RESULT:      -7.3      4.765      7.356
REMARK  Name = 
REMARK  5 active torsions:
REMARK  status: ('A' for Active; 'I' for Inactive)
REMARK    1  A    between atoms: C_1  and  C_2
REMARK    2  A    between atoms: C_5  and  N_6
REMARK    3  A    between atoms: N_9  and  C_10
REMARK    4  A    between atoms: C_10  and  C_11
REMARK    5  A    between atoms: C_11  and  N_12
REMARK                            x       y       z     vdW  Elec       q    Type
REMARK                         _______ _______ _______ _____ _____    ______ ____
ROOT
ATOM      1  N   UNL     1       2.241   7.835  18.922  0.00  0.00    +0.000 N 
ATOM      2  C   UNL     1       1.895   8.844  18.059  0.00  0.00    +0.000 A 
ATOM      3  N   UNL     1       1.104   9.829  18.333  0.00  0.00    +0.000 NA
ATOM      4  C   UNL     1       0.579   9.906  19.628  0.00  0.00    +0.000 A 
ATOM      5  C   UNL     1      -0.221  10.998  19.968  0.00  0.00    +0.000 A 
ATOM      6  C   UNL     1      -0.717  11.120  21.262  0.00  0.00    +0.000 A 
ATOM      7  F   UNL     1      -1.467  12.182  21.584  0.00  0.00    +0.000 F 
ATOM      8  C   UNL     1      -0.438  10.162  22.232  0.00  0.00    +0.000 A 
ATOM      9  C   UNL     1       0.346   9.058  21.900  0.00  0.00    +0.000 A 
ATOM     10  C   UNL     1       0.851   8.940  20.599  0.00  0.00    +0.000 A 
ATOM     11  C   UNL     1       1.714   7.807  20.213  0.00  0.00    +0.000 A 
ATOM     12  O   UNL     1       1.934   6.906  21.019  0.00  0.00    +0.000 OA
ENDROOT
BRANCH   1  13
ATOM     13  C   UNL     1       3.190   6.762  18.591  0.00  0.00    +0.000 C 
BRANCH  13  14
ATOM     14  C   UNL     1       2.617   5.420  18.132  0.00  0.00    +0.000 C 
BRANCH  14  20
ATOM     15  C   UNL     1       0.872   3.810  20.082  0.00  0.00    +0.000 C 
ATOM     16  C   UNL     1       2.303   3.540  19.786  0.00  0.00    +0.000 A 
ATOM     17  N   UNL     1       2.996   2.544  20.305  0.00  0.00    +0.000 NA
ATOM     18  C   UNL     1       4.258   2.642  19.788  0.00  0.00    +0.000 A 
ATOM     19  C   UNL     1       4.340   3.720  18.945  0.00  0.00    +0.000 A 
ATOM     20  N   UNL     1       3.090   4.296  18.927  0.00  0.00    +0.000 N 
BRANCH  19  21
ATOM     21  N   UNL     1       5.486   4.163  18.225  0.00  0.00    +0.000 N 
ATOM     22  O   UNL     1       6.414   4.628  18.895  0.00  0.00    +0.000 OA
ATOM     23  O   UNL     1       5.466   4.062  16.994  0.00  0.00    +0.000 OA
ENDBRANCH  19  21
ENDBRANCH  14  20
ENDBRANCH  13  14
ENDBRANCH   1  13
TORSDOF 4
ENDMDL
MODEL 6
REMARK VINA RESULT:      -7.3      4.514      7.156
REMARK  Name = 
REMARK  5 active torsions:
REMARK  status: ('A' for Active; 'I' for Inactive)
REMARK    1  A    between atoms: C_1  and  C_2
REMARK    2  A    between atoms: C_5  and  N_6
REMARK    3  A    between atoms: N_9  and  C_10
REMARK    4  A    between atoms: C_10  and  C_11
REMARK    5  A    between atoms: C_11  and  N_12
REMARK                            x       y       z     vdW  Elec       q    Type
REMARK                         _______ _______ _______ _____ _____    ______ ____
ROOT
ATOM      1  N   UNL     1       2.493   7.409  18.944  0.00  0.00    +0.000 N 
ATOM      2  C   UNL     1       2.146   7.089  20.233  0.00  0.00    +0.000 A 
ATOM      3  N   UNL     1       1.380   7.789  21.002  0.00  0.00    +0.000 NA
ATOM      4  C   UNL     1       0.816   8.957  20.476  0.00  0.00    +0.000 A 
ATOM      5  C   UNL     1      -0.071   9.693  21.264  0.00  0.00    +0.000 A 
ATOM      6  C   UNL     1      -0.679  10.832  20.746  0.00  0.00    +0.000 A 
ATOM      7  F   UNL     1      -1.544  11.520  21.503  0.00  0.00    +0.000 F 
ATOM      8  C   UNL     1      -0.412  11.264  19.451  0.00  0.00    +0.000 A 
ATOM      9  C   UNL     1       0.485  10.547  18.660  0.00  0.00    +0.000 A 
ATOM     10  C   UNL     1       1.091   9.395  19.180  0.00  0.00    +0.000 A 
ATOM     11  C   UNL     1       2.019   8.587  18.366  0.00  0.00    +0.000 A 
ATOM     12  O   UNL     1       2.332   8.966  17.240  0.00  0.00    +0.000 OA
ENDROOT
BRANCH   1  13
ATOM     13  C   UNL     1       3.323   6.557  18.082  0.00  0.00    +0.000 C 
BRANCH  13  14
ATOM     14  C   UNL     1       2.808   5.152  17.761  0.00  0.00    +0.000 C 
BRANCH  14  20
ATOM     15  C   UNL     1       5.798   4.490  18.012  0.00  0.00    +0.000 C 
ATOM     16  C   UNL     1       4.706   3.845  18.788  0.00  0.00    +0.000 A 
ATOM     17  N   UNL     1       4.895   2.923  19.713  0.00  0.00    +0.000 NA
ATOM     18  C   UNL     1       3.655   2.589  20.182  0.00  0.00    +0.000 A 
ATOM     19  C   UNL     1       2.692   3.313  19.529  0.00  0.00    +0.000 A 
ATOM     20  N   UNL     1       3.356   4.129  18.641  0.00  0.00    +0.000 N 
BRANCH  19  21
ATOM     21  N   UNL     1       1.283   3.243  19.724  0.00  0.00    +0.000 N 
ATOM     22  O   UNL     1       0.651   2.532  18.935  0.00  0.00    +0.000 OA
ATOM     23  O   UNL     1       0.798   3.900  20.650  0.00  0.00    +0.000 OA
ENDBRANCH  19  21
ENDBRANCH  14  20
ENDBRANCH  13  14
ENDBRANCH   1  13
TORSDOF 4
ENDMDL
MODEL 7
REMARK VINA RESULT:      -7.3      1.968      2.775
REMARK  Name = 
REMARK  5 active torsions:
REMARK  status: ('A' for Active; 'I' for Inactive)
REMARK    1  A    between atoms: C_1  and  C_2
REMARK    2  A    between atoms: C_5  and  N_6
REMARK    3  A    between atoms: N_9  and  C_10
REMARK    4  A    between atoms: C_10  and  C_11
REMARK    5  A    between atoms: C_11  and  N_12
REMARK                            x       y       z     vdW  Elec       q    Type
REMARK                         _______ _______ _______ _____ _____    ______ ____
ROOT
ATOM      1  N   UNL     1       3.881   5.905  18.911  0.00  0.00    +0.000 N 
ATOM      2  C   UNL     1       3.582   6.861  17.972  0.00  0.00    +0.000 A 
ATOM      3  N   UNL     1       4.143   6.977  16.814  0.00  0.00    +0.000 NA
ATOM      4  C   UNL     1       5.112   6.033  16.457  0.00  0.00    +0.000 A 
ATOM      5  C   UNL     1       5.682   6.097  15.185  0.00  0.00    +0.000 A 
ATOM      6  C   UNL     1       6.614   5.142  14.791  0.00  0.00    +0.000 A 
ATOM      7  F   UNL     1       7.139   5.200  13.560  0.00  0.00    +0.000 F 
ATOM      8  C   UNL     1       7.002   4.120  15.652  0.00  0.00    +0.000 A 
ATOM      9  C   UNL     1       6.453   4.055  16.932  0.00  0.00    +0.000 A 
ATOM     10  C   UNL     1       5.509   5.012  17.324  0.00  0.00    +0.000 A 
ATOM     11  C   UNL     1       4.876   4.962  18.656  0.00  0.00    +0.000 A 
ATOM     12  O   UNL     1       5.235   4.115  19.470  0.00  0.00    +0.000 OA
ENDROOT
BRANCH   1  13
ATOM     13  C   UNL     1       3.180   5.771  20.195  0.00  0.00    +0.000 C 
BRANCH  13  14
ATOM     14  C   UNL     1       1.767   5.183  20.179  0.00  0.00    +0.000 C 
BRANCH  14  20
ATOM     15  C   UNL     1       1.067   4.589  17.247  0.00  0.00    +0.000 C 
ATOM     16  C   UNL     1       1.430   3.570  18.268  0.00  0.00    +0.000 A 
ATOM     17  N   UNL     1       1.529   2.277  18.026  0.00  0.00    +0.000 NA
ATOM     18  C   UNL     1       1.877   1.690  19.210  0.00  0.00    +0.000 A 
ATOM     19  C   UNL     1       1.985   2.639  20.194  0.00  0.00    +0.000 A 
ATOM     20  N   UNL     1       1.712   3.848  19.598  0.00  0.00    +0.000 N 
BRANCH  19  21
ATOM     21  N   UNL     1       2.315   2.424  21.563  0.00  0.00    +0.000 N 
ATOM     22  O   UNL     1       3.492   2.141  21.809  0.00  0.00    +0.000 OA
ATOM     23  O   UNL     1       1.408   2.525  22.395  0.00  0.00    +0.000 OA
ENDBRANCH  19  21
ENDBRANCH  14  20
ENDBRANCH  13  14
ENDBRANCH   1  13
TORSDOF 4
ENDMDL
MODEL 8
REMARK VINA RESULT:      -7.3      2.644      4.053
REMARK  Name = 
REMARK  5 active torsions:
REMARK  status: ('A' for Active; 'I' for Inactive)
REMARK    1  A    between atoms: C_1  and  C_2
REMARK    2  A    between atoms: C_5  and  N_6
REMARK    3  A    between atoms: N_9  and  C_10
REMARK    4  A    between atoms: C_10  and  C_11
REMARK    5  A    between atoms: C_11  and  N_12
REMARK                            x       y       z     vdW  Elec       q    Type
REMARK                         _______ _______ _______ _____ _____    ______ ____
ROOT
ATOM      1  N   UNL     1       4.399   3.221  17.811  0.00  0.00    +0.000 N 
ATOM      2  C   UNL     1       4.296   3.823  16.581  0.00  0.00    +0.000 A 
ATOM      3  N   UNL     1       4.947   4.872  16.202  0.00  0.00    +0.000 NA
ATOM      4  C   UNL     1       5.868   5.430  17.095  0.00  0.00    +0.000 A 
ATOM      5  C   UNL     1       6.633   6.522  16.682  0.00  0.00    +0.000 A 
ATOM      6  C   UNL     1       7.587   7.065  17.538  0.00  0.00    +0.000 A 
ATOM      7  F   UNL     1       8.331   8.100  17.124  0.00  0.00    +0.000 F 
ATOM      8  C   UNL     1       7.788   6.546  18.812  0.00  0.00    +0.000 A 
ATOM      9  C   UNL     1       7.018   5.467  19.243  0.00  0.00    +0.000 A 
ATOM     10  C   UNL     1       6.064   4.915  18.378  0.00  0.00    +0.000 A 
ATOM     11  C   UNL     1       5.251   3.750  18.779  0.00  0.00    +0.000 A 
ATOM     12  O   UNL     1       5.351   3.299  19.918  0.00  0.00    +0.000 OA
ENDROOT
BRANCH   1  13
ATOM     13  C   UNL     1       3.682   1.994  18.185  0.00  0.00    +0.000 C 
BRANCH  13  14
ATOM     14  C   UNL     1       2.235   2.130  18.662  0.00  0.00    +0.000 C 
BRANCH  14  20
ATOM     15  C   UNL     1       2.379   1.935  21.725  0.00  0.00    +0.000 C 
ATOM     16  C   UNL     1       2.133   3.182  20.953  0.00  0.00    +0.000 A 
ATOM     17  N   UNL     1       1.979   4.375  21.495  0.00  0.00    +0.000 NA
ATOM     18  C   UNL     1       1.774   5.245  20.460  0.00  0.00    +0.000 A 
ATOM     19  C   UNL     1       1.796   4.571  19.266  0.00  0.00    +0.000 A 
ATOM     20  N   UNL     1       2.037   3.251  19.570  0.00  0.00    +0.000 N 
BRANCH  19  21
ATOM     21  N   UNL     1       1.608   5.121  17.966  0.00  0.00    +0.000 N 
ATOM     22  O   UNL     1       0.924   4.458  17.179  0.00  0.00    +0.000 OA
ATOM     23  O   UNL     1       2.147   6.204  17.717  0.00  0.00    +0.000 OA
ENDBRANCH  19  21
ENDBRANCH  14  20
ENDBRANCH  13  14
ENDBRANCH   1  13
TORSDOF 4
ENDMDL
MODEL 9
REMARK VINA RESULT:      -7.3      3.423      6.439
REMARK  Name = 
REMARK  5 active torsions:
REMARK  status: ('A' for Active; 'I' for Inactive)
REMARK    1  A    between atoms: C_1  and  C_2
REMARK    2  A    between atoms: C_5  and  N_6
REMARK    3  A    between atoms: N_9  and  C_10
REMARK    4  A    between atoms: C_10  and  C_11
REMARK    5  A    between atoms: C_11  and  N_12
REMARK                            x       y       z     vdW  Elec       q    Type
REMARK                         _______ _______ _______ _____ _____    ______ ____
ROOT
ATOM      1  N   UNL     1       3.494   6.174  17.763  0.00  0.00    +0.000 N 
ATOM      2  C   UNL     1       3.071   6.880  18.862  0.00  0.00    +0.000 A 
ATOM      3  N   UNL     1       2.454   6.382  19.882  0.00  0.00    +0.000 NA
ATOM      4  C   UNL     1       2.225   5.002  19.901  0.00  0.00    +0.000 A 
ATOM      5  C   UNL     1       1.624   4.432  21.023  0.00  0.00    +0.000 A 
ATOM      6  C   UNL     1       1.427   3.056  21.083  0.00  0.00    +0.000 A 
ATOM      7  F   UNL     1       0.867   2.516  22.174  0.00  0.00    +0.000 F 
ATOM      8  C   UNL     1       1.812   2.229  20.033  0.00  0.00    +0.000 A 
ATOM      9  C   UNL     1       2.398   2.788  18.898  0.00  0.00    +0.000 A 
ATOM     10  C   UNL     1       2.603   4.173  18.843  0.00  0.00    +0.000 A 
ATOM     11  C   UNL     1       3.252   4.803  17.676  0.00  0.00    +0.000 A 
ATOM     12  O   UNL     1       3.550   4.120  16.701  0.00  0.00    +0.000 OA
ENDROOT
BRANCH   1  13
ATOM     13  C   UNL     1       4.243   6.767  16.646  0.00  0.00    +0.000 C 
BRANCH  13  14
ATOM     14  C   UNL     1       5.728   7.066  16.863  0.00  0.00    +0.000 C 
BRANCH  14  20
ATOM     15  C   UNL     1       5.867   5.022  14.574  0.00  0.00    +0.000 C 
ATOM     16  C   UNL     1       6.652   4.956  15.835  0.00  0.00    +0.000 A 
ATOM     17  N   UNL     1       7.538   4.018  16.112  0.00  0.00    +0.000 NA
ATOM     18  C   UNL     1       8.032   4.310  17.353  0.00  0.00    +0.000 A 
ATOM     19  C   UNL     1       7.433   5.440  17.846  0.00  0.00    +0.000 A 
ATOM     20  N   UNL     1       6.555   5.868  16.877  0.00  0.00    +0.000 N 
BRANCH  19  21
ATOM     21  N   UNL     1       7.666   6.056  19.109  0.00  0.00    +0.000 N 
ATOM     22  O   UNL     1       7.169   5.501  20.094  0.00  0.00    +0.000 OA
ATOM     23  O   UNL     1       8.334   7.095  19.126  0.00  0.00    +0.000 OA
ENDBRANCH  19  21
ENDBRANCH  14  20
ENDBRANCH  13  14
ENDBRANCH   1  13
TORSDOF 4
ENDMDL
