MODEL 1
REMARK VINA RESULT:      -8.0      0.000      0.000
REMARK  Name = 
REMARK  3 active torsions:
REMARK  status: ('A' for Active; 'I' for Inactive)
REMARK    1  A    between atoms: C_2  and  C_3
REMARK    2  A    between atoms: C_6  and  C_7
REMARK    3  A    between atoms: C_7  and  N_8
REMARK                            x       y       z     vdW  Elec       q    Type
REMARK                         _______ _______ _______ _____ _____    ______ ____
ROOT
ATOM      1  N   UNL     1       3.122   6.679  18.087  0.00  0.00    +0.000 N 
ATOM      2  C   UNL     1       2.346   5.461  18.033  0.00  0.00    +0.000 C 
ATOM      3  O   UNL     1       1.142   5.327  18.190  0.00  0.00    +0.000 OA
ATOM      4  C   UNL     1       3.368   4.325  17.718  0.00  0.00    +0.000 C 
ATOM      5  C   UNL     1       4.164   4.182  19.059  0.00  0.00    +0.000 C 
ATOM      6  N   UNL     1       4.340   2.834  19.457  0.00  0.00    +0.000 N 
ATOM      7  N   UNL     1       5.154   2.518  20.472  0.00  0.00    +0.000 NA
ATOM      8  N   UNL     1       5.147   1.185  20.536  0.00  0.00    +0.000 NA
ATOM      9  C   UNL     1       4.309   0.701  19.537  0.00  0.00    +0.000 A 
ATOM     10  C   UNL     1       3.776   1.769  18.853  0.00  0.00    +0.000 A 
ATOM     11  C   UNL     1       2.819   1.942  17.755  0.00  0.00    +0.000 C 
ATOM     12  O   UNL     1       3.096   3.133  17.017  0.00  0.00    +0.000 OA
ATOM     13  C   UNL     1       4.277   5.148  16.822  0.00  0.00    +0.000 A 
ATOM     14  C   UNL     1       5.152   4.687  15.851  0.00  0.00    +0.000 A 
ATOM     15  C   UNL     1       6.311   5.416  15.679  0.00  0.00    +0.000 A 
ATOM     16 CL   UNL     1       7.506   4.846  14.582  0.00  0.00    +0.000 Cl
ATOM     17  C   UNL     1       6.545   6.550  16.479  0.00  0.00    +0.000 A 
ATOM     18  C   UNL     1       5.524   7.111  17.284  0.00  0.00    +0.000 A 
ATOM     19  C   UNL     1       4.324   6.441  17.357  0.00  0.00    +0.000 A 
ENDROOT
BRANCH   1  20
ATOM     20  C   UNL     1       2.372   7.929  18.007  0.00  0.00    +0.000 C 
BRANCH  20  24
ATOM     21  C   UNL     1       0.298   9.831  21.336  0.00  0.00    +0.000 A 
ATOM     22  C   UNL     1       0.331  10.403  20.067  0.00  0.00    +0.000 A 
ATOM     23  C   UNL     1       1.057   9.794  19.037  0.00  0.00    +0.000 A 
ATOM     24  C   UNL     1       1.784   8.600  19.234  0.00  0.00    +0.000 A 
ATOM     25  C   UNL     1       1.714   8.009  20.503  0.00  0.00    +0.000 A 
ATOM     26  C   UNL     1       0.988   8.621  21.542  0.00  0.00    +0.000 A 
BRANCH  21  28
ATOM     27  N   UNL     1      -1.026  10.928  23.278  0.00  0.00    +0.000 NA
ATOM     28  C   UNL     1      -0.437  10.448  22.404  0.00  0.00    +0.000 C 
ENDBRANCH  21  28
ENDBRANCH  20  24
ENDBRANCH   1  20
TORSDOF 3
ENDMDL
MODEL 2
REMARK VINA RESULT:      -7.4      4.139      9.247
REMARK  Name = 
REMARK  3 active torsions:
REMARK  status: ('A' for Active; 'I' for Inactive)
REMARK    1  A    between atoms: C_2  and  C_3
REMARK    2  A    between atoms: C_6  and  C_7
REMARK    3  A    between atoms: C_7  and  N_8
REMARK                            x       y       z     vdW  Elec       q    Type
REMARK                         _______ _______ _______ _____ _____    ______ ____
ROOT
ATOM      1  N   UNL     1       0.791  10.319  18.676  0.00  0.00    +0.000 N 
ATOM      2  C   UNL     1       1.079  11.600  19.280  0.00  0.00    +0.000 C 
ATOM      3  O   UNL     1       2.170  12.116  19.470  0.00  0.00    +0.000 OA
ATOM      4  C   UNL     1      -0.307  12.216  19.642  0.00  0.00    +0.000 C 
ATOM      5  C   UNL     1      -0.775  11.346  20.858  0.00  0.00    +0.000 C 
ATOM      6  N   UNL     1      -1.298  12.119  21.923  0.00  0.00    +0.000 N 
ATOM      7  N   UNL     1      -1.914  11.535  22.958  0.00  0.00    +0.000 NA
ATOM      8  N   UNL     1      -2.341  12.534  23.732  0.00  0.00    +0.000 NA
ATOM      9  C   UNL     1      -1.967  13.737  23.144  0.00  0.00    +0.000 A 
ATOM     10  C   UNL     1      -1.278  13.465  21.984  0.00  0.00    +0.000 A 
ATOM     11  C   UNL     1      -0.598  14.259  20.955  0.00  0.00    +0.000 C 
ATOM     12  O   UNL     1      -0.620  13.589  19.693  0.00  0.00    +0.000 OA
ATOM     13  C   UNL     1      -1.068  11.651  18.455  0.00  0.00    +0.000 A 
ATOM     14  C   UNL     1      -2.245  12.127  17.899  0.00  0.00    +0.000 A 
ATOM     15  C   UNL     1      -3.098  11.178  17.374  0.00  0.00    +0.000 A 
ATOM     16 CL   UNL     1      -4.633  11.669  16.775  0.00  0.00    +0.000 Cl
ATOM     17  C   UNL     1      -2.748   9.816  17.436  0.00  0.00    +0.000 A 
ATOM     18  C   UNL     1      -1.442   9.404  17.798  0.00  0.00    +0.000 A 
ATOM     19  C   UNL     1      -0.554  10.372  18.206  0.00  0.00    +0.000 A 
ENDROOT
BRANCH   1  20
ATOM     20  C   UNL     1       1.878   9.699  17.924  0.00  0.00    +0.000 C 
BRANCH  20  24
ATOM     21  C   UNL     1       3.725   5.859  18.843  0.00  0.00    +0.000 A 
ATOM     22  C   UNL     1       4.058   6.580  17.700  0.00  0.00    +0.000 A 
ATOM     23  C   UNL     1       3.402   7.781  17.406  0.00  0.00    +0.000 A 
ATOM     24  C   UNL     1       2.383   8.302  18.234  0.00  0.00    +0.000 A 
ATOM     25  C   UNL     1       2.081   7.592  19.403  0.00  0.00    +0.000 A 
ATOM     26  C   UNL     1       2.736   6.382  19.699  0.00  0.00    +0.000 A 
BRANCH  21  28
ATOM     27  N   UNL     1       4.902   3.621  19.418  0.00  0.00    +0.000 NA
ATOM     28  C   UNL     1       4.385   4.623  19.154  0.00  0.00    +0.000 C 
ENDBRANCH  21  28
ENDBRANCH  20  24
ENDBRANCH   1  20
TORSDOF 3
ENDMDL
MODEL 3
REMARK VINA RESULT:      -7.3      4.043      8.830
REMARK  Name = 
REMARK  3 active torsions:
REMARK  status: ('A' for Active; 'I' for Inactive)
REMARK    1  A    between atoms: C_2  and  C_3
REMARK    2  A    between atoms: C_6  and  C_7
REMARK    3  A    between atoms: C_7  and  N_8
REMARK                            x       y       z     vdW  Elec       q    Type
REMARK                         _______ _______ _______ _____ _____    ______ ____
ROOT
ATOM      1  N   UNL     1       0.848   9.327  20.203  0.00  0.00    +0.000 N 
ATOM      2  C   UNL     1      -0.204   9.817  21.065  0.00  0.00    +0.000 C 
ATOM      3  O   UNL     1      -0.637   9.310  22.089  0.00  0.00    +0.000 OA
ATOM      4  C   UNL     1      -0.684  11.155  20.423  0.00  0.00    +0.000 C 
ATOM      5  C   UNL     1      -1.460  10.680  19.149  0.00  0.00    +0.000 C 
ATOM      6  N   UNL     1      -2.702  11.338  18.980  0.00  0.00    +0.000 N 
ATOM      7  N   UNL     1      -3.408  11.194  17.851  0.00  0.00    +0.000 NA
ATOM      8  N   UNL     1      -4.470  11.990  17.988  0.00  0.00    +0.000 NA
ATOM      9  C   UNL     1      -4.393  12.618  19.227  0.00  0.00    +0.000 A 
ATOM     10  C   UNL     1      -3.259  12.181  19.872  0.00  0.00    +0.000 A 
ATOM     11  C   UNL     1      -2.640  12.412  21.182  0.00  0.00    +0.000 C 
ATOM     12  O   UNL     1      -1.221  12.261  21.111  0.00  0.00    +0.000 OA
ATOM     13  C   UNL     1       0.672  11.598  19.900  0.00  0.00    +0.000 A 
ATOM     14  C   UNL     1       1.082  12.885  19.593  0.00  0.00    +0.000 A 
ATOM     15  C   UNL     1       1.971  13.008  18.545  0.00  0.00    +0.000 A 
ATOM     16 CL   UNL     1       2.437  14.577  18.020  0.00  0.00    +0.000 Cl
ATOM     17  C   UNL     1       2.397  11.858  17.855  0.00  0.00    +0.000 A 
ATOM     18  C   UNL     1       2.136  10.557  18.352  0.00  0.00    +0.000 A 
ATOM     19  C   UNL     1       1.345  10.446  19.473  0.00  0.00    +0.000 A 
ENDROOT
BRANCH   1  20
ATOM     20  C   UNL     1       1.709   8.288  20.759  0.00  0.00    +0.000 C 
BRANCH  20  24
ATOM     21  C   UNL     1       2.137   4.493  18.656  0.00  0.00    +0.000 A 
ATOM     22  C   UNL     1       1.691   4.558  19.973  0.00  0.00    +0.000 A 
ATOM     23  C   UNL     1       1.622   5.788  20.636  0.00  0.00    +0.000 A 
ATOM     24  C   UNL     1       2.005   6.998  20.017  0.00  0.00    +0.000 A 
ATOM     25  C   UNL     1       2.415   6.931  18.678  0.00  0.00    +0.000 A 
ATOM     26  C   UNL     1       2.488   5.694  18.010  0.00  0.00    +0.000 A 
BRANCH  21  28
ATOM     27  N   UNL     1       2.287   2.235  17.389  0.00  0.00    +0.000 NA
ATOM     28  C   UNL     1       2.218   3.237  17.965  0.00  0.00    +0.000 C 
ENDBRANCH  21  28
ENDBRANCH  20  24
ENDBRANCH   1  20
TORSDOF 3
ENDMDL
MODEL 4
REMARK VINA RESULT:      -7.2      4.280      9.411
REMARK  Name = 
REMARK  3 active torsions:
REMARK  status: ('A' for Active; 'I' for Inactive)
REMARK    1  A    between atoms: C_2  and  C_3
REMARK    2  A    between atoms: C_6  and  C_7
REMARK    3  A    between atoms: C_7  and  N_8
REMARK                            x       y       z     vdW  Elec       q    Type
REMARK                         _______ _______ _______ _____ _____    ______ ____
ROOT
ATOM      1  N   UNL     1       0.564  10.543  18.858  0.00  0.00    +0.000 N 
ATOM      2  C   UNL     1       0.774  11.857  19.422  0.00  0.00    +0.000 C 
ATOM      3  O   UNL     1       1.834  12.437  19.607  0.00  0.00    +0.000 OA
ATOM      4  C   UNL     1      -0.648  12.408  19.745  0.00  0.00    +0.000 C 
ATOM      5  C   UNL     1      -1.086  11.555  20.984  0.00  0.00    +0.000 C 
ATOM      6  N   UNL     1      -1.664  12.334  22.016  0.00  0.00    +0.000 N 
ATOM      7  N   UNL     1      -2.263  11.752  23.062  0.00  0.00    +0.000 NA
ATOM      8  N   UNL     1      -2.753  12.752  23.797  0.00  0.00    +0.000 NA
ATOM      9  C   UNL     1      -2.436  13.953  23.173  0.00  0.00    +0.000 A 
ATOM     10  C   UNL     1      -1.717  13.681  22.031  0.00  0.00    +0.000 A 
ATOM     11  C   UNL     1      -1.066  14.475  20.985  0.00  0.00    +0.000 C 
ATOM     12  O   UNL     1      -1.035  13.764  19.746  0.00  0.00    +0.000 OA
ATOM     13  C   UNL     1      -1.360  11.764  18.569  0.00  0.00    +0.000 A 
ATOM     14  C   UNL     1      -2.553  12.157  17.982  0.00  0.00    +0.000 A 
ATOM     15  C   UNL     1      -3.347  11.146  17.480  0.00  0.00    +0.000 A 
ATOM     16 CL   UNL     1      -4.897  11.534  16.845  0.00  0.00    +0.000 Cl
ATOM     17  C   UNL     1      -2.925   9.808  17.592  0.00  0.00    +0.000 A 
ATOM     18  C   UNL     1      -1.604   9.480  17.983  0.00  0.00    +0.000 A 
ATOM     19  C   UNL     1      -0.775  10.507  18.370  0.00  0.00    +0.000 A 
ENDROOT
BRANCH   1  20
ATOM     20  C   UNL     1       1.693   9.958  18.141  0.00  0.00    +0.000 C 
BRANCH  20  24
ATOM     21  C   UNL     1       2.941   5.920  19.208  0.00  0.00    +0.000 A 
ATOM     22  C   UNL     1       2.163   6.699  20.060  0.00  0.00    +0.000 A 
ATOM     23  C   UNL     1       1.831   8.012  19.711  0.00  0.00    +0.000 A 
ATOM     24  C   UNL     1       2.270   8.602  18.505  0.00  0.00    +0.000 A 
ATOM     25  C   UNL     1       3.018   7.800  17.634  0.00  0.00    +0.000 A 
ATOM     26  C   UNL     1       3.357   6.480  17.985  0.00  0.00    +0.000 A 
BRANCH  21  28
ATOM     27  N   UNL     1       3.600   3.492  19.839  0.00  0.00    +0.000 NA
ATOM     28  C   UNL     1       3.295   4.572  19.556  0.00  0.00    +0.000 C 
ENDBRANCH  21  28
ENDBRANCH  20  24
ENDBRANCH   1  20
TORSDOF 3
ENDMDL
MODEL 5
REMARK VINA RESULT:      -7.2      3.514      5.730
REMARK  Name = 
REMARK  3 active torsions:
REMARK  status: ('A' for Active; 'I' for Inactive)
REMARK    1  A    between atoms: C_2  and  C_3
REMARK    2  A    between atoms: C_6  and  C_7
REMARK    3  A    between atoms: C_7  and  N_8
REMARK                            x       y       z     vdW  Elec       q    Type
REMARK                         _______ _______ _______ _____ _____    ______ ____
ROOT
ATOM      1  N   UNL     1       5.152   5.769  17.332  0.00  0.00    +0.000 N 
ATOM      2  C   UNL     1       5.187   4.779  18.384  0.00  0.00    +0.000 C 
ATOM      3  O   UNL     1       6.110   4.040  18.693  0.00  0.00    +0.000 OA
ATOM      4  C   UNL     1       3.789   4.844  19.071  0.00  0.00    +0.000 C 
ATOM      5  C   UNL     1       2.840   4.198  18.005  0.00  0.00    +0.000 C 
ATOM      6  N   UNL     1       1.937   3.261  18.564  0.00  0.00    +0.000 N 
ATOM      7  N   UNL     1       0.933   2.756  17.836  0.00  0.00    +0.000 NA
ATOM      8  N   UNL     1       0.243   1.975  18.669  0.00  0.00    +0.000 NA
ATOM      9  C   UNL     1       0.853   2.018  19.918  0.00  0.00    +0.000 A 
ATOM     10  C   UNL     1       1.956   2.836  19.843  0.00  0.00    +0.000 A 
ATOM     11  C   UNL     1       3.019   3.255  20.763  0.00  0.00    +0.000 C 
ATOM     12  O   UNL     1       3.511   4.552  20.421  0.00  0.00    +0.000 OA
ATOM     13  C   UNL     1       3.581   6.340  18.908  0.00  0.00    +0.000 A 
ATOM     14  C   UNL     1       2.753   7.166  19.651  0.00  0.00    +0.000 A 
ATOM     15  C   UNL     1       2.177   8.221  18.974  0.00  0.00    +0.000 A 
ATOM     16 CL   UNL     1       1.042   9.222  19.789  0.00  0.00    +0.000 Cl
ATOM     17  C   UNL     1       2.442   8.395  17.603  0.00  0.00    +0.000 A 
ATOM     18  C   UNL     1       3.470   7.672  16.950  0.00  0.00    +0.000 A 
ATOM     19  C   UNL     1       4.126   6.700  17.669  0.00  0.00    +0.000 A 
ENDROOT
BRANCH   1  20
ATOM     20  C   UNL     1       6.441   6.166  16.772  0.00  0.00    +0.000 C 
BRANCH  20  24
ATOM     21  C   UNL     1       8.678   9.278  18.848  0.00  0.00    +0.000 A 
ATOM     22  C   UNL     1       7.887   9.558  17.738  0.00  0.00    +0.000 A 
ATOM     23  C   UNL     1       7.229   8.525  17.061  0.00  0.00    +0.000 A 
ATOM     24  C   UNL     1       7.345   7.174  17.457  0.00  0.00    +0.000 A 
ATOM     25  C   UNL     1       8.111   6.904  18.598  0.00  0.00    +0.000 A 
ATOM     26  C   UNL     1       8.776   7.941  19.279  0.00  0.00    +0.000 A 
BRANCH  21  28
ATOM     27  N   UNL     1       9.926  11.158  20.127  0.00  0.00    +0.000 NA
ATOM     28  C   UNL     1       9.363  10.327  19.550  0.00  0.00    +0.000 C 
ENDBRANCH  21  28
ENDBRANCH  20  24
ENDBRANCH   1  20
TORSDOF 3
ENDMDL
MODEL 6
REMARK VINA RESULT:      -7.1      4.096      9.183
REMARK  Name = 
REMARK  3 active torsions:
REMARK  status: ('A' for Active; 'I' for Inactive)
REMARK    1  A    between atoms: C_2  and  C_3
REMARK    2  A    between atoms: C_6  and  C_7
REMARK    3  A    between atoms: C_7  and  N_8
REMARK                            x       y       z     vdW  Elec       q    Type
REMARK                         _______ _______ _______ _____ _____    ______ ____
ROOT
ATOM      1  N   UNL     1       0.920   9.721  20.964  0.00  0.00    +0.000 N 
ATOM      2  C   UNL     1       0.336  10.401  22.097  0.00  0.00    +0.000 C 
ATOM      3  O   UNL     1       0.181   9.977  23.233  0.00  0.00    +0.000 OA
ATOM      4  C   UNL     1      -0.058  11.819  21.580  0.00  0.00    +0.000 C 
ATOM      5  C   UNL     1      -1.294  11.530  20.662  0.00  0.00    +0.000 C 
ATOM      6  N   UNL     1      -2.366  12.430  20.879  0.00  0.00    +0.000 N 
ATOM      7  N   UNL     1      -3.423  12.450  20.057  0.00  0.00    +0.000 NA
ATOM      8  N   UNL     1      -4.199  13.443  20.495  0.00  0.00    +0.000 NA
ATOM      9  C   UNL     1      -3.590  14.022  21.602  0.00  0.00    +0.000 A 
ATOM     10  C   UNL     1      -2.414  13.355  21.858  0.00  0.00    +0.000 A 
ATOM     11  C   UNL     1      -1.360  13.435  22.874  0.00  0.00    +0.000 C 
ATOM     12  O   UNL     1      -0.106  13.000  22.346  0.00  0.00    +0.000 OA
ATOM     13  C   UNL     1       1.103  11.985  20.614  0.00  0.00    +0.000 A 
ATOM     14  C   UNL     1       1.630  13.167  20.120  0.00  0.00    +0.000 A 
ATOM     15  C   UNL     1       2.123  13.122  18.832  0.00  0.00    +0.000 A 
ATOM     16 CL   UNL     1       2.684  14.572  18.098  0.00  0.00    +0.000 Cl
ATOM     17  C   UNL     1       2.058  11.920  18.102  0.00  0.00    +0.000 A 
ATOM     18  C   UNL     1       1.729  10.693  18.728  0.00  0.00    +0.000 A 
ATOM     19  C   UNL     1       1.353  10.728  20.051  0.00  0.00    +0.000 A 
ENDROOT
BRANCH   1  20
ATOM     20  C   UNL     1       1.696   8.520  21.258  0.00  0.00    +0.000 C 
BRANCH  20  24
ATOM     21  C   UNL     1       2.085   5.068  18.625  0.00  0.00    +0.000 A 
ATOM     22  C   UNL     1       2.450   6.348  18.218  0.00  0.00    +0.000 A 
ATOM     23  C   UNL     1       2.256   7.442  19.069  0.00  0.00    +0.000 A 
ATOM     24  C   UNL     1       1.682   7.304  20.351  0.00  0.00    +0.000 A 
ATOM     25  C   UNL     1       1.353   6.008  20.771  0.00  0.00    +0.000 A 
ATOM     26  C   UNL     1       1.544   4.906  19.915  0.00  0.00    +0.000 A 
BRANCH  21  28
ATOM     27  N   UNL     1       2.430   3.013  17.081  0.00  0.00    +0.000 NA
ATOM     28  C   UNL     1       2.273   3.937  17.761  0.00  0.00    +0.000 C 
ENDBRANCH  21  28
ENDBRANCH  20  24
ENDBRANCH   1  20
TORSDOF 3
ENDMDL
MODEL 7
REMARK VINA RESULT:      -7.0      4.780      9.755
REMARK  Name = 
REMARK  3 active torsions:
REMARK  status: ('A' for Active; 'I' for Inactive)
REMARK    1  A    between atoms: C_2  and  C_3
REMARK    2  A    between atoms: C_6  and  C_7
REMARK    3  A    between atoms: C_7  and  N_8
REMARK                            x       y       z     vdW  Elec       q    Type
REMARK                         _______ _______ _______ _____ _____    ______ ____
ROOT
ATOM      1  N   UNL     1       1.120  10.663  19.550  0.00  0.00    +0.000 N 
ATOM      2  C   UNL     1       1.194  11.964  18.925  0.00  0.00    +0.000 C 
ATOM      3  O   UNL     1       1.497  12.230  17.771  0.00  0.00    +0.000 OA
ATOM      4  C   UNL     1       0.793  12.987  20.032  0.00  0.00    +0.000 C 
ATOM      5  C   UNL     1       2.034  12.979  20.988  0.00  0.00    +0.000 C 
ATOM      6  N   UNL     1       2.446  14.280  21.369  0.00  0.00    +0.000 N 
ATOM      7  N   UNL     1       3.366  14.456  22.325  0.00  0.00    +0.000 NA
ATOM      8  N   UNL     1       3.469  15.776  22.486  0.00  0.00    +0.000 NA
ATOM      9  C   UNL     1       2.592  16.396  21.603  0.00  0.00    +0.000 A 
ATOM     10  C   UNL     1       1.945  15.427  20.871  0.00  0.00    +0.000 A 
ATOM     11  C   UNL     1       0.964  15.414  19.781  0.00  0.00    +0.000 C 
ATOM     12  O   UNL     1       0.164  14.231  19.827  0.00  0.00    +0.000 OA
ATOM     13  C   UNL     1      -0.229  12.103  20.728  0.00  0.00    +0.000 A 
ATOM     14  C   UNL     1      -1.282  12.502  21.534  0.00  0.00    +0.000 A 
ATOM     15  C   UNL     1      -1.612  11.651  22.570  0.00  0.00    +0.000 A 
ATOM     16 CL   UNL     1      -2.826  12.126  23.691  0.00  0.00    +0.000 Cl
ATOM     17  C   UNL     1      -0.879  10.465  22.757  0.00  0.00    +0.000 A 
ATOM     18  C   UNL     1       0.025   9.992  21.775  0.00  0.00    +0.000 A 
ATOM     19  C   UNL     1       0.260  10.792  20.680  0.00  0.00    +0.000 A 
ENDROOT
BRANCH   1  20
ATOM     20  C   UNL     1       1.094   9.513  18.651  0.00  0.00    +0.000 C 
BRANCH  20  24
ATOM     21  C   UNL     1       3.608   5.970  19.001  0.00  0.00    +0.000 A 
ATOM     22  C   UNL     1       2.719   6.342  20.005  0.00  0.00    +0.000 A 
ATOM     23  C   UNL     1       1.971   7.519  19.885  0.00  0.00    +0.000 A 
ATOM     24  C   UNL     1       2.088   8.373  18.766  0.00  0.00    +0.000 A 
ATOM     25  C   UNL     1       2.955   7.972  17.741  0.00  0.00    +0.000 A 
ATOM     26  C   UNL     1       3.712   6.791  17.862  0.00  0.00    +0.000 A 
BRANCH  21  28
ATOM     27  N   UNL     1       5.033   3.812  19.206  0.00  0.00    +0.000 NA
ATOM     28  C   UNL     1       4.388   4.769  19.113  0.00  0.00    +0.000 C 
ENDBRANCH  21  28
ENDBRANCH  20  24
ENDBRANCH   1  20
TORSDOF 3
ENDMDL
MODEL 8
REMARK VINA RESULT:      -6.9      4.629      9.992
REMARK  Name = 
REMARK  3 active torsions:
REMARK  status: ('A' for Active; 'I' for Inactive)
REMARK    1  A    between atoms: C_2  and  C_3
REMARK    2  A    between atoms: C_6  and  C_7
REMARK    3  A    between atoms: C_7  and  N_8
REMARK                            x       y       z     vdW  Elec       q    Type
REMARK                         _______ _______ _______ _____ _____    ______ ____
ROOT
ATOM      1  N   UNL     1      -0.077  11.152  19.599  0.00  0.00    +0.000 N 
ATOM      2  C   UNL     1      -0.064  12.460  20.213  0.00  0.00    +0.000 C 
ATOM      3  O   UNL     1       0.902  13.156  20.485  0.00  0.00    +0.000 OA
ATOM      4  C   UNL     1      -1.561  12.825  20.456  0.00  0.00    +0.000 C 
ATOM      5  C   UNL     1      -1.969  11.882  21.638  0.00  0.00    +0.000 C 
ATOM      6  N   UNL     1      -2.701  12.548  22.650  0.00  0.00    +0.000 N 
ATOM      7  N   UNL     1      -3.290  11.861  23.638  0.00  0.00    +0.000 NA
ATOM      8  N   UNL     1      -3.943  12.768  24.365  0.00  0.00    +0.000 NA
ATOM      9  C   UNL     1      -3.736  14.021  23.798  0.00  0.00    +0.000 A 
ATOM     10  C   UNL     1      -2.919  13.877  22.700  0.00  0.00    +0.000 A 
ATOM     11  C   UNL     1      -2.305  14.781  21.722  0.00  0.00    +0.000 C 
ATOM     12  O   UNL     1      -2.109  14.123  20.469  0.00  0.00    +0.000 OA
ATOM     13  C   UNL     1      -2.114  12.143  19.216  0.00  0.00    +0.000 A 
ATOM     14  C   UNL     1      -3.306  12.411  18.563  0.00  0.00    +0.000 A 
ATOM     15  C   UNL     1      -3.937  11.331  17.980  0.00  0.00    +0.000 A 
ATOM     16 CL   UNL     1      -5.480  11.554  17.254  0.00  0.00    +0.000 Cl
ATOM     17  C   UNL     1      -3.364  10.050  18.083  0.00  0.00    +0.000 A 
ATOM     18  C   UNL     1      -2.040   9.868  18.552  0.00  0.00    +0.000 A 
ATOM     19  C   UNL     1      -1.369  10.973  19.022  0.00  0.00    +0.000 A 
ENDROOT
BRANCH   1  20
ATOM     20  C   UNL     1       1.158  10.732  18.943  0.00  0.00    +0.000 C 
BRANCH  20  24
ATOM     21  C   UNL     1       2.848   6.717  18.806  0.00  0.00    +0.000 A 
ATOM     22  C   UNL     1       2.964   7.600  17.737  0.00  0.00    +0.000 A 
ATOM     23  C   UNL     1       2.358   8.860  17.793  0.00  0.00    +0.000 A 
ATOM     24  C   UNL     1       1.605   9.283  18.910  0.00  0.00    +0.000 A 
ATOM     25  C   UNL     1       1.526   8.404  19.999  0.00  0.00    +0.000 A 
ATOM     26  C   UNL     1       2.131   7.135  19.944  0.00  0.00    +0.000 A 
BRANCH  21  28
ATOM     27  N   UNL     1       3.971   4.380  18.729  0.00  0.00    +0.000 NA
ATOM     28  C   UNL     1       3.460   5.418  18.761  0.00  0.00    +0.000 C 
ENDBRANCH  21  28
ENDBRANCH  20  24
ENDBRANCH   1  20
TORSDOF 3
ENDMDL
MODEL 9
REMARK VINA RESULT:      -6.9      4.225      9.254
REMARK  Name = 
REMARK  3 active torsions:
REMARK  status: ('A' for Active; 'I' for Inactive)
REMARK    1  A    between atoms: C_2  and  C_3
REMARK    2  A    between atoms: C_6  and  C_7
REMARK    3  A    between atoms: C_7  and  N_8
REMARK                            x       y       z     vdW  Elec       q    Type
REMARK                         _______ _______ _______ _____ _____    ______ ____
ROOT
ATOM      1  N   UNL     1       0.645   9.932  20.498  0.00  0.00    +0.000 N 
ATOM      2  C   UNL     1      -0.367  10.312  21.458  0.00  0.00    +0.000 C 
ATOM      3  O   UNL     1      -0.714   9.711  22.464  0.00  0.00    +0.000 OA
ATOM      4  C   UNL     1      -0.937  11.673  20.954  0.00  0.00    +0.000 C 
ATOM      5  C   UNL     1      -1.775  11.262  19.696  0.00  0.00    +0.000 C 
ATOM      6  N   UNL     1      -3.050  11.879  19.656  0.00  0.00    +0.000 N 
ATOM      7  N   UNL     1      -3.821  11.791  18.565  0.00  0.00    +0.000 NA
ATOM      8  N   UNL     1      -4.901  12.528  18.829  0.00  0.00    +0.000 NA
ATOM      9  C   UNL     1      -4.768  13.064  20.105  0.00  0.00    +0.000 A 
ATOM     10  C   UNL     1      -3.578  12.628  20.643  0.00  0.00    +0.000 A 
ATOM     11  C   UNL     1      -2.886  12.786  21.926  0.00  0.00    +0.000 C 
ATOM     12  O   UNL     1      -1.470  12.700  21.757  0.00  0.00    +0.000 OA
ATOM     13  C   UNL     1       0.365  12.210  20.384  0.00  0.00    +0.000 A 
ATOM     14  C   UNL     1       0.706  13.533  20.154  0.00  0.00    +0.000 A 
ATOM     15  C   UNL     1       1.520  13.772  19.066  0.00  0.00    +0.000 A 
ATOM     16 CL   UNL     1       1.892  15.395  18.637  0.00  0.00    +0.000 Cl
ATOM     17  C   UNL     1       1.943  12.696  18.263  0.00  0.00    +0.000 A 
ATOM     18  C   UNL     1       1.764  11.352  18.673  0.00  0.00    +0.000 A 
ATOM     19  C   UNL     1       1.051  11.124  19.828  0.00  0.00    +0.000 A 
ENDROOT
BRANCH   1  20
ATOM     20  C   UNL     1       1.578   8.892  20.918  0.00  0.00    +0.000 C 
BRANCH  20  24
ATOM     21  C   UNL     1       2.520   5.294  18.643  0.00  0.00    +0.000 A 
ATOM     22  C   UNL     1       2.702   6.568  18.113  0.00  0.00    +0.000 A 
ATOM     23  C   UNL     1       2.333   7.699  18.849  0.00  0.00    +0.000 A 
ATOM     24  C   UNL     1       1.760   7.604  20.136  0.00  0.00    +0.000 A 
ATOM     25  C   UNL     1       1.616   6.320  20.680  0.00  0.00    +0.000 A 
ATOM     26  C   UNL     1       1.983   5.181  19.940  0.00  0.00    +0.000 A 
BRANCH  21  28
ATOM     27  N   UNL     1       3.184   3.169  17.312  0.00  0.00    +0.000 NA
ATOM     28  C   UNL     1       2.888   4.124  17.897  0.00  0.00    +0.000 C 
ENDBRANCH  21  28
ENDBRANCH  20  24
ENDBRANCH   1  20
TORSDOF 3
ENDMDL
