MODEL 1
REMARK VINA RESULT:      -9.3      0.000      0.000
REMARK  Name = 
REMARK  9 active torsions:
REMARK  status: ('A' for Active; 'I' for Inactive)
REMARK    1  A    between atoms: C_1  and  C_2
REMARK    2  A    between atoms: C_2  and  C_3
REMARK    3  A    between atoms: C_6  and  S_7
REMARK    4  A    between atoms: S_7  and  C_10
REMARK    5  A    between atoms: N_17  and  C_18
REMARK    6  A    between atoms: C_18  and  C_19
REMARK    7  A    between atoms: C_19  and  C_20
REMARK    8  A    between atoms: C_20  and  C_21
REMARK    9  A    between atoms: C_20  and  C_22
REMARK                            x       y       z     vdW  Elec       q    Type
REMARK                         _______ _______ _______ _____ _____    ______ ____
ROOT
ATOM      1  C   UNL     1       1.162   9.400  20.126  0.00  0.00    +0.000 A 
ATOM      2  N   UNL     1       0.940   9.004  21.429  0.00  0.00    +0.000 NA
ATOM      3  N   UNL     1       1.272   7.721  21.538  0.00  0.00    +0.000 NA
ATOM      4  N   UNL     1       1.726   7.333  20.335  0.00  0.00    +0.000 N 
ATOM      5  C   UNL     1       1.745   8.378  19.440  0.00  0.00    +0.000 A 
ATOM      6  N   UNL     1       2.382   8.323  18.258  0.00  0.00    +0.000 NA
ATOM      7  C   UNL     1       3.034   7.215  18.004  0.00  0.00    +0.000 A 
ATOM      8  N   UNL     1       4.076   7.468  17.166  0.00  0.00    +0.000 N 
ATOM      9  C   UNL     1       2.705   5.926  18.704  0.00  0.00    +0.000 A 
ATOM     10  C   UNL     1       2.856   4.660  18.141  0.00  0.00    +0.000 A 
ATOM     11  C   UNL     1       2.430   3.539  18.871  0.00  0.00    +0.000 A 
ATOM     12 CL   UNL     1       2.503   1.974  18.152  0.00  0.00    +0.000 Cl
ATOM     13  C   UNL     1       1.897   3.664  20.164  0.00  0.00    +0.000 A 
ATOM     14  C   UNL     1       1.736   4.924  20.729  0.00  0.00    +0.000 A 
ATOM     15  C   UNL     1       2.092   6.036  19.964  0.00  0.00    +0.000 A 
ATOM     16  H   UNL     1       4.150   8.479  17.033  0.00  0.00    +0.000 HD
ENDROOT
BRANCH   1  17
ATOM     17  S   UNL     1       0.815  10.964  19.501  0.00  0.00    +0.000 S 
ATOM     18  O   UNL     1       1.739  11.149  18.396  0.00  0.00    +0.000 OA
ATOM     19  O   UNL     1       0.754  11.854  20.646  0.00  0.00    +0.000 OA
BRANCH  17  23
ATOM     20  C   UNL     1      -3.202  11.042  17.454  0.00  0.00    +0.000 A 
ATOM     21  C   UNL     1      -3.010  11.758  18.644  0.00  0.00    +0.000 A 
ATOM     22  C   UNL     1      -1.831  11.620  19.356  0.00  0.00    +0.000 A 
ATOM     23  C   UNL     1      -0.813  10.812  18.831  0.00  0.00    +0.000 A 
ATOM     24  C   UNL     1      -1.018  10.027  17.697  0.00  0.00    +0.000 A 
ATOM     25  C   UNL     1      -2.222  10.140  17.014  0.00  0.00    +0.000 A 
BRANCH  20  27
ATOM     26  C   UNL     1      -5.600  11.674  17.454  0.00  0.00    +0.000 C 
ATOM     27  C   UNL     1      -4.402  11.349  16.579  0.00  0.00    +0.000 C 
ENDBRANCH  20  27
ENDBRANCH  17  23
ENDBRANCH   1  17
BRANCH   8  28
ATOM     28  C   UNL     1       5.305   6.748  16.954  0.00  0.00    +0.000 C 
BRANCH  28  29
ATOM     29  C   UNL     1       5.300   5.934  15.643  0.00  0.00    +0.000 C 
BRANCH  29  30
ATOM     30  C   UNL     1       5.862   4.493  15.686  0.00  0.00    +0.000 C 
ATOM     31  C   UNL     1       6.212   3.943  14.303  0.00  0.00    +0.000 C 
ATOM     32  C   UNL     1       7.129   4.454  16.558  0.00  0.00    +0.000 C 
ENDBRANCH  29  30
ENDBRANCH  28  29
ENDBRANCH   8  28
TORSDOF 6
ENDMDL
MODEL 2
REMARK VINA RESULT:      -9.2      0.775      1.269
REMARK  Name = 
REMARK  9 active torsions:
REMARK  status: ('A' for Active; 'I' for Inactive)
REMARK    1  A    between atoms: C_1  and  C_2
REMARK    2  A    between atoms: C_2  and  C_3
REMARK    3  A    between atoms: C_6  and  S_7
REMARK    4  A    between atoms: S_7  and  C_10
REMARK    5  A    between atoms: N_17  and  C_18
REMARK    6  A    between atoms: C_18  and  C_19
REMARK    7  A    between atoms: C_19  and  C_20
REMARK    8  A    between atoms: C_20  and  C_21
REMARK    9  A    between atoms: C_20  and  C_22
REMARK                            x       y       z     vdW  Elec       q    Type
REMARK                         _______ _______ _______ _____ _____    ______ ____
ROOT
ATOM      1  C   UNL     1       1.289   9.338  19.975  0.00  0.00    +0.000 A 
ATOM      2  N   UNL     1       1.112   9.010  21.303  0.00  0.00    +0.000 NA
ATOM      3  N   UNL     1       1.415   7.725  21.461  0.00  0.00    +0.000 NA
ATOM      4  N   UNL     1       1.808   7.268  20.260  0.00  0.00    +0.000 N 
ATOM      5  C   UNL     1       1.816   8.268  19.316  0.00  0.00    +0.000 A 
ATOM      6  N   UNL     1       2.400   8.139  18.112  0.00  0.00    +0.000 NA
ATOM      7  C   UNL     1       3.012   7.002  17.886  0.00  0.00    +0.000 A 
ATOM      8  N   UNL     1       4.024   7.186  16.994  0.00  0.00    +0.000 N 
ATOM      9  C   UNL     1       2.680   5.758  18.661  0.00  0.00    +0.000 A 
ATOM     10  C   UNL     1       2.775   4.463  18.155  0.00  0.00    +0.000 A 
ATOM     11  C   UNL     1       2.351   3.390  18.955  0.00  0.00    +0.000 A 
ATOM     12 CL   UNL     1       2.353   1.792  18.311  0.00  0.00    +0.000 Cl
ATOM     13  C   UNL     1       1.877   3.591  20.261  0.00  0.00    +0.000 A 
ATOM     14  C   UNL     1       1.773   4.881  20.771  0.00  0.00    +0.000 A 
ATOM     15  C   UNL     1       2.124   5.945  19.938  0.00  0.00    +0.000 A 
ATOM     16  H   UNL     1       4.118   8.188  16.810  0.00  0.00    +0.000 HD
ENDROOT
BRANCH   1  17
ATOM     17  S   UNL     1       0.956  10.879  19.288  0.00  0.00    +0.000 S 
ATOM     18  O   UNL     1       1.850  10.993  18.150  0.00  0.00    +0.000 OA
ATOM     19  O   UNL     1       0.947  11.820  20.393  0.00  0.00    +0.000 OA
BRANCH  17  23
ATOM     20  C   UNL     1      -3.123  10.965  17.369  0.00  0.00    +0.000 A 
ATOM     21  C   UNL     1      -2.886  11.698  18.540  0.00  0.00    +0.000 A 
ATOM     22  C   UNL     1      -1.687  11.560  19.217  0.00  0.00    +0.000 A 
ATOM     23  C   UNL     1      -0.694  10.732  18.673  0.00  0.00    +0.000 A 
ATOM     24  C   UNL     1      -0.942   9.932  17.559  0.00  0.00    +0.000 A 
ATOM     25  C   UNL     1      -2.166  10.047  16.912  0.00  0.00    +0.000 A 
BRANCH  20  27
ATOM     26  C   UNL     1      -5.383  11.986  17.377  0.00  0.00    +0.000 C 
ATOM     27  C   UNL     1      -4.347  11.271  16.527  0.00  0.00    +0.000 C 
ENDBRANCH  20  27
ENDBRANCH  17  23
ENDBRANCH   1  17
BRANCH   8  28
ATOM     28  C   UNL     1       5.224   6.424  16.768  0.00  0.00    +0.000 C 
BRANCH  28  29
ATOM     29  C   UNL     1       6.451   7.015  17.492  0.00  0.00    +0.000 C 
BRANCH  29  30
ATOM     30  C   UNL     1       7.575   6.042  17.921  0.00  0.00    +0.000 C 
ATOM     31  C   UNL     1       7.619   5.803  19.431  0.00  0.00    +0.000 C 
ATOM     32  C   UNL     1       7.383   4.684  17.222  0.00  0.00    +0.000 C 
ENDBRANCH  29  30
ENDBRANCH  28  29
ENDBRANCH   8  28
TORSDOF 6
ENDMDL
MODEL 3
REMARK VINA RESULT:      -9.0      1.702      3.622
REMARK  Name = 
REMARK  9 active torsions:
REMARK  status: ('A' for Active; 'I' for Inactive)
REMARK    1  A    between atoms: C_1  and  C_2
REMARK    2  A    between atoms: C_2  and  C_3
REMARK    3  A    between atoms: C_6  and  S_7
REMARK    4  A    between atoms: S_7  and  C_10
REMARK    5  A    between atoms: N_17  and  C_18
REMARK    6  A    between atoms: C_18  and  C_19
REMARK    7  A    between atoms: C_19  and  C_20
REMARK    8  A    between atoms: C_20  and  C_21
REMARK    9  A    between atoms: C_20  and  C_22
REMARK                            x       y       z     vdW  Elec       q    Type
REMARK                         _______ _______ _______ _____ _____    ______ ____
ROOT
ATOM      1  C   UNL     1       1.143   9.287  19.162  0.00  0.00    +0.000 A 
ATOM      2  N   UNL     1       1.225   9.629  17.828  0.00  0.00    +0.000 NA
ATOM      3  N   UNL     1       2.106   8.823  17.243  0.00  0.00    +0.000 NA
ATOM      4  N   UNL     1       2.540   7.971  18.186  0.00  0.00    +0.000 N 
ATOM      5  C   UNL     1       1.903   8.179  19.388  0.00  0.00    +0.000 A 
ATOM      6  N   UNL     1       1.965   7.313  20.414  0.00  0.00    +0.000 NA
ATOM      7  C   UNL     1       2.646   6.213  20.201  0.00  0.00    +0.000 A 
ATOM      8  N   UNL     1       2.163   5.207  20.980  0.00  0.00    +0.000 N 
ATOM      9  C   UNL     1       3.687   6.125  19.121  0.00  0.00    +0.000 A 
ATOM     10  C   UNL     1       4.824   5.321  19.183  0.00  0.00    +0.000 A 
ATOM     11  C   UNL     1       5.765   5.396  18.143  0.00  0.00    +0.000 A 
ATOM     12 CL   UNL     1       7.230   4.495  18.252  0.00  0.00    +0.000 Cl
ATOM     13  C   UNL     1       5.564   6.227  17.030  0.00  0.00    +0.000 A 
ATOM     14  C   UNL     1       4.436   7.038  16.964  0.00  0.00    +0.000 A 
ATOM     15  C   UNL     1       3.546   7.013  18.040  0.00  0.00    +0.000 A 
ATOM     16  H   UNL     1       1.320   5.538  21.455  0.00  0.00    +0.000 HD
ENDROOT
BRANCH   1  17
ATOM     17  S   UNL     1       0.176  10.099  20.329  0.00  0.00    +0.000 S 
ATOM     18  O   UNL     1       0.991  11.205  20.801  0.00  0.00    +0.000 OA
ATOM     19  O   UNL     1      -0.353   9.069  21.204  0.00  0.00    +0.000 OA
BRANCH  17  23
ATOM     20  C   UNL     1      -3.592  11.463  18.261  0.00  0.00    +0.000 A 
ATOM     21  C   UNL     1      -2.868  10.376  17.750  0.00  0.00    +0.000 A 
ATOM     22  C   UNL     1      -1.636  10.046  18.288  0.00  0.00    +0.000 A 
ATOM     23  C   UNL     1      -1.162  10.770  19.391  0.00  0.00    +0.000 A 
ATOM     24  C   UNL     1      -1.825  11.905  19.857  0.00  0.00    +0.000 A 
ATOM     25  C   UNL     1      -3.040  12.253  19.281  0.00  0.00    +0.000 A 
BRANCH  20  27
ATOM     26  C   UNL     1      -5.979  11.099  18.825  0.00  0.00    +0.000 C 
ATOM     27  C   UNL     1      -5.020  11.693  17.808  0.00  0.00    +0.000 C 
ENDBRANCH  20  27
ENDBRANCH  17  23
ENDBRANCH   1  17
BRANCH   8  28
ATOM     28  C   UNL     1       2.231   3.778  20.815  0.00  0.00    +0.000 C 
BRANCH  28  29
ATOM     29  C   UNL     1       1.074   3.222  19.959  0.00  0.00    +0.000 C 
BRANCH  29  30
ATOM     30  C   UNL     1       1.384   2.825  18.496  0.00  0.00    +0.000 C 
ATOM     31  C   UNL     1       1.346   4.011  17.531  0.00  0.00    +0.000 C 
ATOM     32  C   UNL     1       2.780   2.180  18.416  0.00  0.00    +0.000 C 
ENDBRANCH  29  30
ENDBRANCH  28  29
ENDBRANCH   8  28
TORSDOF 6
ENDMDL
MODEL 4
REMARK VINA RESULT:      -8.9      0.475      1.173
REMARK  Name = 
REMARK  9 active torsions:
REMARK  status: ('A' for Active; 'I' for Inactive)
REMARK    1  A    between atoms: C_1  and  C_2
REMARK    2  A    between atoms: C_2  and  C_3
REMARK    3  A    between atoms: C_6  and  S_7
REMARK    4  A    between atoms: S_7  and  C_10
REMARK    5  A    between atoms: N_17  and  C_18
REMARK    6  A    between atoms: C_18  and  C_19
REMARK    7  A    between atoms: C_19  and  C_20
REMARK    8  A    between atoms: C_20  and  C_21
REMARK    9  A    between atoms: C_20  and  C_22
REMARK                            x       y       z     vdW  Elec       q    Type
REMARK                         _______ _______ _______ _____ _____    ______ ____
ROOT
ATOM      1  C   UNL     1       1.268   9.669  20.000  0.00  0.00    +0.000 A 
ATOM      2  N   UNL     1       0.981   9.321  21.303  0.00  0.00    +0.000 NA
ATOM      3  N   UNL     1       1.196   8.016  21.444  0.00  0.00    +0.000 NA
ATOM      4  N   UNL     1       1.644   7.566  20.261  0.00  0.00    +0.000 N 
ATOM      5  C   UNL     1       1.776   8.586  19.348  0.00  0.00    +0.000 A 
ATOM      6  N   UNL     1       2.435   8.452  18.184  0.00  0.00    +0.000 NA
ATOM      7  C   UNL     1       2.994   7.286  17.968  0.00  0.00    +0.000 A 
ATOM      8  N   UNL     1       4.074   7.430  17.153  0.00  0.00    +0.000 N 
ATOM      9  C   UNL     1       2.537   6.045  18.683  0.00  0.00    +0.000 A 
ATOM     10  C   UNL     1       2.591   4.760  18.148  0.00  0.00    +0.000 A 
ATOM     11  C   UNL     1       2.050   3.695  18.887  0.00  0.00    +0.000 A 
ATOM     12 CL   UNL     1       2.004   2.115  18.199  0.00  0.00    +0.000 Cl
ATOM     13  C   UNL     1       1.499   3.893  20.162  0.00  0.00    +0.000 A 
ATOM     14  C   UNL     1       1.435   5.174  20.700  0.00  0.00    +0.000 A 
ATOM     15  C   UNL     1       1.905   6.235  19.924  0.00  0.00    +0.000 A 
ATOM     16  H   UNL     1       4.239   8.429  17.003  0.00  0.00    +0.000 HD
ENDROOT
BRANCH   1  17
ATOM     17  S   UNL     1       1.074  11.244  19.336  0.00  0.00    +0.000 S 
ATOM     18  O   UNL     1       2.017  11.314  18.233  0.00  0.00    +0.000 OA
ATOM     19  O   UNL     1       1.093  12.162  20.460  0.00  0.00    +0.000 OA
BRANCH  17  23
ATOM     20  C   UNL     1      -3.226  10.834  18.044  0.00  0.00    +0.000 A 
ATOM     21  C   UNL     1      -2.251   9.979  17.511  0.00  0.00    +0.000 A 
ATOM     22  C   UNL     1      -0.912  10.192  17.786  0.00  0.00    +0.000 A 
ATOM     23  C   UNL     1      -0.557  11.231  18.659  0.00  0.00    +0.000 A 
ATOM     24  C   UNL     1      -1.502  12.142  19.129  0.00  0.00    +0.000 A 
ATOM     25  C   UNL     1      -2.839  11.943  18.811  0.00  0.00    +0.000 A 
BRANCH  20  27
ATOM     26  C   UNL     1      -5.462  11.677  17.382  0.00  0.00    +0.000 C 
ATOM     27  C   UNL     1      -4.693  10.477  17.907  0.00  0.00    +0.000 C 
ENDBRANCH  20  27
ENDBRANCH  17  23
ENDBRANCH   1  17
BRANCH   8  28
ATOM     28  C   UNL     1       5.240   6.602  16.987  0.00  0.00    +0.000 C 
BRANCH  28  29
ATOM     29  C   UNL     1       5.263   5.872  15.628  0.00  0.00    +0.000 C 
BRANCH  29  30
ATOM     30  C   UNL     1       6.525   5.052  15.270  0.00  0.00    +0.000 C 
ATOM     31  C   UNL     1       7.187   4.405  16.487  0.00  0.00    +0.000 C 
ATOM     32  C   UNL     1       6.159   3.941  14.270  0.00  0.00    +0.000 C 
ENDBRANCH  29  30
ENDBRANCH  28  29
ENDBRANCH   8  28
TORSDOF 6
ENDMDL
MODEL 5
REMARK VINA RESULT:      -8.7      1.631      3.492
REMARK  Name = 
REMARK  9 active torsions:
REMARK  status: ('A' for Active; 'I' for Inactive)
REMARK    1  A    between atoms: C_1  and  C_2
REMARK    2  A    between atoms: C_2  and  C_3
REMARK    3  A    between atoms: C_6  and  S_7
REMARK    4  A    between atoms: S_7  and  C_10
REMARK    5  A    between atoms: N_17  and  C_18
REMARK    6  A    between atoms: C_18  and  C_19
REMARK    7  A    between atoms: C_19  and  C_20
REMARK    8  A    between atoms: C_20  and  C_21
REMARK    9  A    between atoms: C_20  and  C_22
REMARK                            x       y       z     vdW  Elec       q    Type
REMARK                         _______ _______ _______ _____ _____    ______ ____
ROOT
ATOM      1  C   UNL     1       1.289   9.350  19.028  0.00  0.00    +0.000 A 
ATOM      2  N   UNL     1       1.363   9.671  17.689  0.00  0.00    +0.000 NA
ATOM      3  N   UNL     1       2.222   8.839  17.107  0.00  0.00    +0.000 NA
ATOM      4  N   UNL     1       2.648   7.992  18.057  0.00  0.00    +0.000 N 
ATOM      5  C   UNL     1       2.028   8.230  19.262  0.00  0.00    +0.000 A 
ATOM      6  N   UNL     1       2.084   7.377  20.300  0.00  0.00    +0.000 NA
ATOM      7  C   UNL     1       2.740   6.261  20.095  0.00  0.00    +0.000 A 
ATOM      8  N   UNL     1       2.246   5.276  20.894  0.00  0.00    +0.000 N 
ATOM      9  C   UNL     1       3.769   6.137  19.006  0.00  0.00    +0.000 A 
ATOM     10  C   UNL     1       4.889   5.311  19.068  0.00  0.00    +0.000 A 
ATOM     11  C   UNL     1       5.821   5.352  18.018  0.00  0.00    +0.000 A 
ATOM     12 CL   UNL     1       7.269   4.424  18.124  0.00  0.00    +0.000 Cl
ATOM     13  C   UNL     1       5.624   6.172  16.895  0.00  0.00    +0.000 A 
ATOM     14  C   UNL     1       4.512   7.004  16.829  0.00  0.00    +0.000 A 
ATOM     15  C   UNL     1       3.634   7.012  17.914  0.00  0.00    +0.000 A 
ATOM     16  H   UNL     1       1.415   5.631  21.373  0.00  0.00    +0.000 HD
ENDROOT
BRANCH   1  17
ATOM     17  S   UNL     1       0.350  10.198  20.193  0.00  0.00    +0.000 S 
ATOM     18  O   UNL     1       1.005  11.484  20.351  0.00  0.00    +0.000 OA
ATOM     19  O   UNL     1       0.136   9.272  21.291  0.00  0.00    +0.000 OA
BRANCH  17  23
ATOM     20  C   UNL     1      -3.290  11.153  17.711  0.00  0.00    +0.000 A 
ATOM     21  C   UNL     1      -2.851  12.060  18.686  0.00  0.00    +0.000 A 
ATOM     22  C   UNL     1      -1.830  11.711  19.551  0.00  0.00    +0.000 A 
ATOM     23  C   UNL     1      -1.199  10.469  19.388  0.00  0.00    +0.000 A 
ATOM     24  C   UNL     1      -1.676   9.523  18.483  0.00  0.00    +0.000 A 
ATOM     25  C   UNL     1      -2.732   9.868  17.649  0.00  0.00    +0.000 A 
BRANCH  20  27
ATOM     26  C   UNL     1      -5.588  11.983  17.286  0.00  0.00    +0.000 C 
ATOM     27  C   UNL     1      -4.263  11.613  16.642  0.00  0.00    +0.000 C 
ENDBRANCH  20  27
ENDBRANCH  17  23
ENDBRANCH   1  17
BRANCH   8  28
ATOM     28  C   UNL     1       2.284   3.844  20.749  0.00  0.00    +0.000 C 
BRANCH  28  29
ATOM     29  C   UNL     1       1.086   3.295  19.946  0.00  0.00    +0.000 C 
BRANCH  29  30
ATOM     30  C   UNL     1       1.329   2.892  18.472  0.00  0.00    +0.000 C 
ATOM     31  C   UNL     1       1.302   4.080  17.511  0.00  0.00    +0.000 C 
ATOM     32  C   UNL     1       2.695   2.194  18.341  0.00  0.00    +0.000 C 
ENDBRANCH  29  30
ENDBRANCH  28  29
ENDBRANCH   8  28
TORSDOF 6
ENDMDL
MODEL 6
REMARK VINA RESULT:      -8.5      2.594      4.607
REMARK  Name = 
REMARK  9 active torsions:
REMARK  status: ('A' for Active; 'I' for Inactive)
REMARK    1  A    between atoms: C_1  and  C_2
REMARK    2  A    between atoms: C_2  and  C_3
REMARK    3  A    between atoms: C_6  and  S_7
REMARK    4  A    between atoms: S_7  and  C_10
REMARK    5  A    between atoms: N_17  and  C_18
REMARK    6  A    between atoms: C_18  and  C_19
REMARK    7  A    between atoms: C_19  and  C_20
REMARK    8  A    between atoms: C_20  and  C_21
REMARK    9  A    between atoms: C_20  and  C_22
REMARK                            x       y       z     vdW  Elec       q    Type
REMARK                         _______ _______ _______ _____ _____    ______ ____
ROOT
ATOM      1  C   UNL     1       1.066   9.646  19.443  0.00  0.00    +0.000 A 
ATOM      2  N   UNL     1       1.063   9.998  18.109  0.00  0.00    +0.000 NA
ATOM      3  N   UNL     1       1.844   9.146  17.450  0.00  0.00    +0.000 NA
ATOM      4  N   UNL     1       2.297   8.258  18.351  0.00  0.00    +0.000 N 
ATOM      5  C   UNL     1       1.771   8.491  19.600  0.00  0.00    +0.000 A 
ATOM      6  N   UNL     1       1.860   7.612  20.612  0.00  0.00    +0.000 NA
ATOM      7  C   UNL     1       2.452   6.474  20.339  0.00  0.00    +0.000 A 
ATOM      8  N   UNL     1       1.971   5.491  21.147  0.00  0.00    +0.000 N 
ATOM      9  C   UNL     1       3.398   6.334  19.179  0.00  0.00    +0.000 A 
ATOM     10  C   UNL     1       4.484   5.461  19.145  0.00  0.00    +0.000 A 
ATOM     11  C   UNL     1       5.342   5.490  18.034  0.00  0.00    +0.000 A 
ATOM     12 CL   UNL     1       6.753   4.501  18.020  0.00  0.00    +0.000 Cl
ATOM     13  C   UNL     1       5.106   6.345  16.947  0.00  0.00    +0.000 A 
ATOM     14  C   UNL     1       4.029   7.225  16.976  0.00  0.00    +0.000 A 
ATOM     15  C   UNL     1       3.227   7.242  18.118  0.00  0.00    +0.000 A 
ATOM     16  H   UNL     1       1.190   5.868  21.691  0.00  0.00    +0.000 HD
ENDROOT
BRANCH   1  17
ATOM     17  S   UNL     1       0.247  10.503  20.688  0.00  0.00    +0.000 S 
ATOM     18  O   UNL     1       0.979  10.205  21.906  0.00  0.00    +0.000 OA
ATOM     19  O   UNL     1      -1.166  10.214  20.516  0.00  0.00    +0.000 OA
BRANCH  17  23
ATOM     20  C   UNL     1       1.165  14.649  19.171  0.00  0.00    +0.000 A 
ATOM     21  C   UNL     1       2.110  13.964  19.949  0.00  0.00    +0.000 A 
ATOM     22  C   UNL     1       1.780  12.758  20.541  0.00  0.00    +0.000 A 
ATOM     23  C   UNL     1       0.515  12.204  20.293  0.00  0.00    +0.000 A 
ATOM     24  C   UNL     1      -0.464  12.909  19.595  0.00  0.00    +0.000 A 
ATOM     25  C   UNL     1      -0.135  14.140  19.041  0.00  0.00    +0.000 A 
BRANCH  20  27
ATOM     26  C   UNL     1       3.034  15.686  17.915  0.00  0.00    +0.000 C 
ATOM     27  C   UNL     1       1.594  15.859  18.364  0.00  0.00    +0.000 C 
ENDBRANCH  20  27
ENDBRANCH  17  23
ENDBRANCH   1  17
BRANCH   8  28
ATOM     28  C   UNL     1       1.937   4.063  20.968  0.00  0.00    +0.000 C 
BRANCH  28  29
ATOM     29  C   UNL     1       0.754   3.601  20.092  0.00  0.00    +0.000 C 
BRANCH  29  30
ATOM     30  C   UNL     1       1.080   2.916  18.743  0.00  0.00    +0.000 C 
ATOM     31  C   UNL     1       1.386   3.910  17.623  0.00  0.00    +0.000 C 
ATOM     32  C   UNL     1       2.295   1.986  18.911  0.00  0.00    +0.000 C 
ENDBRANCH  29  30
ENDBRANCH  28  29
ENDBRANCH   8  28
TORSDOF 6
ENDMDL
MODEL 7
REMARK VINA RESULT:      -8.5      2.423      4.322
REMARK  Name = 
REMARK  9 active torsions:
REMARK  status: ('A' for Active; 'I' for Inactive)
REMARK    1  A    between atoms: C_1  and  C_2
REMARK    2  A    between atoms: C_2  and  C_3
REMARK    3  A    between atoms: C_6  and  S_7
REMARK    4  A    between atoms: S_7  and  C_10
REMARK    5  A    between atoms: N_17  and  C_18
REMARK    6  A    between atoms: C_18  and  C_19
REMARK    7  A    between atoms: C_19  and  C_20
REMARK    8  A    between atoms: C_20  and  C_21
REMARK    9  A    between atoms: C_20  and  C_22
REMARK                            x       y       z     vdW  Elec       q    Type
REMARK                         _______ _______ _______ _____ _____    ______ ____
ROOT
ATOM      1  C   UNL     1       1.165   9.572  19.354  0.00  0.00    +0.000 A 
ATOM      2  N   UNL     1       1.163   9.915  18.017  0.00  0.00    +0.000 NA
ATOM      3  N   UNL     1       1.929   9.049  17.362  0.00  0.00    +0.000 NA
ATOM      4  N   UNL     1       2.374   8.161  18.266  0.00  0.00    +0.000 N 
ATOM      5  C   UNL     1       1.855   8.408  19.516  0.00  0.00    +0.000 A 
ATOM      6  N   UNL     1       1.936   7.534  20.532  0.00  0.00    +0.000 NA
ATOM      7  C   UNL     1       2.512   6.387  20.264  0.00  0.00    +0.000 A 
ATOM      8  N   UNL     1       2.021   5.415  21.080  0.00  0.00    +0.000 N 
ATOM      9  C   UNL     1       3.452   6.228  19.102  0.00  0.00    +0.000 A 
ATOM     10  C   UNL     1       4.526   5.340  19.070  0.00  0.00    +0.000 A 
ATOM     11  C   UNL     1       5.381   5.352  17.955  0.00  0.00    +0.000 A 
ATOM     12 CL   UNL     1       6.779   4.343  17.943  0.00  0.00    +0.000 Cl
ATOM     13  C   UNL     1       5.153   6.203  16.863  0.00  0.00    +0.000 A 
ATOM     14  C   UNL     1       4.087   7.097  16.891  0.00  0.00    +0.000 A 
ATOM     15  C   UNL     1       3.290   7.131  18.036  0.00  0.00    +0.000 A 
ATOM     16  H   UNL     1       1.247   5.805  21.624  0.00  0.00    +0.000 HD
ENDROOT
BRANCH   1  17
ATOM     17  S   UNL     1       0.361  10.447  20.596  0.00  0.00    +0.000 S 
ATOM     18  O   UNL     1       1.265  10.419  21.732  0.00  0.00    +0.000 OA
ATOM     19  O   UNL     1      -0.994   9.929  20.644  0.00  0.00    +0.000 OA
BRANCH  17  23
ATOM     20  C   UNL     1       0.065  14.834  19.600  0.00  0.00    +0.000 A 
ATOM     21  C   UNL     1      -1.064  14.012  19.477  0.00  0.00    +0.000 A 
ATOM     22  C   UNL     1      -0.947  12.642  19.635  0.00  0.00    +0.000 A 
ATOM     23  C   UNL     1       0.299  12.104  19.989  0.00  0.00    +0.000 A 
ATOM     24  C   UNL     1       1.447  12.894  20.031  0.00  0.00    +0.000 A 
ATOM     25  C   UNL     1       1.325  14.263  19.828  0.00  0.00    +0.000 A 
BRANCH  20  27
ATOM     26  C   UNL     1      -0.518  16.831  18.251  0.00  0.00    +0.000 C 
ATOM     27  C   UNL     1      -0.105  16.341  19.627  0.00  0.00    +0.000 C 
ENDBRANCH  20  27
ENDBRANCH  17  23
ENDBRANCH   1  17
BRANCH   8  28
ATOM     28  C   UNL     1       1.968   3.986  20.909  0.00  0.00    +0.000 C 
BRANCH  28  29
ATOM     29  C   UNL     1       0.840   3.543  19.955  0.00  0.00    +0.000 C 
BRANCH  29  30
ATOM     30  C   UNL     1       1.246   2.884  18.615  0.00  0.00    +0.000 C 
ATOM     31  C   UNL     1       1.442   3.894  17.484  0.00  0.00    +0.000 C 
ATOM     32  C   UNL     1       2.557   2.099  18.796  0.00  0.00    +0.000 C 
ENDBRANCH  29  30
ENDBRANCH  28  29
ENDBRANCH   8  28
TORSDOF 6
ENDMDL
MODEL 8
REMARK VINA RESULT:      -8.5      1.753      2.666
REMARK  Name = 
REMARK  9 active torsions:
REMARK  status: ('A' for Active; 'I' for Inactive)
REMARK    1  A    between atoms: C_1  and  C_2
REMARK    2  A    between atoms: C_2  and  C_3
REMARK    3  A    between atoms: C_6  and  S_7
REMARK    4  A    between atoms: S_7  and  C_10
REMARK    5  A    between atoms: N_17  and  C_18
REMARK    6  A    between atoms: C_18  and  C_19
REMARK    7  A    between atoms: C_19  and  C_20
REMARK    8  A    between atoms: C_20  and  C_21
REMARK    9  A    between atoms: C_20  and  C_22
REMARK                            x       y       z     vdW  Elec       q    Type
REMARK                         _______ _______ _______ _____ _____    ______ ____
ROOT
ATOM      1  C   UNL     1       0.990   9.620  19.748  0.00  0.00    +0.000 A 
ATOM      2  N   UNL     1       0.785   9.407  21.096  0.00  0.00    +0.000 NA
ATOM      3  N   UNL     1       1.185   8.174  21.390  0.00  0.00    +0.000 NA
ATOM      4  N   UNL     1       1.664   7.639  20.254  0.00  0.00    +0.000 N 
ATOM      5  C   UNL     1       1.630   8.541  19.217  0.00  0.00    +0.000 A 
ATOM      6  N   UNL     1       2.273   8.349  18.053  0.00  0.00    +0.000 NA
ATOM      7  C   UNL     1       2.986   7.251  17.961  0.00  0.00    +0.000 A 
ATOM      8  N   UNL     1       4.016   7.435  17.091  0.00  0.00    +0.000 N 
ATOM      9  C   UNL     1       2.724   6.063  18.843  0.00  0.00    +0.000 A 
ATOM     10  C   UNL     1       2.945   4.739  18.471  0.00  0.00    +0.000 A 
ATOM     11  C   UNL     1       2.577   3.715  19.359  0.00  0.00    +0.000 A 
ATOM     12 CL   UNL     1       2.737   2.068  18.876  0.00  0.00    +0.000 Cl
ATOM     13  C   UNL     1       2.033   3.999  20.621  0.00  0.00    +0.000 A 
ATOM     14  C   UNL     1       1.802   5.318  20.997  0.00  0.00    +0.000 A 
ATOM     15  C   UNL     1       2.101   6.324  20.076  0.00  0.00    +0.000 A 
ATOM     16  H   UNL     1       4.036   8.419  16.811  0.00  0.00    +0.000 HD
ENDROOT
BRANCH   1  17
ATOM     17  S   UNL     1       0.562  11.054  18.902  0.00  0.00    +0.000 S 
ATOM     18  O   UNL     1      -0.400  10.636  17.898  0.00  0.00    +0.000 OA
ATOM     19  O   UNL     1       1.810  11.722  18.580  0.00  0.00    +0.000 OA
BRANCH  17  23
ATOM     20  C   UNL     1      -1.613  13.054  22.308  0.00  0.00    +0.000 A 
ATOM     21  C   UNL     1      -2.340  12.419  21.291  0.00  0.00    +0.000 A 
ATOM     22  C   UNL     1      -1.690  11.935  20.169  0.00  0.00    +0.000 A 
ATOM     23  C   UNL     1      -0.292  12.028  20.103  0.00  0.00    +0.000 A 
ATOM     24  C   UNL     1       0.437  12.730  21.061  0.00  0.00    +0.000 A 
ATOM     25  C   UNL     1      -0.232  13.251  22.162  0.00  0.00    +0.000 A 
BRANCH  20  27
ATOM     26  C   UNL     1      -3.502  12.495  23.814  0.00  0.00    +0.000 C 
ATOM     27  C   UNL     1      -2.297  13.398  23.616  0.00  0.00    +0.000 C 
ENDBRANCH  20  27
ENDBRANCH  17  23
ENDBRANCH   1  17
BRANCH   8  28
ATOM     28  C   UNL     1       5.282   6.759  16.982  0.00  0.00    +0.000 C 
BRANCH  28  29
ATOM     29  C   UNL     1       5.426   5.974  15.661  0.00  0.00    +0.000 C 
BRANCH  29  30
ATOM     30  C   UNL     1       5.927   4.512  15.742  0.00  0.00    +0.000 C 
ATOM     31  C   UNL     1       6.240   3.908  14.372  0.00  0.00    +0.000 C 
ATOM     32  C   UNL     1       7.201   4.445  16.604  0.00  0.00    +0.000 C 
ENDBRANCH  29  30
ENDBRANCH  28  29
ENDBRANCH   8  28
TORSDOF 6
ENDMDL
MODEL 9
REMARK VINA RESULT:      -8.3      2.105      2.902
REMARK  Name = 
REMARK  9 active torsions:
REMARK  status: ('A' for Active; 'I' for Inactive)
REMARK    1  A    between atoms: C_1  and  C_2
REMARK    2  A    between atoms: C_2  and  C_3
REMARK    3  A    between atoms: C_6  and  S_7
REMARK    4  A    between atoms: S_7  and  C_10
REMARK    5  A    between atoms: N_17  and  C_18
REMARK    6  A    between atoms: C_18  and  C_19
REMARK    7  A    between atoms: C_19  and  C_20
REMARK    8  A    between atoms: C_20  and  C_21
REMARK    9  A    between atoms: C_20  and  C_22
REMARK                            x       y       z     vdW  Elec       q    Type
REMARK                         _______ _______ _______ _____ _____    ______ ____
ROOT
ATOM      1  C   UNL     1       1.424   8.981  19.494  0.00  0.00    +0.000 A 
ATOM      2  N   UNL     1       1.281   8.710  20.839  0.00  0.00    +0.000 NA
ATOM      3  N   UNL     1       1.761   7.492  21.073  0.00  0.00    +0.000 NA
ATOM      4  N   UNL     1       2.226   7.025  19.902  0.00  0.00    +0.000 N 
ATOM      5  C   UNL     1       2.103   7.960  18.900  0.00  0.00    +0.000 A 
ATOM      6  N   UNL     1       2.712   7.845  17.708  0.00  0.00    +0.000 NA
ATOM      7  C   UNL     1       3.481   6.795  17.551  0.00  0.00    +0.000 A 
ATOM      8  N   UNL     1       4.466   7.068  16.652  0.00  0.00    +0.000 N 
ATOM      9  C   UNL     1       3.319   5.563  18.397  0.00  0.00    +0.000 A 
ATOM     10  C   UNL     1       3.601   4.267  17.968  0.00  0.00    +0.000 A 
ATOM     11  C   UNL     1       3.323   3.194  18.830  0.00  0.00    +0.000 A 
ATOM     12 CL   UNL     1       3.558   1.577  18.282  0.00  0.00    +0.000 Cl
ATOM     13  C   UNL     1       2.812   3.402  20.121  0.00  0.00    +0.000 A 
ATOM     14  C   UNL     1       2.522   4.692  20.553  0.00  0.00    +0.000 A 
ATOM     15  C   UNL     1       2.729   5.744  19.660  0.00  0.00    +0.000 A 
ATOM     16  H   UNL     1       4.420   8.060  16.409  0.00  0.00    +0.000 HD
ENDROOT
BRANCH   1  17
ATOM     17  S   UNL     1       0.885  10.417  18.717  0.00  0.00    +0.000 S 
ATOM     18  O   UNL     1      -0.229  10.007  17.881  0.00  0.00    +0.000 OA
ATOM     19  O   UNL     1       2.075  11.067  18.197  0.00  0.00    +0.000 OA
BRANCH  17  23
ATOM     20  C   UNL     1      -0.849  13.358  21.662  0.00  0.00    +0.000 A 
ATOM     21  C   UNL     1       0.532  13.342  21.421  0.00  0.00    +0.000 A 
ATOM     22  C   UNL     1       1.090  12.349  20.635  0.00  0.00    +0.000 A 
ATOM     23  C   UNL     1       0.244  11.407  20.032  0.00  0.00    +0.000 A 
ATOM     24  C   UNL     1      -1.117  11.356  20.329  0.00  0.00    +0.000 A 
ATOM     25  C   UNL     1      -1.659  12.333  21.154  0.00  0.00    +0.000 A 
BRANCH  20  27
ATOM     26  C   UNL     1      -2.870  14.789  21.793  0.00  0.00    +0.000 C 
ATOM     27  C   UNL     1      -1.476  14.555  22.350  0.00  0.00    +0.000 C 
ENDBRANCH  20  27
ENDBRANCH  17  23
ENDBRANCH   1  17
BRANCH   8  28
ATOM     28  C   UNL     1       5.763   6.470  16.473  0.00  0.00    +0.000 C 
BRANCH  28  29
ATOM     29  C   UNL     1       6.781   6.928  17.538  0.00  0.00    +0.000 C 
BRANCH  29  30
ATOM     30  C   UNL     1       7.641   5.843  18.230  0.00  0.00    +0.000 C 
ATOM     31  C   UNL     1       7.199   5.549  19.664  0.00  0.00    +0.000 C 
ATOM     32  C   UNL     1       7.573   4.533  17.424  0.00  0.00    +0.000 C 
ENDBRANCH  29  30
ENDBRANCH  28  29
ENDBRANCH   8  28
TORSDOF 6
ENDMDL
