MODEL 1
REMARK VINA RESULT:      -5.8      0.000      0.000
REMARK  Name = 
REMARK  12 active torsions:
REMARK  status: ('A' for Active; 'I' for Inactive)
REMARK    1  A    between atoms: C_1  and  C_2
REMARK    2  A    between atoms: C_2  and  C_3
REMARK    3  A    between atoms: C_3  and  C_4
REMARK    4  A    between atoms: C_4  and  C_5
REMARK    5  A    between atoms: C_5  and  C_6
REMARK    6  A    between atoms: C_6  and  C_7
REMARK    7  A    between atoms: C_7  and  C_8
REMARK    8  A    between atoms: C_8  and  C_9
REMARK    9  A    between atoms: C_9  and  C_10
REMARK   10  A    between atoms: C_10  and  O_11
REMARK   11  A    between atoms: C_10  and  C_12
REMARK   12  A    between atoms: C_14  and  C_15
REMARK                            x       y       z     vdW  Elec       q    Type
REMARK                         _______ _______ _______ _____ _____    ______ ____
ROOT
ATOM      1  C   UNL     1       5.116   6.205  17.232  0.00  0.00    +0.000 C 
ENDROOT
BRANCH   1   2
ATOM      2  C   UNL     1       6.287   5.350  16.838  0.00  0.00    +0.000 C 
ATOM      3  O   UNL     1       7.506   6.054  16.556  0.00  0.00    +0.000 OA
ATOM      4  C   UNL     1       7.514   5.178  17.701  0.00  0.00    +0.000 C 
BRANCH   4   5
ATOM      5  C   UNL     1       7.708   5.867  18.998  0.00  0.00    +0.000 C 
ATOM      6  N   UNL     1       8.367   7.056  18.916  0.00  0.00    +0.000 N 
ATOM      7  O   UNL     1       7.334   5.368  20.046  0.00  0.00    +0.000 OA
ATOM      8  H   UNL     1       8.511   7.597  19.754  0.00  0.00    +0.000 HD
ATOM      9  H   UNL     1       8.547   7.477  18.013  0.00  0.00    +0.000 HD
ENDBRANCH   4   5
ENDBRANCH   1   2
BRANCH   1  10
ATOM     10  O   UNL     1       4.664   6.922  16.079  0.00  0.00    +0.000 OA
ATOM     11  H   UNL     1       4.085   6.331  15.569  0.00  0.00    +0.000 HD
ENDBRANCH   1  10
BRANCH   1  12
ATOM     12  C   UNL     1       3.942   5.353  17.731  0.00  0.00    +0.000 C 
BRANCH  12  13
ATOM     13  C   UNL     1       2.805   6.178  18.338  0.00  0.00    +0.000 C 
BRANCH  13  14
ATOM     14  C   UNL     1       2.679   5.990  19.855  0.00  0.00    +0.000 C 
BRANCH  14  15
ATOM     15  C   UNL     1       1.522   5.086  20.304  0.00  0.00    +0.000 C 
BRANCH  15  16
ATOM     16  C   UNL     1       1.989   3.950  21.212  0.00  0.00    +0.000 C 
BRANCH  16  17
ATOM     17  C   UNL     1       1.787   2.581  20.571  0.00  0.00    +0.000 C 
BRANCH  17  18
ATOM     18  C   UNL     1       1.077   2.733  19.225  0.00  0.00    +0.000 C 
BRANCH  18  20
ATOM     19  C   UNL     1       3.269   1.692  18.582  0.00  0.00    +0.000 C 
ATOM     20  C   UNL     1       1.959   2.268  18.071  0.00  0.00    +0.000 C 
ENDBRANCH  18  20
ENDBRANCH  17  18
ENDBRANCH  16  17
ENDBRANCH  15  16
ENDBRANCH  14  15
ENDBRANCH  13  14
ENDBRANCH  12  13
ENDBRANCH   1  12
TORSDOF 11
ENDMDL
MODEL 2
REMARK VINA RESULT:      -5.7      1.782      2.429
REMARK  Name = 
REMARK  12 active torsions:
REMARK  status: ('A' for Active; 'I' for Inactive)
REMARK    1  A    between atoms: C_1  and  C_2
REMARK    2  A    between atoms: C_2  and  C_3
REMARK    3  A    between atoms: C_3  and  C_4
REMARK    4  A    between atoms: C_4  and  C_5
REMARK    5  A    between atoms: C_5  and  C_6
REMARK    6  A    between atoms: C_6  and  C_7
REMARK    7  A    between atoms: C_7  and  C_8
REMARK    8  A    between atoms: C_8  and  C_9
REMARK    9  A    between atoms: C_9  and  C_10
REMARK   10  A    between atoms: C_10  and  O_11
REMARK   11  A    between atoms: C_10  and  C_12
REMARK   12  A    between atoms: C_14  and  C_15
REMARK                            x       y       z     vdW  Elec       q    Type
REMARK                         _______ _______ _______ _____ _____    ______ ____
ROOT
ATOM      1  C   UNL     1       5.947   5.105  18.848  0.00  0.00    +0.000 C 
ENDROOT
BRANCH   1   2
ATOM      2  C   UNL     1       5.934   6.258  17.885  0.00  0.00    +0.000 C 
ATOM      3  O   UNL     1       7.219   6.692  17.415  0.00  0.00    +0.000 OA
ATOM      4  C   UNL     1       6.326   6.128  16.433  0.00  0.00    +0.000 C 
BRANCH   4   5
ATOM      5  C   UNL     1       6.806   4.866  15.822  0.00  0.00    +0.000 C 
ATOM      6  N   UNL     1       5.900   4.246  15.016  0.00  0.00    +0.000 N 
ATOM      7  O   UNL     1       7.913   4.418  16.071  0.00  0.00    +0.000 OA
ATOM      8  H   UNL     1       6.164   3.396  14.542  0.00  0.00    +0.000 HD
ATOM      9  H   UNL     1       5.045   4.720  14.752  0.00  0.00    +0.000 HD
ENDBRANCH   4   5
ENDBRANCH   1   2
BRANCH   1  10
ATOM     10  O   UNL     1       6.895   5.383  19.884  0.00  0.00    +0.000 OA
ATOM     11  H   UNL     1       6.724   6.282  20.209  0.00  0.00    +0.000 HD
ENDBRANCH   1  10
BRANCH   1  12
ATOM     12  C   UNL     1       4.580   4.917  19.517  0.00  0.00    +0.000 C 
BRANCH  12  13
ATOM     13  C   UNL     1       3.459   5.718  18.850  0.00  0.00    +0.000 C 
BRANCH  13  14
ATOM     14  C   UNL     1       2.371   6.154  19.839  0.00  0.00    +0.000 C 
BRANCH  14  15
ATOM     15  C   UNL     1       1.948   5.083  20.853  0.00  0.00    +0.000 C 
BRANCH  15  16
ATOM     16  C   UNL     1       0.872   4.149  20.301  0.00  0.00    +0.000 C 
BRANCH  16  17
ATOM     17  C   UNL     1       1.374   2.716  20.155  0.00  0.00    +0.000 C 
BRANCH  17  18
ATOM     18  C   UNL     1       1.100   2.207  18.739  0.00  0.00    +0.000 C 
BRANCH  18  20
ATOM     19  C   UNL     1       3.499   1.591  18.329  0.00  0.00    +0.000 C 
ATOM     20  C   UNL     1       2.310   2.397  17.831  0.00  0.00    +0.000 C 
ENDBRANCH  18  20
ENDBRANCH  17  18
ENDBRANCH  16  17
ENDBRANCH  15  16
ENDBRANCH  14  15
ENDBRANCH  13  14
ENDBRANCH  12  13
ENDBRANCH   1  12
TORSDOF 11
ENDMDL
MODEL 3
REMARK VINA RESULT:      -5.7      1.119      1.964
REMARK  Name = 
REMARK  12 active torsions:
REMARK  status: ('A' for Active; 'I' for Inactive)
REMARK    1  A    between atoms: C_1  and  C_2
REMARK    2  A    between atoms: C_2  and  C_3
REMARK    3  A    between atoms: C_3  and  C_4
REMARK    4  A    between atoms: C_4  and  C_5
REMARK    5  A    between atoms: C_5  and  C_6
REMARK    6  A    between atoms: C_6  and  C_7
REMARK    7  A    between atoms: C_7  and  C_8
REMARK    8  A    between atoms: C_8  and  C_9
REMARK    9  A    between atoms: C_9  and  C_10
REMARK   10  A    between atoms: C_10  and  O_11
REMARK   11  A    between atoms: C_10  and  C_12
REMARK   12  A    between atoms: C_14  and  C_15
REMARK                            x       y       z     vdW  Elec       q    Type
REMARK                         _______ _______ _______ _____ _____    ______ ____
ROOT
ATOM      1  C   UNL     1       5.118   5.859  17.767  0.00  0.00    +0.000 C 
ENDROOT
BRANCH   1   2
ATOM      2  C   UNL     1       6.252   4.977  17.328  0.00  0.00    +0.000 C 
ATOM      3  O   UNL     1       7.411   5.658  16.823  0.00  0.00    +0.000 OA
ATOM      4  C   UNL     1       7.578   4.915  18.048  0.00  0.00    +0.000 C 
BRANCH   4   5
ATOM      5  C   UNL     1       7.911   5.746  19.228  0.00  0.00    +0.000 C 
ATOM      6  N   UNL     1       8.404   6.980  18.932  0.00  0.00    +0.000 N 
ATOM      7  O   UNL     1       7.783   5.319  20.364  0.00  0.00    +0.000 OA
ATOM      8  H   UNL     1       8.626   7.614  19.684  0.00  0.00    +0.000 HD
ATOM      9  H   UNL     1       8.377   7.325  17.981  0.00  0.00    +0.000 HD
ENDBRANCH   4   5
ENDBRANCH   1   2
BRANCH   1  10
ATOM     10  O   UNL     1       5.188   7.092  17.044  0.00  0.00    +0.000 OA
ATOM     11  H   UNL     1       4.550   7.707  17.442  0.00  0.00    +0.000 HD
ENDBRANCH   1  10
BRANCH   1  12
ATOM     12  C   UNL     1       3.758   5.222  17.453  0.00  0.00    +0.000 C 
BRANCH  12  13
ATOM     13  C   UNL     1       3.864   3.793  16.915  0.00  0.00    +0.000 C 
BRANCH  13  14
ATOM     14  C   UNL     1       2.647   2.931  17.274  0.00  0.00    +0.000 C 
BRANCH  14  15
ATOM     15  C   UNL     1       1.518   3.673  18.002  0.00  0.00    +0.000 C 
BRANCH  15  16
ATOM     16  C   UNL     1       0.750   2.766  18.963  0.00  0.00    +0.000 C 
BRANCH  16  17
ATOM     17  C   UNL     1       0.766   3.298  20.392  0.00  0.00    +0.000 C 
BRANCH  17  18
ATOM     18  C   UNL     1       2.177   3.757  20.764  0.00  0.00    +0.000 C 
BRANCH  18  20
ATOM     19  C   UNL     1       4.214   2.337  20.396  0.00  0.00    +0.000 C 
ATOM     20  C   UNL     1       3.019   2.602  21.296  0.00  0.00    +0.000 C 
ENDBRANCH  18  20
ENDBRANCH  17  18
ENDBRANCH  16  17
ENDBRANCH  15  16
ENDBRANCH  14  15
ENDBRANCH  13  14
ENDBRANCH  12  13
ENDBRANCH   1  12
TORSDOF 11
ENDMDL
MODEL 4
REMARK VINA RESULT:      -5.7      1.064      1.120
REMARK  Name = 
REMARK  12 active torsions:
REMARK  status: ('A' for Active; 'I' for Inactive)
REMARK    1  A    between atoms: C_1  and  C_2
REMARK    2  A    between atoms: C_2  and  C_3
REMARK    3  A    between atoms: C_3  and  C_4
REMARK    4  A    between atoms: C_4  and  C_5
REMARK    5  A    between atoms: C_5  and  C_6
REMARK    6  A    between atoms: C_6  and  C_7
REMARK    7  A    between atoms: C_7  and  C_8
REMARK    8  A    between atoms: C_8  and  C_9
REMARK    9  A    between atoms: C_9  and  C_10
REMARK   10  A    between atoms: C_10  and  O_11
REMARK   11  A    between atoms: C_10  and  C_12
REMARK   12  A    between atoms: C_14  and  C_15
REMARK                            x       y       z     vdW  Elec       q    Type
REMARK                         _______ _______ _______ _____ _____    ______ ____
ROOT
ATOM      1  C   UNL     1       5.491   6.334  16.772  0.00  0.00    +0.000 C 
ENDROOT
BRANCH   1   2
ATOM      2  C   UNL     1       6.273   5.054  16.862  0.00  0.00    +0.000 C 
ATOM      3  O   UNL     1       7.652   5.139  16.472  0.00  0.00    +0.000 OA
ATOM      4  C   UNL     1       7.387   4.834  17.856  0.00  0.00    +0.000 C 
BRANCH   4   5
ATOM      5  C   UNL     1       7.851   5.867  18.811  0.00  0.00    +0.000 C 
ATOM      6  N   UNL     1       7.954   5.442  20.101  0.00  0.00    +0.000 N 
ATOM      7  O   UNL     1       8.075   7.011  18.452  0.00  0.00    +0.000 OA
ATOM      8  H   UNL     1       8.292   6.081  20.804  0.00  0.00    +0.000 HD
ATOM      9  H   UNL     1       7.871   4.457  20.321  0.00  0.00    +0.000 HD
ENDBRANCH   4   5
ENDBRANCH   1   2
BRANCH   1  10
ATOM     10  O   UNL     1       5.412   6.728  15.398  0.00  0.00    +0.000 OA
ATOM     11  H   UNL     1       5.761   5.999  14.859  0.00  0.00    +0.000 HD
ENDBRANCH   1  10
BRANCH   1  12
ATOM     12  C   UNL     1       4.054   6.150  17.278  0.00  0.00    +0.000 C 
BRANCH  12  13
ATOM     13  C   UNL     1       3.949   6.089  18.804  0.00  0.00    +0.000 C 
BRANCH  13  14
ATOM     14  C   UNL     1       2.505   5.926  19.294  0.00  0.00    +0.000 C 
BRANCH  14  15
ATOM     15  C   UNL     1       2.334   5.024  20.524  0.00  0.00    +0.000 C 
BRANCH  15  16
ATOM     16  C   UNL     1       1.002   4.275  20.516  0.00  0.00    +0.000 C 
BRANCH  16  17
ATOM     17  C   UNL     1       1.193   2.763  20.434  0.00  0.00    +0.000 C 
BRANCH  17  18
ATOM     18  C   UNL     1       1.392   2.339  18.979  0.00  0.00    +0.000 C 
BRANCH  18  20
ATOM     19  C   UNL     1       3.525   2.545  17.671  0.00  0.00    +0.000 C 
ATOM     20  C   UNL     1       2.786   1.767  18.748  0.00  0.00    +0.000 C 
ENDBRANCH  18  20
ENDBRANCH  17  18
ENDBRANCH  16  17
ENDBRANCH  15  16
ENDBRANCH  14  15
ENDBRANCH  13  14
ENDBRANCH  12  13
ENDBRANCH   1  12
TORSDOF 11
ENDMDL
MODEL 5
REMARK VINA RESULT:      -5.7      0.768      2.305
REMARK  Name = 
REMARK  12 active torsions:
REMARK  status: ('A' for Active; 'I' for Inactive)
REMARK    1  A    between atoms: C_1  and  C_2
REMARK    2  A    between atoms: C_2  and  C_3
REMARK    3  A    between atoms: C_3  and  C_4
REMARK    4  A    between atoms: C_4  and  C_5
REMARK    5  A    between atoms: C_5  and  C_6
REMARK    6  A    between atoms: C_6  and  C_7
REMARK    7  A    between atoms: C_7  and  C_8
REMARK    8  A    between atoms: C_8  and  C_9
REMARK    9  A    between atoms: C_9  and  C_10
REMARK   10  A    between atoms: C_10  and  O_11
REMARK   11  A    between atoms: C_10  and  C_12
REMARK   12  A    between atoms: C_14  and  C_15
REMARK                            x       y       z     vdW  Elec       q    Type
REMARK                         _______ _______ _______ _____ _____    ______ ____
ROOT
ATOM      1  C   UNL     1       5.086   6.206  17.109  0.00  0.00    +0.000 C 
ENDROOT
BRANCH   1   2
ATOM      2  C   UNL     1       6.218   5.269  16.797  0.00  0.00    +0.000 C 
ATOM      3  O   UNL     1       7.470   5.892  16.472  0.00  0.00    +0.000 OA
ATOM      4  C   UNL     1       7.430   5.111  17.683  0.00  0.00    +0.000 C 
BRANCH   4   5
ATOM      5  C   UNL     1       7.647   5.892  18.923  0.00  0.00    +0.000 C 
ATOM      6  N   UNL     1       8.309   7.069  18.744  0.00  0.00    +0.000 N 
ATOM      7  O   UNL     1       7.289   5.472  20.011  0.00  0.00    +0.000 OA
ATOM      8  H   UNL     1       8.469   7.669  19.538  0.00  0.00    +0.000 HD
ATOM      9  H   UNL     1       8.477   7.422  17.810  0.00  0.00    +0.000 HD
ENDBRANCH   4   5
ENDBRANCH   1   2
BRANCH   1  10
ATOM     10  O   UNL     1       4.833   7.021  15.960  0.00  0.00    +0.000 OA
ATOM     11  H   UNL     1       5.663   7.469  15.725  0.00  0.00    +0.000 HD
ENDBRANCH   1  10
BRANCH   1  12
ATOM     12  C   UNL     1       3.794   5.439  17.419  0.00  0.00    +0.000 C 
BRANCH  12  13
ATOM     13  C   UNL     1       4.016   3.945  17.667  0.00  0.00    +0.000 C 
BRANCH  13  14
ATOM     14  C   UNL     1       2.902   3.073  17.074  0.00  0.00    +0.000 C 
BRANCH  14  15
ATOM     15  C   UNL     1       2.186   2.161  18.079  0.00  0.00    +0.000 C 
BRANCH  15  16
ATOM     16  C   UNL     1       2.557   2.484  19.526  0.00  0.00    +0.000 C 
BRANCH  16  17
ATOM     17  C   UNL     1       1.326   2.685  20.404  0.00  0.00    +0.000 C 
BRANCH  17  18
ATOM     18  C   UNL     1       0.946   4.166  20.441  0.00  0.00    +0.000 C 
BRANCH  18  20
ATOM     19  C   UNL     1       1.826   6.516  20.500  0.00  0.00    +0.000 C 
ATOM     20  C   UNL     1       2.161   5.049  20.710  0.00  0.00    +0.000 C 
ENDBRANCH  18  20
ENDBRANCH  17  18
ENDBRANCH  16  17
ENDBRANCH  15  16
ENDBRANCH  14  15
ENDBRANCH  13  14
ENDBRANCH  12  13
ENDBRANCH   1  12
TORSDOF 11
ENDMDL
MODEL 6
REMARK VINA RESULT:      -5.7      1.882      3.294
REMARK  Name = 
REMARK  12 active torsions:
REMARK  status: ('A' for Active; 'I' for Inactive)
REMARK    1  A    between atoms: C_1  and  C_2
REMARK    2  A    between atoms: C_2  and  C_3
REMARK    3  A    between atoms: C_3  and  C_4
REMARK    4  A    between atoms: C_4  and  C_5
REMARK    5  A    between atoms: C_5  and  C_6
REMARK    6  A    between atoms: C_6  and  C_7
REMARK    7  A    between atoms: C_7  and  C_8
REMARK    8  A    between atoms: C_8  and  C_9
REMARK    9  A    between atoms: C_9  and  C_10
REMARK   10  A    between atoms: C_10  and  O_11
REMARK   11  A    between atoms: C_10  and  C_12
REMARK   12  A    between atoms: C_14  and  C_15
REMARK                            x       y       z     vdW  Elec       q    Type
REMARK                         _______ _______ _______ _____ _____    ______ ____
ROOT
ATOM      1  C   UNL     1       6.914   4.855  17.974  0.00  0.00    +0.000 C 
ENDROOT
BRANCH   1   2
ATOM      2  C   UNL     1       7.332   6.289  17.819  0.00  0.00    +0.000 C 
ATOM      3  O   UNL     1       7.635   6.709  16.480  0.00  0.00    +0.000 OA
ATOM      4  C   UNL     1       6.492   7.324  17.109  0.00  0.00    +0.000 C 
BRANCH   4   5
ATOM      5  C   UNL     1       5.197   7.022  16.456  0.00  0.00    +0.000 C 
ATOM      6  N   UNL     1       4.107   7.180  17.258  0.00  0.00    +0.000 N 
ATOM      7  O   UNL     1       5.142   6.624  15.304  0.00  0.00    +0.000 OA
ATOM      8  H   UNL     1       3.188   7.021  16.875  0.00  0.00    +0.000 HD
ATOM      9  H   UNL     1       4.201   7.624  18.163  0.00  0.00    +0.000 HD
ENDBRANCH   4   5
ENDBRANCH   1   2
BRANCH   1  10
ATOM     10  O   UNL     1       8.084   4.030  17.941  0.00  0.00    +0.000 OA
ATOM     11  H   UNL     1       8.648   4.344  17.215  0.00  0.00    +0.000 HD
ENDBRANCH   1  10
BRANCH   1  12
ATOM     12  C   UNL     1       6.223   4.614  19.322  0.00  0.00    +0.000 C 
BRANCH  12  13
ATOM     13  C   UNL     1       4.709   4.425  19.206  0.00  0.00    +0.000 C 
BRANCH  13  14
ATOM     14  C   UNL     1       4.323   3.309  18.226  0.00  0.00    +0.000 C 
BRANCH  14  15
ATOM     15  C   UNL     1       3.294   3.709  17.160  0.00  0.00    +0.000 C 
BRANCH  15  16
ATOM     16  C   UNL     1       1.886   3.856  17.735  0.00  0.00    +0.000 C 
BRANCH  16  17
ATOM     17  C   UNL     1       1.457   2.625  18.528  0.00  0.00    +0.000 C 
BRANCH  17  18
ATOM     18  C   UNL     1       0.596   3.045  19.721  0.00  0.00    +0.000 C 
BRANCH  18  20
ATOM     19  C   UNL     1       2.235   2.977  21.621  0.00  0.00    +0.000 C 
ATOM     20  C   UNL     1       1.394   3.871  20.724  0.00  0.00    +0.000 C 
ENDBRANCH  18  20
ENDBRANCH  17  18
ENDBRANCH  16  17
ENDBRANCH  15  16
ENDBRANCH  14  15
ENDBRANCH  13  14
ENDBRANCH  12  13
ENDBRANCH   1  12
TORSDOF 11
ENDMDL
MODEL 7
REMARK VINA RESULT:      -5.6      1.942      2.634
REMARK  Name = 
REMARK  12 active torsions:
REMARK  status: ('A' for Active; 'I' for Inactive)
REMARK    1  A    between atoms: C_1  and  C_2
REMARK    2  A    between atoms: C_2  and  C_3
REMARK    3  A    between atoms: C_3  and  C_4
REMARK    4  A    between atoms: C_4  and  C_5
REMARK    5  A    between atoms: C_5  and  C_6
REMARK    6  A    between atoms: C_6  and  C_7
REMARK    7  A    between atoms: C_7  and  C_8
REMARK    8  A    between atoms: C_8  and  C_9
REMARK    9  A    between atoms: C_9  and  C_10
REMARK   10  A    between atoms: C_10  and  O_11
REMARK   11  A    between atoms: C_10  and  C_12
REMARK   12  A    between atoms: C_14  and  C_15
REMARK                            x       y       z     vdW  Elec       q    Type
REMARK                         _______ _______ _______ _____ _____    ______ ____
ROOT
ATOM      1  C   UNL     1       5.646   5.190  17.840  0.00  0.00    +0.000 C 
ENDROOT
BRANCH   1   2
ATOM      2  C   UNL     1       4.950   5.802  16.657  0.00  0.00    +0.000 C 
ATOM      3  O   UNL     1       5.682   6.824  15.965  0.00  0.00    +0.000 OA
ATOM      4  C   UNL     1       5.414   5.610  15.234  0.00  0.00    +0.000 C 
BRANCH   4   5
ATOM      5  C   UNL     1       6.623   4.839  14.861  0.00  0.00    +0.000 C 
ATOM      6  N   UNL     1       6.370   3.615  14.319  0.00  0.00    +0.000 N 
ATOM      7  O   UNL     1       7.744   5.271  15.073  0.00  0.00    +0.000 OA
ATOM      8  H   UNL     1       7.143   3.044  14.014  0.00  0.00    +0.000 HD
ATOM      9  H   UNL     1       5.426   3.359  14.058  0.00  0.00    +0.000 HD
ENDBRANCH   4   5
ENDBRANCH   1   2
BRANCH   1  10
ATOM     10  O   UNL     1       6.782   5.995  18.172  0.00  0.00    +0.000 OA
ATOM     11  H   UNL     1       7.454   5.413  18.564  0.00  0.00    +0.000 HD
ENDBRANCH   1  10
BRANCH   1  12
ATOM     12  C   UNL     1       4.733   5.156  19.072  0.00  0.00    +0.000 C 
BRANCH  12  13
ATOM     13  C   UNL     1       3.637   6.224  19.048  0.00  0.00    +0.000 C 
BRANCH  13  14
ATOM     14  C   UNL     1       2.238   5.644  19.293  0.00  0.00    +0.000 C 
BRANCH  14  15
ATOM     15  C   UNL     1       1.944   5.246  20.746  0.00  0.00    +0.000 C 
BRANCH  15  16
ATOM     16  C   UNL     1       1.601   3.764  20.887  0.00  0.00    +0.000 C 
BRANCH  16  17
ATOM     17  C   UNL     1       0.733   3.263  19.737  0.00  0.00    +0.000 C 
BRANCH  17  18
ATOM     18  C   UNL     1       1.352   2.005  19.124  0.00  0.00    +0.000 C 
BRANCH  18  20
ATOM     19  C   UNL     1       3.619   1.763  18.074  0.00  0.00    +0.000 C 
ATOM     20  C   UNL     1       2.222   2.340  17.918  0.00  0.00    +0.000 C 
ENDBRANCH  18  20
ENDBRANCH  17  18
ENDBRANCH  16  17
ENDBRANCH  15  16
ENDBRANCH  14  15
ENDBRANCH  13  14
ENDBRANCH  12  13
ENDBRANCH   1  12
TORSDOF 11
ENDMDL
MODEL 8
REMARK VINA RESULT:      -5.5      1.861      2.734
REMARK  Name = 
REMARK  12 active torsions:
REMARK  status: ('A' for Active; 'I' for Inactive)
REMARK    1  A    between atoms: C_1  and  C_2
REMARK    2  A    between atoms: C_2  and  C_3
REMARK    3  A    between atoms: C_3  and  C_4
REMARK    4  A    between atoms: C_4  and  C_5
REMARK    5  A    between atoms: C_5  and  C_6
REMARK    6  A    between atoms: C_6  and  C_7
REMARK    7  A    between atoms: C_7  and  C_8
REMARK    8  A    between atoms: C_8  and  C_9
REMARK    9  A    between atoms: C_9  and  C_10
REMARK   10  A    between atoms: C_10  and  O_11
REMARK   11  A    between atoms: C_10  and  C_12
REMARK   12  A    between atoms: C_14  and  C_15
REMARK                            x       y       z     vdW  Elec       q    Type
REMARK                         _______ _______ _______ _____ _____    ______ ____
ROOT
ATOM      1  C   UNL     1       5.996   5.077  17.943  0.00  0.00    +0.000 C 
ENDROOT
BRANCH   1   2
ATOM      2  C   UNL     1       5.194   5.830  16.919  0.00  0.00    +0.000 C 
ATOM      3  O   UNL     1       5.916   6.815  16.164  0.00  0.00    +0.000 OA
ATOM      4  C   UNL     1       5.406   5.683  15.431  0.00  0.00    +0.000 C 
BRANCH   4   5
ATOM      5  C   UNL     1       6.450   4.820  14.832  0.00  0.00    +0.000 C 
ATOM      6  N   UNL     1       7.694   5.373  14.801  0.00  0.00    +0.000 N 
ATOM      7  O   UNL     1       6.182   3.722  14.371  0.00  0.00    +0.000 OA
ATOM      8  H   UNL     1       8.463   4.834  14.434  0.00  0.00    +0.000 HD
ATOM      9  H   UNL     1       7.882   6.233  15.302  0.00  0.00    +0.000 HD
ENDBRANCH   4   5
ENDBRANCH   1   2
BRANCH   1  10
ATOM     10  O   UNL     1       7.274   5.707  18.078  0.00  0.00    +0.000 OA
ATOM     11  H   UNL     1       7.267   6.222  18.901  0.00  0.00    +0.000 HD
ENDBRANCH   1  10
BRANCH   1  12
ATOM     12  C   UNL     1       5.321   5.112  19.320  0.00  0.00    +0.000 C 
BRANCH  12  13
ATOM     13  C   UNL     1       3.878   5.620  19.278  0.00  0.00    +0.000 C 
BRANCH  13  14
ATOM     14  C   UNL     1       3.023   5.074  20.429  0.00  0.00    +0.000 C 
BRANCH  14  15
ATOM     15  C   UNL     1       1.512   5.053  20.162  0.00  0.00    +0.000 C 
BRANCH  15  16
ATOM     16  C   UNL     1       0.906   3.663  20.352  0.00  0.00    +0.000 C 
BRANCH  16  17
ATOM     17  C   UNL     1       0.936   2.842  19.067  0.00  0.00    +0.000 C 
BRANCH  17  18
ATOM     18  C   UNL     1       2.077   1.825  19.122  0.00  0.00    +0.000 C 
BRANCH  18  20
ATOM     19  C   UNL     1       2.628   3.172  17.077  0.00  0.00    +0.000 C 
ATOM     20  C   UNL     1       3.070   2.035  17.984  0.00  0.00    +0.000 C 
ENDBRANCH  18  20
ENDBRANCH  17  18
ENDBRANCH  16  17
ENDBRANCH  15  16
ENDBRANCH  14  15
ENDBRANCH  13  14
ENDBRANCH  12  13
ENDBRANCH   1  12
TORSDOF 11
ENDMDL
MODEL 9
REMARK VINA RESULT:      -5.5      1.824      2.643
REMARK  Name = 
REMARK  12 active torsions:
REMARK  status: ('A' for Active; 'I' for Inactive)
REMARK    1  A    between atoms: C_1  and  C_2
REMARK    2  A    between atoms: C_2  and  C_3
REMARK    3  A    between atoms: C_3  and  C_4
REMARK    4  A    between atoms: C_4  and  C_5
REMARK    5  A    between atoms: C_5  and  C_6
REMARK    6  A    between atoms: C_6  and  C_7
REMARK    7  A    between atoms: C_7  and  C_8
REMARK    8  A    between atoms: C_8  and  C_9
REMARK    9  A    between atoms: C_9  and  C_10
REMARK   10  A    between atoms: C_10  and  O_11
REMARK   11  A    between atoms: C_10  and  C_12
REMARK   12  A    between atoms: C_14  and  C_15
REMARK                            x       y       z     vdW  Elec       q    Type
REMARK                         _______ _______ _______ _____ _____    ______ ____
ROOT
ATOM      1  C   UNL     1       5.917   4.827  18.410  0.00  0.00    +0.000 C 
ENDROOT
BRANCH   1   2
ATOM      2  C   UNL     1       7.172   5.332  17.756  0.00  0.00    +0.000 C 
ATOM      3  O   UNL     1       7.978   4.339  17.105  0.00  0.00    +0.000 OA
ATOM      4  C   UNL     1       7.379   5.343  16.261  0.00  0.00    +0.000 C 
BRANCH   4   5
ATOM      5  C   UNL     1       6.390   4.818  15.291  0.00  0.00    +0.000 C 
ATOM      6  N   UNL     1       5.572   5.762  14.748  0.00  0.00    +0.000 N 
ATOM      7  O   UNL     1       6.307   3.625  15.049  0.00  0.00    +0.000 OA
ATOM      8  H   UNL     1       4.892   5.484  14.057  0.00  0.00    +0.000 HD
ATOM      9  H   UNL     1       5.762   6.745  14.893  0.00  0.00    +0.000 HD
ENDBRANCH   4   5
ENDBRANCH   1   2
BRANCH   1  10
ATOM     10  O   UNL     1       6.185   4.589  19.796  0.00  0.00    +0.000 OA
ATOM     11  H   UNL     1       7.139   4.706  19.938  0.00  0.00    +0.000 HD
ENDBRANCH   1  10
BRANCH   1  12
ATOM     12  C   UNL     1       4.788   5.863  18.334  0.00  0.00    +0.000 C 
BRANCH  12  13
ATOM     13  C   UNL     1       3.520   5.334  17.659  0.00  0.00    +0.000 C 
BRANCH  13  14
ATOM     14  C   UNL     1       2.236   5.822  18.342  0.00  0.00    +0.000 C 
BRANCH  14  15
ATOM     15  C   UNL     1       2.377   6.143  19.836  0.00  0.00    +0.000 C 
BRANCH  15  16
ATOM     16  C   UNL     1       2.195   4.908  20.717  0.00  0.00    +0.000 C 
BRANCH  16  17
ATOM     17  C   UNL     1       0.969   4.092  20.318  0.00  0.00    +0.000 C 
BRANCH  17  18
ATOM     18  C   UNL     1       1.340   2.613  20.202  0.00  0.00    +0.000 C 
BRANCH  18  20
ATOM     19  C   UNL     1       3.081   1.826  18.574  0.00  0.00    +0.000 C 
ATOM     20  C   UNL     1       1.625   2.219  18.756  0.00  0.00    +0.000 C 
ENDBRANCH  18  20
ENDBRANCH  17  18
ENDBRANCH  16  17
ENDBRANCH  15  16
ENDBRANCH  14  15
ENDBRANCH  13  14
ENDBRANCH  12  13
ENDBRANCH   1  12
TORSDOF 11
ENDMDL
