MODEL 1
REMARK VINA RESULT:      -7.4      0.000      0.000
REMARK  Name = 
REMARK  2 active torsions:
REMARK  status: ('A' for Active; 'I' for Inactive)
REMARK    1  A    between atoms: C_6  and  N_7
REMARK    2  A    between atoms: N_7  and  C_8
REMARK                            x       y       z     vdW  Elec       q    Type
REMARK                         _______ _______ _______ _____ _____    ______ ____
ROOT
ATOM      1  O   UNL     1       7.201   5.290  14.030  0.00  0.00    +0.000 OA
ATOM      2  C   UNL     1       6.756   5.136  15.164  0.00  0.00    +0.000 C 
ATOM      3  N   UNL     1       5.456   5.393  15.458  0.00  0.00    +0.000 N 
ATOM      4  C   UNL     1       5.037   5.695  16.723  0.00  0.00    +0.000 C 
ATOM      5  O   UNL     1       4.154   6.536  16.887  0.00  0.00    +0.000 OA
ATOM      6  C   UNL     1       5.745   4.965  17.865  0.00  0.00    +0.000 C 
ATOM      7  C   UNL     1       7.207   4.689  17.514  0.00  0.00    +0.000 C 
ATOM      8  O   UNL     1       8.026   4.307  18.350  0.00  0.00    +0.000 OA
ATOM      9  N   UNL     1       7.565   4.783  16.198  0.00  0.00    +0.000 N 
ATOM     10  H   UNL     1       4.950   5.859  14.717  0.00  0.00    +0.000 HD
ATOM     11  H   UNL     1       8.530   4.591  15.972  0.00  0.00    +0.000 HD
ENDROOT
BRANCH   6  12
ATOM     12  N   UNL     1       5.097   3.659  18.174  0.00  0.00    +0.000 N 
ATOM     13  H   UNL     1       5.698   3.107  18.793  0.00  0.00    +0.000 HD
BRANCH  12  14
ATOM     14  C   UNL     1       3.802   3.684  18.725  0.00  0.00    +0.000 A 
ATOM     15  C   UNL     1       3.451   4.441  19.847  0.00  0.00    +0.000 A 
ATOM     16  C   UNL     1       2.139   4.466  20.330  0.00  0.00    +0.000 A 
ATOM     17  C   UNL     1       1.140   3.753  19.678  0.00  0.00    +0.000 A 
ATOM     18  C   UNL     1       1.451   3.038  18.526  0.00  0.00    +0.000 A 
ATOM     19  C   UNL     1       2.765   3.021  18.046  0.00  0.00    +0.000 A 
ENDBRANCH  12  14
ENDBRANCH   6  12
TORSDOF 2
ENDMDL
MODEL 2
REMARK VINA RESULT:      -7.4      0.664      1.348
REMARK  Name = 
REMARK  2 active torsions:
REMARK  status: ('A' for Active; 'I' for Inactive)
REMARK    1  A    between atoms: C_6  and  N_7
REMARK    2  A    between atoms: N_7  and  C_8
REMARK                            x       y       z     vdW  Elec       q    Type
REMARK                         _______ _______ _______ _____ _____    ______ ____
ROOT
ATOM      1  O   UNL     1       7.371   5.161  14.591  0.00  0.00    +0.000 OA
ATOM      2  C   UNL     1       6.880   5.044  15.710  0.00  0.00    +0.000 C 
ATOM      3  N   UNL     1       5.536   5.076  15.903  0.00  0.00    +0.000 N 
ATOM      4  C   UNL     1       4.977   5.422  17.101  0.00  0.00    +0.000 C 
ATOM      5  O   UNL     1       3.943   6.091  17.119  0.00  0.00    +0.000 OA
ATOM      6  C   UNL     1       5.721   4.966  18.356  0.00  0.00    +0.000 C 
ATOM      7  C   UNL     1       7.231   4.941  18.117  0.00  0.00    +0.000 C 
ATOM      8  O   UNL     1       8.042   4.812  19.034  0.00  0.00    +0.000 OA
ATOM      9  N   UNL     1       7.661   4.964  16.819  0.00  0.00    +0.000 N 
ATOM     10  H   UNL     1       5.009   5.356  15.087  0.00  0.00    +0.000 HD
ATOM     11  H   UNL     1       8.659   4.938  16.668  0.00  0.00    +0.000 HD
ENDROOT
BRANCH   6  12
ATOM     12  N   UNL     1       5.305   3.599  18.781  0.00  0.00    +0.000 N 
ATOM     13  H   UNL     1       5.789   3.338  19.645  0.00  0.00    +0.000 HD
BRANCH  12  14
ATOM     14  C   UNL     1       3.929   3.358  18.956  0.00  0.00    +0.000 A 
ATOM     15  C   UNL     1       3.218   2.380  18.255  0.00  0.00    +0.000 A 
ATOM     16  C   UNL     1       1.860   2.150  18.497  0.00  0.00    +0.000 A 
ATOM     17  C   UNL     1       1.191   2.879  19.473  0.00  0.00    +0.000 A 
ATOM     18  C   UNL     1       1.889   3.817  20.225  0.00  0.00    +0.000 A 
ATOM     19  C   UNL     1       3.249   4.039  19.980  0.00  0.00    +0.000 A 
ENDBRANCH  12  14
ENDBRANCH   6  12
TORSDOF 2
ENDMDL
MODEL 3
REMARK VINA RESULT:      -7.3      1.767      2.401
REMARK  Name = 
REMARK  2 active torsions:
REMARK  status: ('A' for Active; 'I' for Inactive)
REMARK    1  A    between atoms: C_6  and  N_7
REMARK    2  A    between atoms: N_7  and  C_8
REMARK                            x       y       z     vdW  Elec       q    Type
REMARK                         _______ _______ _______ _____ _____    ______ ____
ROOT
ATOM      1  O   UNL     1       7.791   7.789  17.189  0.00  0.00    +0.000 OA
ATOM      2  C   UNL     1       7.170   6.735  17.088  0.00  0.00    +0.000 C 
ATOM      3  N   UNL     1       6.411   6.257  18.107  0.00  0.00    +0.000 N 
ATOM      4  C   UNL     1       6.105   4.931  18.233  0.00  0.00    +0.000 C 
ATOM      5  O   UNL     1       6.069   4.419  19.352  0.00  0.00    +0.000 OA
ATOM      6  C   UNL     1       5.861   4.164  16.933  0.00  0.00    +0.000 C 
ATOM      7  C   UNL     1       6.728   4.716  15.802  0.00  0.00    +0.000 C 
ATOM      8  O   UNL     1       6.861   4.131  14.726  0.00  0.00    +0.000 OA
ATOM      9  N   UNL     1       7.281   5.953  15.981  0.00  0.00    +0.000 N 
ATOM     10  H   UNL     1       6.532   6.753  18.979  0.00  0.00    +0.000 HD
ATOM     11  H   UNL     1       7.845   6.316  15.226  0.00  0.00    +0.000 HD
ENDROOT
BRANCH   6  12
ATOM     12  N   UNL     1       4.438   4.248  16.499  0.00  0.00    +0.000 N 
ATOM     13  H   UNL     1       4.326   3.813  15.578  0.00  0.00    +0.000 HD
BRANCH  12  14
ATOM     14  C   UNL     1       3.458   3.717  17.360  0.00  0.00    +0.000 A 
ATOM     15  C   UNL     1       2.308   4.412  17.748  0.00  0.00    +0.000 A 
ATOM     16  C   UNL     1       1.343   3.824  18.571  0.00  0.00    +0.000 A 
ATOM     17  C   UNL     1       1.495   2.511  18.999  0.00  0.00    +0.000 A 
ATOM     18  C   UNL     1       2.600   1.778  18.579  0.00  0.00    +0.000 A 
ATOM     19  C   UNL     1       3.561   2.372  17.752  0.00  0.00    +0.000 A 
ENDBRANCH  12  14
ENDBRANCH   6  12
TORSDOF 2
ENDMDL
MODEL 4
REMARK VINA RESULT:      -7.3      1.810      2.988
REMARK  Name = 
REMARK  2 active torsions:
REMARK  status: ('A' for Active; 'I' for Inactive)
REMARK    1  A    between atoms: C_6  and  N_7
REMARK    2  A    between atoms: N_7  and  C_8
REMARK                            x       y       z     vdW  Elec       q    Type
REMARK                         _______ _______ _______ _____ _____    ______ ____
ROOT
ATOM      1  O   UNL     1       8.265   7.097  18.547  0.00  0.00    +0.000 OA
ATOM      2  C   UNL     1       7.208   6.593  18.177  0.00  0.00    +0.000 C 
ATOM      3  N   UNL     1       6.523   5.725  18.964  0.00  0.00    +0.000 N 
ATOM      4  C   UNL     1       5.649   4.806  18.452  0.00  0.00    +0.000 C 
ATOM      5  O   UNL     1       5.584   3.683  18.953  0.00  0.00    +0.000 OA
ATOM      6  C   UNL     1       4.826   5.252  17.244  0.00  0.00    +0.000 C 
ATOM      7  C   UNL     1       5.618   6.225  16.371  0.00  0.00    +0.000 C 
ATOM      8  O   UNL     1       5.248   6.552  15.243  0.00  0.00    +0.000 OA
ATOM      9  N   UNL     1       6.719   6.814  16.928  0.00  0.00    +0.000 N 
ATOM     10  H   UNL     1       7.030   5.423  19.784  0.00  0.00    +0.000 HD
ATOM     11  H   UNL     1       7.233   7.462  16.350  0.00  0.00    +0.000 HD
ENDROOT
BRANCH   6  12
ATOM     12  N   UNL     1       3.563   5.931  17.653  0.00  0.00    +0.000 N 
ATOM     13  H   UNL     1       3.080   6.298  16.828  0.00  0.00    +0.000 HD
BRANCH  12  14
ATOM     14  C   UNL     1       2.638   5.191  18.414  0.00  0.00    +0.000 A 
ATOM     15  C   UNL     1       2.031   4.014  17.966  0.00  0.00    +0.000 A 
ATOM     16  C   UNL     1       1.151   3.293  18.778  0.00  0.00    +0.000 A 
ATOM     17  C   UNL     1       0.883   3.721  20.072  0.00  0.00    +0.000 A 
ATOM     18  C   UNL     1       1.518   4.857  20.562  0.00  0.00    +0.000 A 
ATOM     19  C   UNL     1       2.401   5.572  19.745  0.00  0.00    +0.000 A 
ENDBRANCH  12  14
ENDBRANCH   6  12
TORSDOF 2
ENDMDL
MODEL 5
REMARK VINA RESULT:      -7.3      1.817      2.189
REMARK  Name = 
REMARK  2 active torsions:
REMARK  status: ('A' for Active; 'I' for Inactive)
REMARK    1  A    between atoms: C_6  and  N_7
REMARK    2  A    between atoms: N_7  and  C_8
REMARK                            x       y       z     vdW  Elec       q    Type
REMARK                         _______ _______ _______ _____ _____    ______ ____
ROOT
ATOM      1  O   UNL     1       7.885   7.246  16.491  0.00  0.00    +0.000 OA
ATOM      2  C   UNL     1       7.224   6.597  17.297  0.00  0.00    +0.000 C 
ATOM      3  N   UNL     1       5.909   6.333  17.088  0.00  0.00    +0.000 N 
ATOM      4  C   UNL     1       5.046   6.055  18.110  0.00  0.00    +0.000 C 
ATOM      5  O   UNL     1       3.892   6.483  18.066  0.00  0.00    +0.000 OA
ATOM      6  C   UNL     1       5.611   5.241  19.274  0.00  0.00    +0.000 C 
ATOM      7  C   UNL     1       7.091   5.557  19.494  0.00  0.00    +0.000 C 
ATOM      8  O   UNL     1       7.702   5.188  20.497  0.00  0.00    +0.000 OA
ATOM      9  N   UNL     1       7.756   6.186  18.479  0.00  0.00    +0.000 N 
ATOM     10  H   UNL     1       5.505   6.840  16.312  0.00  0.00    +0.000 HD
ATOM     11  H   UNL     1       8.735   6.384  18.627  0.00  0.00    +0.000 HD
ENDROOT
BRANCH   6  12
ATOM     12  N   UNL     1       5.489   3.774  19.036  0.00  0.00    +0.000 N 
ATOM     13  H   UNL     1       6.012   3.259  19.750  0.00  0.00    +0.000 HD
BRANCH  12  14
ATOM     14  C   UNL     1       4.193   3.229  18.958  0.00  0.00    +0.000 A 
ATOM     15  C   UNL     1       3.661   2.659  17.798  0.00  0.00    +0.000 A 
ATOM     16  C   UNL     1       2.384   2.091  17.784  0.00  0.00    +0.000 A 
ATOM     17  C   UNL     1       1.622   2.055  18.945  0.00  0.00    +0.000 A 
ATOM     18  C   UNL     1       2.151   2.563  20.127  0.00  0.00    +0.000 A 
ATOM     19  C   UNL     1       3.432   3.126  20.134  0.00  0.00    +0.000 A 
ENDBRANCH  12  14
ENDBRANCH   6  12
TORSDOF 2
ENDMDL
MODEL 6
REMARK VINA RESULT:      -7.2      1.947      2.012
REMARK  Name = 
REMARK  2 active torsions:
REMARK  status: ('A' for Active; 'I' for Inactive)
REMARK    1  A    between atoms: C_6  and  N_7
REMARK    2  A    between atoms: N_7  and  C_8
REMARK                            x       y       z     vdW  Elec       q    Type
REMARK                         _______ _______ _______ _____ _____    ______ ____
ROOT
ATOM      1  O   UNL     1       7.964   7.544  16.714  0.00  0.00    +0.000 OA
ATOM      2  C   UNL     1       7.289   6.817  17.438  0.00  0.00    +0.000 C 
ATOM      3  N   UNL     1       5.993   6.536  17.152  0.00  0.00    +0.000 N 
ATOM      4  C   UNL     1       5.096   6.157  18.111  0.00  0.00    +0.000 C 
ATOM      5  O   UNL     1       3.933   6.557  18.050  0.00  0.00    +0.000 OA
ATOM      6  C   UNL     1       5.636   5.271  19.234  0.00  0.00    +0.000 C 
ATOM      7  C   UNL     1       7.095   5.608  19.542  0.00  0.00    +0.000 C 
ATOM      8  O   UNL     1       7.675   5.178  20.540  0.00  0.00    +0.000 OA
ATOM      9  N   UNL     1       7.783   6.330  18.608  0.00  0.00    +0.000 N 
ATOM     10  H   UNL     1       5.606   7.091  16.400  0.00  0.00    +0.000 HD
ATOM     11  H   UNL     1       8.749   6.542  18.813  0.00  0.00    +0.000 HD
ENDROOT
BRANCH   6  12
ATOM     12  N   UNL     1       5.568   3.825  18.880  0.00  0.00    +0.000 N 
ATOM     13  H   UNL     1       6.221   3.290  19.460  0.00  0.00    +0.000 HD
BRANCH  12  14
ATOM     14  C   UNL     1       4.310   3.195  18.938  0.00  0.00    +0.000 A 
ATOM     15  C   UNL     1       3.575   3.037  20.117  0.00  0.00    +0.000 A 
ATOM     16  C   UNL     1       2.310   2.442  20.114  0.00  0.00    +0.000 A 
ATOM     17  C   UNL     1       1.739   2.019  18.920  0.00  0.00    +0.000 A 
ATOM     18  C   UNL     1       2.424   2.216  17.726  0.00  0.00    +0.000 A 
ATOM     19  C   UNL     1       3.688   2.816  17.736  0.00  0.00    +0.000 A 
ENDBRANCH  12  14
ENDBRANCH   6  12
TORSDOF 2
ENDMDL
MODEL 7
REMARK VINA RESULT:      -7.1      1.048      1.347
REMARK  Name = 
REMARK  2 active torsions:
REMARK  status: ('A' for Active; 'I' for Inactive)
REMARK    1  A    between atoms: C_6  and  N_7
REMARK    2  A    between atoms: N_7  and  C_8
REMARK                            x       y       z     vdW  Elec       q    Type
REMARK                         _______ _______ _______ _____ _____    ______ ____
ROOT
ATOM      1  O   UNL     1       7.501   5.264  14.324  0.00  0.00    +0.000 OA
ATOM      2  C   UNL     1       6.955   5.151  15.418  0.00  0.00    +0.000 C 
ATOM      3  N   UNL     1       5.623   5.365  15.572  0.00  0.00    +0.000 N 
ATOM      4  C   UNL     1       5.072   5.715  16.772  0.00  0.00    +0.000 C 
ATOM      5  O   UNL     1       4.144   6.523  16.803  0.00  0.00    +0.000 OA
ATOM      6  C   UNL     1       5.695   5.082  18.017  0.00  0.00    +0.000 C 
ATOM      7  C   UNL     1       7.194   4.855  17.822  0.00  0.00    +0.000 C 
ATOM      8  O   UNL     1       7.943   4.557  18.753  0.00  0.00    +0.000 OA
ATOM      9  N   UNL     1       7.673   4.893  16.542  0.00  0.00    +0.000 N 
ATOM     10  H   UNL     1       5.173   5.765  14.761  0.00  0.00    +0.000 HD
ATOM     11  H   UNL     1       8.663   4.734  16.420  0.00  0.00    +0.000 HD
ENDROOT
BRANCH   6  12
ATOM     12  N   UNL     1       5.073   3.767  18.340  0.00  0.00    +0.000 N 
ATOM     13  H   UNL     1       5.797   3.092  18.605  0.00  0.00    +0.000 HD
BRANCH  12  14
ATOM     14  C   UNL     1       4.066   3.742  19.324  0.00  0.00    +0.000 A 
ATOM     15  C   UNL     1       3.746   2.608  20.077  0.00  0.00    +0.000 A 
ATOM     16  C   UNL     1       2.766   2.647  21.073  0.00  0.00    +0.000 A 
ATOM     17  C   UNL     1       2.106   3.835  21.359  0.00  0.00    +0.000 A 
ATOM     18  C   UNL     1       2.447   4.991  20.664  0.00  0.00    +0.000 A 
ATOM     19  C   UNL     1       3.431   4.946  19.671  0.00  0.00    +0.000 A 
ENDBRANCH  12  14
ENDBRANCH   6  12
TORSDOF 2
ENDMDL
MODEL 8
REMARK VINA RESULT:      -7.0      1.091      1.632
REMARK  Name = 
REMARK  2 active torsions:
REMARK  status: ('A' for Active; 'I' for Inactive)
REMARK    1  A    between atoms: C_6  and  N_7
REMARK    2  A    between atoms: N_7  and  C_8
REMARK                            x       y       z     vdW  Elec       q    Type
REMARK                         _______ _______ _______ _____ _____    ______ ____
ROOT
ATOM      1  O   UNL     1       7.797   5.176  14.939  0.00  0.00    +0.000 OA
ATOM      2  C   UNL     1       6.846   5.171  15.716  0.00  0.00    +0.000 C 
ATOM      3  N   UNL     1       5.724   5.894  15.470  0.00  0.00    +0.000 N 
ATOM      4  C   UNL     1       4.879   6.297  16.465  0.00  0.00    +0.000 C 
ATOM      5  O   UNL     1       4.347   7.405  16.401  0.00  0.00    +0.000 OA
ATOM      6  C   UNL     1       4.685   5.323  17.628  0.00  0.00    +0.000 C 
ATOM      7  C   UNL     1       5.962   4.524  17.890  0.00  0.00    +0.000 C 
ATOM      8  O   UNL     1       6.115   3.838  18.900  0.00  0.00    +0.000 OA
ATOM      9  N   UNL     1       6.908   4.511  16.903  0.00  0.00    +0.000 N 
ATOM     10  H   UNL     1       5.808   6.536  14.694  0.00  0.00    +0.000 HD
ATOM     11  H   UNL     1       7.745   3.975  17.079  0.00  0.00    +0.000 HD
ENDROOT
BRANCH   6  12
ATOM     12  N   UNL     1       3.587   4.351  17.360  0.00  0.00    +0.000 N 
ATOM     13  H   UNL     1       3.980   3.442  17.097  0.00  0.00    +0.000 HD
BRANCH  12  14
ATOM     14  C   UNL     1       2.634   4.143  18.376  0.00  0.00    +0.000 A 
ATOM     15  C   UNL     1       1.757   3.055  18.405  0.00  0.00    +0.000 A 
ATOM     16  C   UNL     1       0.857   2.871  19.459  0.00  0.00    +0.000 A 
ATOM     17  C   UNL     1       0.839   3.760  20.527  0.00  0.00    +0.000 A 
ATOM     18  C   UNL     1       1.742   4.818  20.550  0.00  0.00    +0.000 A 
ATOM     19  C   UNL     1       2.642   4.994  19.494  0.00  0.00    +0.000 A 
ENDBRANCH  12  14
ENDBRANCH   6  12
TORSDOF 2
ENDMDL
MODEL 9
REMARK VINA RESULT:      -7.0      1.756      2.277
REMARK  Name = 
REMARK  2 active torsions:
REMARK  status: ('A' for Active; 'I' for Inactive)
REMARK    1  A    between atoms: C_6  and  N_7
REMARK    2  A    between atoms: N_7  and  C_8
REMARK                            x       y       z     vdW  Elec       q    Type
REMARK                         _______ _______ _______ _____ _____    ______ ____
ROOT
ATOM      1  O   UNL     1       7.898   7.373  16.757  0.00  0.00    +0.000 OA
ATOM      2  C   UNL     1       6.997   6.564  16.961  0.00  0.00    +0.000 C 
ATOM      3  N   UNL     1       6.513   6.341  18.210  0.00  0.00    +0.000 N 
ATOM      4  C   UNL     1       5.890   5.175  18.556  0.00  0.00    +0.000 C 
ATOM      5  O   UNL     1       6.076   4.694  19.674  0.00  0.00    +0.000 OA
ATOM      6  C   UNL     1       5.017   4.526  17.482  0.00  0.00    +0.000 C 
ATOM      7  C   UNL     1       5.583   4.786  16.086  0.00  0.00    +0.000 C 
ATOM      8  O   UNL     1       5.176   4.193  15.087  0.00  0.00    +0.000 OA
ATOM      9  N   UNL     1       6.502   5.790  15.959  0.00  0.00    +0.000 N 
ATOM     10  H   UNL     1       7.055   6.772  18.946  0.00  0.00    +0.000 HD
ATOM     11  H   UNL     1       6.866   5.964  15.033  0.00  0.00    +0.000 HD
ENDROOT
BRANCH   6  12
ATOM     12  N   UNL     1       3.621   5.048  17.512  0.00  0.00    +0.000 N 
ATOM     13  H   UNL     1       3.220   5.030  16.570  0.00  0.00    +0.000 HD
BRANCH  12  14
ATOM     14  C   UNL     1       2.710   4.432  18.391  0.00  0.00    +0.000 A 
ATOM     15  C   UNL     1       2.363   4.956  19.640  0.00  0.00    +0.000 A 
ATOM     16  C   UNL     1       1.419   4.328  20.458  0.00  0.00    +0.000 A 
ATOM     17  C   UNL     1       0.778   3.174  20.027  0.00  0.00    +0.000 A 
ATOM     18  C   UNL     1       1.062   2.664  18.764  0.00  0.00    +0.000 A 
ATOM     19  C   UNL     1       2.005   3.301  17.949  0.00  0.00    +0.000 A 
ENDBRANCH  12  14
ENDBRANCH   6  12
TORSDOF 2
ENDMDL
