MODEL 1
REMARK VINA RESULT:      -7.9      0.000      0.000
REMARK  Name = 
REMARK  9 active torsions:
REMARK  status: ('A' for Active; 'I' for Inactive)
REMARK    1  A    between atoms: C_1  and  C_2
REMARK    2  A    between atoms: N_4  and  C_5
REMARK    3  A    between atoms: N_13  and  C_14
REMARK    4  A    between atoms: C_14  and  C_15
REMARK    5  A    between atoms: N_17  and  C_18
REMARK    6  A    between atoms: C_18  and  C_19
REMARK    7  A    between atoms: C_19  and  C_20
REMARK    8  A    between atoms: C_20  and  O_21
REMARK    9  A    between atoms: O_21  and  C_22
REMARK                            x       y       z     vdW  Elec       q    Type
REMARK                         _______ _______ _______ _____ _____    ______ ____
ROOT
ATOM      1  C   UNL     1       7.733   5.790  18.082  0.00  0.00    +0.000 C 
ENDROOT
BRANCH   1   8
ATOM      2  C   UNL     1       7.117   4.608  15.305  0.00  0.00    +0.000 C 
ATOM      3  C   UNL     1       6.243   4.462  16.507  0.00  0.00    +0.000 A 
ATOM      4  N   UNL     1       5.082   3.870  16.483  0.00  0.00    +0.000 NA
ATOM      5  N   UNL     1       4.602   4.022  17.768  0.00  0.00    +0.000 N 
ATOM      6  C   UNL     1       5.533   4.734  18.535  0.00  0.00    +0.000 A 
ATOM      7  O   UNL     1       5.494   5.084  19.705  0.00  0.00    +0.000 OA
ATOM      8  N   UNL     1       6.595   4.972  17.701  0.00  0.00    +0.000 N 
BRANCH   5   9
ATOM      9  C   UNL     1       3.330   3.538  18.150  0.00  0.00    +0.000 A 
ATOM     10  C   UNL     1       2.163   4.235  17.806  0.00  0.00    +0.000 A 
ATOM     11  C   UNL     1       0.901   3.773  18.187  0.00  0.00    +0.000 A 
ATOM     12  C   UNL     1       0.784   2.599  18.922  0.00  0.00    +0.000 A 
ATOM     13  C   UNL     1       1.930   1.887  19.269  0.00  0.00    +0.000 A 
ATOM     14  C   UNL     1       3.194   2.351  18.884  0.00  0.00    +0.000 A 
ENDBRANCH   5   9
ENDBRANCH   1   8
BRANCH   1  15
ATOM     15  C   UNL     1       7.574   7.272  17.723  0.00  0.00    +0.000 C 
ATOM     16  O   UNL     1       6.653   7.657  17.003  0.00  0.00    +0.000 OA
ATOM     17  N   UNL     1       8.445   8.146  18.342  0.00  0.00    +0.000 N 
ATOM     18  H   UNL     1       9.179   7.766  18.945  0.00  0.00    +0.000 HD
BRANCH  17  19
ATOM     19  C   UNL     1       8.356   9.583  18.158  0.00  0.00    +0.000 C 
BRANCH  19  20
ATOM     20  C   UNL     1       9.318  10.362  19.055  0.00  0.00    +0.000 C 
BRANCH  20  21
ATOM     21  C   UNL     1       9.196  11.870  18.854  0.00  0.00    +0.000 C 
BRANCH  21  22
ATOM     22  O   UNL     1      10.011  12.255  17.744  0.00  0.00    +0.000 OA
BRANCH  22  23
ATOM     23  C   UNL     1      10.204  13.597  17.573  0.00  0.00    +0.000 A 
ATOM     24  C   UNL     1      11.297  14.200  16.954  0.00  0.00    +0.000 A 
ATOM     25  C   UNL     1      11.352  15.589  16.848  0.00  0.00    +0.000 A 
ATOM     26  C   UNL     1      10.307  16.335  17.369  0.00  0.00    +0.000 A 
ATOM     27  N   UNL     1       9.235  15.792  17.980  0.00  0.00    +0.000 NA
ATOM     28  C   UNL     1       9.213  14.437  18.068  0.00  0.00    +0.000 A 
ENDBRANCH  22  23
ENDBRANCH  21  22
ENDBRANCH  20  21
ENDBRANCH  19  20
ENDBRANCH  17  19
ENDBRANCH   1  15
TORSDOF 8
ENDMDL
MODEL 2
REMARK VINA RESULT:      -7.9      1.193      1.513
REMARK  Name = 
REMARK  9 active torsions:
REMARK  status: ('A' for Active; 'I' for Inactive)
REMARK    1  A    between atoms: C_1  and  C_2
REMARK    2  A    between atoms: N_4  and  C_5
REMARK    3  A    between atoms: N_13  and  C_14
REMARK    4  A    between atoms: C_14  and  C_15
REMARK    5  A    between atoms: N_17  and  C_18
REMARK    6  A    between atoms: C_18  and  C_19
REMARK    7  A    between atoms: C_19  and  C_20
REMARK    8  A    between atoms: C_20  and  O_21
REMARK    9  A    between atoms: O_21  and  C_22
REMARK                            x       y       z     vdW  Elec       q    Type
REMARK                         _______ _______ _______ _____ _____    ______ ____
ROOT
ATOM      1  C   UNL     1       7.528   5.532  17.779  0.00  0.00    +0.000 C 
ENDROOT
BRANCH   1   8
ATOM      2  C   UNL     1       6.419   4.128  15.272  0.00  0.00    +0.000 C 
ATOM      3  C   UNL     1       5.717   4.202  16.588  0.00  0.00    +0.000 A 
ATOM      4  N   UNL     1       4.518   3.734  16.790  0.00  0.00    +0.000 NA
ATOM      5  N   UNL     1       4.243   4.071  18.100  0.00  0.00    +0.000 N 
ATOM      6  C   UNL     1       5.333   4.761  18.646  0.00  0.00    +0.000 A 
ATOM      7  O   UNL     1       5.494   5.237  19.759  0.00  0.00    +0.000 OA
ATOM      8  N   UNL     1       6.281   4.799  17.655  0.00  0.00    +0.000 N 
BRANCH   5   9
ATOM      9  C   UNL     1       3.002   3.764  18.703  0.00  0.00    +0.000 A 
ATOM     10  C   UNL     1       2.503   4.543  19.757  0.00  0.00    +0.000 A 
ATOM     11  C   UNL     1       1.283   4.243  20.368  0.00  0.00    +0.000 A 
ATOM     12  C   UNL     1       0.538   3.153  19.934  0.00  0.00    +0.000 A 
ATOM     13  C   UNL     1       1.013   2.369  18.885  0.00  0.00    +0.000 A 
ATOM     14  C   UNL     1       2.234   2.673  18.271  0.00  0.00    +0.000 A 
ENDBRANCH   5   9
ENDBRANCH   1   8
BRANCH   1  15
ATOM     15  C   UNL     1       7.408   7.018  17.426  0.00  0.00    +0.000 C 
ATOM     16  O   UNL     1       6.581   7.412  16.604  0.00  0.00    +0.000 OA
ATOM     17  N   UNL     1       8.191   7.885  18.162  0.00  0.00    +0.000 N 
ATOM     18  H   UNL     1       8.846   7.499  18.846  0.00  0.00    +0.000 HD
BRANCH  17  19
ATOM     19  C   UNL     1       8.117   9.325  17.991  0.00  0.00    +0.000 C 
BRANCH  19  20
ATOM     20  C   UNL     1       9.087  10.086  18.894  0.00  0.00    +0.000 C 
BRANCH  20  21
ATOM     21  C   UNL     1       9.870  11.150  18.130  0.00  0.00    +0.000 C 
BRANCH  21  22
ATOM     22  O   UNL     1       8.948  12.109  17.603  0.00  0.00    +0.000 OA
BRANCH  22  23
ATOM     23  C   UNL     1       8.954  13.341  18.196  0.00  0.00    +0.000 A 
ATOM     24  C   UNL     1       7.869  14.207  18.304  0.00  0.00    +0.000 A 
ATOM     25  C   UNL     1       8.026  15.435  18.946  0.00  0.00    +0.000 A 
ATOM     26  C   UNL     1       9.271  15.759  19.460  0.00  0.00    +0.000 A 
ATOM     27  N   UNL     1      10.348  14.952  19.371  0.00  0.00    +0.000 NA
ATOM     28  C   UNL     1      10.161  13.765  18.740  0.00  0.00    +0.000 A 
ENDBRANCH  22  23
ENDBRANCH  21  22
ENDBRANCH  20  21
ENDBRANCH  19  20
ENDBRANCH  17  19
ENDBRANCH   1  15
TORSDOF 8
ENDMDL
MODEL 3
REMARK VINA RESULT:      -7.8      1.050      1.501
REMARK  Name = 
REMARK  9 active torsions:
REMARK  status: ('A' for Active; 'I' for Inactive)
REMARK    1  A    between atoms: C_1  and  C_2
REMARK    2  A    between atoms: N_4  and  C_5
REMARK    3  A    between atoms: N_13  and  C_14
REMARK    4  A    between atoms: C_14  and  C_15
REMARK    5  A    between atoms: N_17  and  C_18
REMARK    6  A    between atoms: C_18  and  C_19
REMARK    7  A    between atoms: C_19  and  C_20
REMARK    8  A    between atoms: C_20  and  O_21
REMARK    9  A    between atoms: O_21  and  C_22
REMARK                            x       y       z     vdW  Elec       q    Type
REMARK                         _______ _______ _______ _____ _____    ______ ____
ROOT
ATOM      1  C   UNL     1       7.682   5.832  17.990  0.00  0.00    +0.000 C 
ENDROOT
BRANCH   1   8
ATOM      2  C   UNL     1       7.063   4.542  15.263  0.00  0.00    +0.000 C 
ATOM      3  C   UNL     1       6.204   4.419  16.479  0.00  0.00    +0.000 A 
ATOM      4  N   UNL     1       5.056   3.803  16.488  0.00  0.00    +0.000 NA
ATOM      5  N   UNL     1       4.586   3.989  17.773  0.00  0.00    +0.000 N 
ATOM      6  C   UNL     1       5.511   4.746  18.505  0.00  0.00    +0.000 A 
ATOM      7  O   UNL     1       5.477   5.135  19.663  0.00  0.00    +0.000 OA
ATOM      8  N   UNL     1       6.558   4.978  17.651  0.00  0.00    +0.000 N 
BRANCH   5   9
ATOM      9  C   UNL     1       3.329   3.492  18.186  0.00  0.00    +0.000 A 
ATOM     10  C   UNL     1       3.237   2.336  18.974  0.00  0.00    +0.000 A 
ATOM     11  C   UNL     1       2.000   1.829  19.379  0.00  0.00    +0.000 A 
ATOM     12  C   UNL     1       0.829   2.473  19.001  0.00  0.00    +0.000 A 
ATOM     13  C   UNL     1       0.897   3.626  18.222  0.00  0.00    +0.000 A 
ATOM     14  C   UNL     1       2.138   4.135  17.820  0.00  0.00    +0.000 A 
ENDBRANCH   5   9
ENDBRANCH   1   8
BRANCH   1  15
ATOM     15  C   UNL     1       7.478   7.301  17.605  0.00  0.00    +0.000 C 
ATOM     16  O   UNL     1       6.542   7.646  16.885  0.00  0.00    +0.000 OA
ATOM     17  N   UNL     1       8.328   8.212  18.201  0.00  0.00    +0.000 N 
ATOM     18  H   UNL     1       9.077   7.865  18.806  0.00  0.00    +0.000 HD
BRANCH  17  19
ATOM     19  C   UNL     1       8.196   9.642  17.991  0.00  0.00    +0.000 C 
BRANCH  19  20
ATOM     20  C   UNL     1       9.170  10.464  18.836  0.00  0.00    +0.000 C 
BRANCH  20  21
ATOM     21  C   UNL     1      10.170  11.230  17.975  0.00  0.00    +0.000 C 
BRANCH  21  22
ATOM     22  O   UNL     1      11.120  11.870  18.832  0.00  0.00    +0.000 OA
BRANCH  22  23
ATOM     23  C   UNL     1      10.934  13.207  19.048  0.00  0.00    +0.000 A 
ATOM     24  C   UNL     1      11.149  13.885  20.246  0.00  0.00    +0.000 A 
ATOM     25  C   UNL     1      10.920  15.259  20.312  0.00  0.00    +0.000 A 
ATOM     26  C   UNL     1      10.480  15.914  19.174  0.00  0.00    +0.000 A 
ATOM     27  N   UNL     1      10.255  15.294  17.997  0.00  0.00    +0.000 NA
ATOM     28  C   UNL     1      10.486  13.957  17.966  0.00  0.00    +0.000 A 
ENDBRANCH  22  23
ENDBRANCH  21  22
ENDBRANCH  20  21
ENDBRANCH  19  20
ENDBRANCH  17  19
ENDBRANCH   1  15
TORSDOF 8
ENDMDL
MODEL 4
REMARK VINA RESULT:      -7.8      1.603      1.982
REMARK  Name = 
REMARK  9 active torsions:
REMARK  status: ('A' for Active; 'I' for Inactive)
REMARK    1  A    between atoms: C_1  and  C_2
REMARK    2  A    between atoms: N_4  and  C_5
REMARK    3  A    between atoms: N_13  and  C_14
REMARK    4  A    between atoms: C_14  and  C_15
REMARK    5  A    between atoms: N_17  and  C_18
REMARK    6  A    between atoms: C_18  and  C_19
REMARK    7  A    between atoms: C_19  and  C_20
REMARK    8  A    between atoms: C_20  and  O_21
REMARK    9  A    between atoms: O_21  and  C_22
REMARK                            x       y       z     vdW  Elec       q    Type
REMARK                         _______ _______ _______ _____ _____    ______ ____
ROOT
ATOM      1  C   UNL     1       5.428   6.651  16.110  0.00  0.00    +0.000 C 
ENDROOT
BRANCH   1   8
ATOM      2  C   UNL     1       5.676   3.707  15.240  0.00  0.00    +0.000 C 
ATOM      3  C   UNL     1       4.899   4.184  16.423  0.00  0.00    +0.000 A 
ATOM      4  N   UNL     1       4.181   3.398  17.176  0.00  0.00    +0.000 NA
ATOM      5  N   UNL     1       3.596   4.252  18.089  0.00  0.00    +0.000 N 
ATOM      6  C   UNL     1       4.001   5.567  17.827  0.00  0.00    +0.000 A 
ATOM      7  O   UNL     1       3.710   6.613  18.389  0.00  0.00    +0.000 OA
ATOM      8  N   UNL     1       4.868   5.484  16.768  0.00  0.00    +0.000 N 
BRANCH   5   9
ATOM      9  C   UNL     1       2.700   3.784  19.077  0.00  0.00    +0.000 A 
ATOM     10  C   UNL     1       2.968   3.978  20.440  0.00  0.00    +0.000 A 
ATOM     11  C   UNL     1       2.095   3.512  21.426  0.00  0.00    +0.000 A 
ATOM     12  C   UNL     1       0.934   2.840  21.063  0.00  0.00    +0.000 A 
ATOM     13  C   UNL     1       0.645   2.641  19.715  0.00  0.00    +0.000 A 
ATOM     14  C   UNL     1       1.520   3.112  18.728  0.00  0.00    +0.000 A 
ENDBRANCH   5   9
ENDBRANCH   1   8
BRANCH   1  15
ATOM     15  C   UNL     1       6.860   6.977  16.547  0.00  0.00    +0.000 C 
ATOM     16  O   UNL     1       7.825   6.399  16.048  0.00  0.00    +0.000 OA
ATOM     17  N   UNL     1       7.003   8.024  17.436  0.00  0.00    +0.000 N 
ATOM     18  H   UNL     1       6.162   8.479  17.802  0.00  0.00    +0.000 HD
BRANCH  17  19
ATOM     19  C   UNL     1       8.305   8.494  17.871  0.00  0.00    +0.000 C 
BRANCH  19  20
ATOM     20  C   UNL     1       8.326   9.988  18.194  0.00  0.00    +0.000 C 
BRANCH  20  21
ATOM     21  C   UNL     1       9.319  10.321  19.304  0.00  0.00    +0.000 C 
BRANCH  21  22
ATOM     22  O   UNL     1       9.298  11.734  19.531  0.00  0.00    +0.000 OA
BRANCH  22  23
ATOM     23  C   UNL     1      10.050  12.494  18.679  0.00  0.00    +0.000 A 
ATOM     24  C   UNL     1      11.232  12.104  18.053  0.00  0.00    +0.000 A 
ATOM     25  C   UNL     1      11.888  12.991  17.201  0.00  0.00    +0.000 A 
ATOM     26  C   UNL     1      11.339  14.247  17.002  0.00  0.00    +0.000 A 
ATOM     27  N   UNL     1      10.201  14.666  17.593  0.00  0.00    +0.000 NA
ATOM     28  C   UNL     1       9.588  13.779  18.417  0.00  0.00    +0.000 A 
ENDBRANCH  22  23
ENDBRANCH  21  22
ENDBRANCH  20  21
ENDBRANCH  19  20
ENDBRANCH  17  19
ENDBRANCH   1  15
TORSDOF 8
ENDMDL
MODEL 5
REMARK VINA RESULT:      -7.7      1.716      2.021
REMARK  Name = 
REMARK  9 active torsions:
REMARK  status: ('A' for Active; 'I' for Inactive)
REMARK    1  A    between atoms: C_1  and  C_2
REMARK    2  A    between atoms: N_4  and  C_5
REMARK    3  A    between atoms: N_13  and  C_14
REMARK    4  A    between atoms: C_14  and  C_15
REMARK    5  A    between atoms: N_17  and  C_18
REMARK    6  A    between atoms: C_18  and  C_19
REMARK    7  A    between atoms: C_19  and  C_20
REMARK    8  A    between atoms: C_20  and  O_21
REMARK    9  A    between atoms: O_21  and  C_22
REMARK                            x       y       z     vdW  Elec       q    Type
REMARK                         _______ _______ _______ _____ _____    ______ ____
ROOT
ATOM      1  C   UNL     1       5.356   6.441  16.127  0.00  0.00    +0.000 C 
ENDROOT
BRANCH   1   8
ATOM      2  C   UNL     1       5.623   3.475  15.341  0.00  0.00    +0.000 C 
ATOM      3  C   UNL     1       4.907   3.975  16.553  0.00  0.00    +0.000 A 
ATOM      4  N   UNL     1       4.255   3.200  17.374  0.00  0.00    +0.000 NA
ATOM      5  N   UNL     1       3.705   4.072  18.292  0.00  0.00    +0.000 N 
ATOM      6  C   UNL     1       4.061   5.386  17.963  0.00  0.00    +0.000 A 
ATOM      7  O   UNL     1       3.780   6.444  18.506  0.00  0.00    +0.000 OA
ATOM      8  N   UNL     1       4.865   5.286  16.856  0.00  0.00    +0.000 N 
BRANCH   5   9
ATOM      9  C   UNL     1       2.882   3.619  19.348  0.00  0.00    +0.000 A 
ATOM     10  C   UNL     1       1.501   3.861  19.336  0.00  0.00    +0.000 A 
ATOM     11  C   UNL     1       0.678   3.428  20.379  0.00  0.00    +0.000 A 
ATOM     12  C   UNL     1       1.226   2.741  21.456  0.00  0.00    +0.000 A 
ATOM     13  C   UNL     1       2.594   2.485  21.485  0.00  0.00    +0.000 A 
ATOM     14  C   UNL     1       3.417   2.917  20.438  0.00  0.00    +0.000 A 
ENDBRANCH   5   9
ENDBRANCH   1   8
BRANCH   1  15
ATOM     15  C   UNL     1       6.785   6.847  16.504  0.00  0.00    +0.000 C 
ATOM     16  O   UNL     1       7.759   6.310  15.976  0.00  0.00    +0.000 OA
ATOM     17  N   UNL     1       6.907   7.914  17.371  0.00  0.00    +0.000 N 
ATOM     18  H   UNL     1       6.059   8.331  17.763  0.00  0.00    +0.000 HD
BRANCH  17  19
ATOM     19  C   UNL     1       8.199   8.456  17.750  0.00  0.00    +0.000 C 
BRANCH  19  20
ATOM     20  C   UNL     1       8.151   9.950  18.068  0.00  0.00    +0.000 C 
BRANCH  20  21
ATOM     21  C   UNL     1       9.272  10.371  19.015  0.00  0.00    +0.000 C 
BRANCH  21  22
ATOM     22  O   UNL     1      10.287  11.039  18.260  0.00  0.00    +0.000 OA
BRANCH  22  23
ATOM     23  C   UNL     1      10.560  12.328  18.623  0.00  0.00    +0.000 A 
ATOM     24  C   UNL     1      11.097  12.746  19.838  0.00  0.00    +0.000 A 
ATOM     25  C   UNL     1      11.327  14.102  20.063  0.00  0.00    +0.000 A 
ATOM     26  C   UNL     1      11.009  15.003  19.061  0.00  0.00    +0.000 A 
ATOM     27  N   UNL     1      10.481  14.642  17.873  0.00  0.00    +0.000 NA
ATOM     28  C   UNL     1      10.269  13.314  17.686  0.00  0.00    +0.000 A 
ENDBRANCH  22  23
ENDBRANCH  21  22
ENDBRANCH  20  21
ENDBRANCH  19  20
ENDBRANCH  17  19
ENDBRANCH   1  15
TORSDOF 8
ENDMDL
MODEL 6
REMARK VINA RESULT:      -7.7      1.428      1.540
REMARK  Name = 
REMARK  9 active torsions:
REMARK  status: ('A' for Active; 'I' for Inactive)
REMARK    1  A    between atoms: C_1  and  C_2
REMARK    2  A    between atoms: N_4  and  C_5
REMARK    3  A    between atoms: N_13  and  C_14
REMARK    4  A    between atoms: C_14  and  C_15
REMARK    5  A    between atoms: N_17  and  C_18
REMARK    6  A    between atoms: C_18  and  C_19
REMARK    7  A    between atoms: C_19  and  C_20
REMARK    8  A    between atoms: C_20  and  O_21
REMARK    9  A    between atoms: O_21  and  C_22
REMARK                            x       y       z     vdW  Elec       q    Type
REMARK                         _______ _______ _______ _____ _____    ______ ____
ROOT
ATOM      1  C   UNL     1       6.086   6.671  16.431  0.00  0.00    +0.000 C 
ENDROOT
BRANCH   1   8
ATOM      2  C   UNL     1       6.025   3.885  15.120  0.00  0.00    +0.000 C 
ATOM      3  C   UNL     1       5.174   4.303  16.274  0.00  0.00    +0.000 A 
ATOM      4  N   UNL     1       4.258   3.542  16.804  0.00  0.00    +0.000 NA
ATOM      5  N   UNL     1       3.684   4.337  17.776  0.00  0.00    +0.000 N 
ATOM      6  C   UNL     1       4.304   5.593  17.780  0.00  0.00    +0.000 A 
ATOM      7  O   UNL     1       4.093   6.579  18.471  0.00  0.00    +0.000 OA
ATOM      8  N   UNL     1       5.283   5.527  16.823  0.00  0.00    +0.000 N 
BRANCH   5   9
ATOM      9  C   UNL     1       2.607   3.881  18.570  0.00  0.00    +0.000 A 
ATOM     10  C   UNL     1       2.342   4.458  19.820  0.00  0.00    +0.000 A 
ATOM     11  C   UNL     1       1.287   4.010  20.618  0.00  0.00    +0.000 A 
ATOM     12  C   UNL     1       0.476   2.971  20.177  0.00  0.00    +0.000 A 
ATOM     13  C   UNL     1       0.718   2.386  18.936  0.00  0.00    +0.000 A 
ATOM     14  C   UNL     1       1.774   2.840  18.136  0.00  0.00    +0.000 A 
ENDBRANCH   5   9
ENDBRANCH   1   8
BRANCH   1  15
ATOM     15  C   UNL     1       7.162   7.049  17.455  0.00  0.00    +0.000 C 
ATOM     16  O   UNL     1       7.735   6.189  18.123  0.00  0.00    +0.000 OA
ATOM     17  N   UNL     1       7.523   8.381  17.496  0.00  0.00    +0.000 N 
ATOM     18  H   UNL     1       7.023   9.047  16.902  0.00  0.00    +0.000 HD
BRANCH  17  19
ATOM     19  C   UNL     1       8.585   8.865  18.359  0.00  0.00    +0.000 C 
BRANCH  19  20
ATOM     20  C   UNL     1       8.860  10.360  18.190  0.00  0.00    +0.000 C 
BRANCH  20  21
ATOM     21  C   UNL     1       9.722  10.916  19.320  0.00  0.00    +0.000 C 
BRANCH  21  22
ATOM     22  O   UNL     1      10.952  11.394  18.768  0.00  0.00    +0.000 OA
BRANCH  22  23
ATOM     23  C   UNL     1      10.954  12.688  18.326  0.00  0.00    +0.000 A 
ATOM     24  C   UNL     1      11.405  13.134  17.087  0.00  0.00    +0.000 A 
ATOM     25  C   UNL     1      11.338  14.491  16.774  0.00  0.00    +0.000 A 
ATOM     26  C   UNL     1      10.820  15.363  17.717  0.00  0.00    +0.000 A 
ATOM     27  N   UNL     1      10.377  14.973  18.930  0.00  0.00    +0.000 NA
ATOM     28  C   UNL     1      10.458  13.646  19.203  0.00  0.00    +0.000 A 
ENDBRANCH  22  23
ENDBRANCH  21  22
ENDBRANCH  20  21
ENDBRANCH  19  20
ENDBRANCH  17  19
ENDBRANCH   1  15
TORSDOF 8
ENDMDL
MODEL 7
REMARK VINA RESULT:      -7.7      1.084      1.123
REMARK  Name = 
REMARK  9 active torsions:
REMARK  status: ('A' for Active; 'I' for Inactive)
REMARK    1  A    between atoms: C_1  and  C_2
REMARK    2  A    between atoms: N_4  and  C_5
REMARK    3  A    between atoms: N_13  and  C_14
REMARK    4  A    between atoms: C_14  and  C_15
REMARK    5  A    between atoms: N_17  and  C_18
REMARK    6  A    between atoms: C_18  and  C_19
REMARK    7  A    between atoms: C_19  and  C_20
REMARK    8  A    between atoms: C_20  and  O_21
REMARK    9  A    between atoms: O_21  and  C_22
REMARK                            x       y       z     vdW  Elec       q    Type
REMARK                         _______ _______ _______ _____ _____    ______ ____
ROOT
ATOM      1  C   UNL     1       7.398   5.747  17.383  0.00  0.00    +0.000 C 
ENDROOT
BRANCH   1   8
ATOM      2  C   UNL     1       5.515   5.067  15.041  0.00  0.00    +0.000 C 
ATOM      3  C   UNL     1       5.215   4.805  16.481  0.00  0.00    +0.000 A 
ATOM      4  N   UNL     1       4.080   4.320  16.901  0.00  0.00    +0.000 NA
ATOM      5  N   UNL     1       4.210   4.307  18.276  0.00  0.00    +0.000 N 
ATOM      6  C   UNL     1       5.467   4.813  18.632  0.00  0.00    +0.000 A 
ATOM      7  O   UNL     1       5.972   4.978  19.732  0.00  0.00    +0.000 OA
ATOM      8  N   UNL     1       6.103   5.093  17.450  0.00  0.00    +0.000 N 
BRANCH   5   9
ATOM      9  C   UNL     1       3.162   3.874  19.119  0.00  0.00    +0.000 A 
ATOM     10  C   UNL     1       2.312   4.798  19.742  0.00  0.00    +0.000 A 
ATOM     11  C   UNL     1       1.279   4.382  20.585  0.00  0.00    +0.000 A 
ATOM     12  C   UNL     1       1.078   3.028  20.821  0.00  0.00    +0.000 A 
ATOM     13  C   UNL     1       1.908   2.091  20.208  0.00  0.00    +0.000 A 
ATOM     14  C   UNL     1       2.941   2.510  19.360  0.00  0.00    +0.000 A 
ENDBRANCH   5   9
ENDBRANCH   1   8
BRANCH   1  15
ATOM     15  C   UNL     1       7.316   7.278  17.388  0.00  0.00    +0.000 C 
ATOM     16  O   UNL     1       6.289   7.861  17.041  0.00  0.00    +0.000 OA
ATOM     17  N   UNL     1       8.407   7.945  17.907  0.00  0.00    +0.000 N 
ATOM     18  H   UNL     1       9.225   7.403  18.196  0.00  0.00    +0.000 HD
BRANCH  17  19
ATOM     19  C   UNL     1       8.432   9.389  18.048  0.00  0.00    +0.000 C 
BRANCH  19  20
ATOM     20  C   UNL     1       9.044   9.851  19.371  0.00  0.00    +0.000 C 
BRANCH  20  21
ATOM     21  C   UNL     1       9.967  11.052  19.188  0.00  0.00    +0.000 C 
BRANCH  21  22
ATOM     22  O   UNL     1       9.338  11.986  18.305  0.00  0.00    +0.000 OA
BRANCH  22  23
ATOM     23  C   UNL     1      10.026  13.142  18.060  0.00  0.00    +0.000 A 
ATOM     24  C   UNL     1      10.960  13.346  17.048  0.00  0.00    +0.000 A 
ATOM     25  C   UNL     1      11.579  14.589  16.918  0.00  0.00    +0.000 A 
ATOM     26  C   UNL     1      11.242  15.593  17.811  0.00  0.00    +0.000 A 
ATOM     27  N   UNL     1      10.347  15.435  18.808  0.00  0.00    +0.000 NA
ATOM     28  C   UNL     1       9.764  14.213  18.907  0.00  0.00    +0.000 A 
ENDBRANCH  22  23
ENDBRANCH  21  22
ENDBRANCH  20  21
ENDBRANCH  19  20
ENDBRANCH  17  19
ENDBRANCH   1  15
TORSDOF 8
ENDMDL
MODEL 8
REMARK VINA RESULT:      -7.6      0.492      1.069
REMARK  Name = 
REMARK  9 active torsions:
REMARK  status: ('A' for Active; 'I' for Inactive)
REMARK    1  A    between atoms: C_1  and  C_2
REMARK    2  A    between atoms: N_4  and  C_5
REMARK    3  A    between atoms: N_13  and  C_14
REMARK    4  A    between atoms: C_14  and  C_15
REMARK    5  A    between atoms: N_17  and  C_18
REMARK    6  A    between atoms: C_18  and  C_19
REMARK    7  A    between atoms: C_19  and  C_20
REMARK    8  A    between atoms: C_20  and  O_21
REMARK    9  A    between atoms: O_21  and  C_22
REMARK                            x       y       z     vdW  Elec       q    Type
REMARK                         _______ _______ _______ _____ _____    ______ ____
ROOT
ATOM      1  C   UNL     1       7.768   5.905  18.064  0.00  0.00    +0.000 C 
ENDROOT
BRANCH   1   8
ATOM      2  C   UNL     1       7.221   4.603  15.326  0.00  0.00    +0.000 C 
ATOM      3  C   UNL     1       6.333   4.481  16.521  0.00  0.00    +0.000 A 
ATOM      4  N   UNL     1       5.187   3.860  16.504  0.00  0.00    +0.000 NA
ATOM      5  N   UNL     1       4.685   4.049  17.776  0.00  0.00    +0.000 N 
ATOM      6  C   UNL     1       5.588   4.812  18.528  0.00  0.00    +0.000 A 
ATOM      7  O   UNL     1       5.524   5.205  19.683  0.00  0.00    +0.000 OA
ATOM      8  N   UNL     1       6.656   5.045  17.700  0.00  0.00    +0.000 N 
BRANCH   5   9
ATOM      9  C   UNL     1       3.420   3.548  18.159  0.00  0.00    +0.000 A 
ATOM     10  C   UNL     1       3.300   2.293  18.772  0.00  0.00    +0.000 A 
ATOM     11  C   UNL     1       2.054   1.782  19.145  0.00  0.00    +0.000 A 
ATOM     12  C   UNL     1       0.902   2.523  18.910  0.00  0.00    +0.000 A 
ATOM     13  C   UNL     1       0.999   3.775  18.308  0.00  0.00    +0.000 A 
ATOM     14  C   UNL     1       2.249   4.287  17.937  0.00  0.00    +0.000 A 
ENDBRANCH   5   9
ENDBRANCH   1   8
BRANCH   1  15
ATOM     15  C   UNL     1       7.590   7.362  17.622  0.00  0.00    +0.000 C 
ATOM     16  O   UNL     1       6.759   7.672  16.769  0.00  0.00    +0.000 OA
ATOM     17  N   UNL     1       8.327   8.302  18.314  0.00  0.00    +0.000 N 
ATOM     18  H   UNL     1       8.989   7.985  19.026  0.00  0.00    +0.000 HD
BRANCH  17  19
ATOM     19  C   UNL     1       8.197   9.725  18.057  0.00  0.00    +0.000 C 
BRANCH  19  20
ATOM     20  C   UNL     1       9.523  10.478  18.169  0.00  0.00    +0.000 C 
BRANCH  20  21
ATOM     21  C   UNL     1       9.453  11.614  19.186  0.00  0.00    +0.000 C 
BRANCH  21  22
ATOM     22  O   UNL     1       8.756  12.716  18.599  0.00  0.00    +0.000 OA
BRANCH  22  23
ATOM     23  C   UNL     1       9.532  13.719  18.088  0.00  0.00    +0.000 A 
ATOM     24  C   UNL     1      10.832  13.589  17.606  0.00  0.00    +0.000 A 
ATOM     25  C   UNL     1      11.499  14.708  17.107  0.00  0.00    +0.000 A 
ATOM     26  C   UNL     1      10.841  15.926  17.108  0.00  0.00    +0.000 A 
ATOM     27  N   UNL     1       9.585  16.096  17.571  0.00  0.00    +0.000 NA
ATOM     28  C   UNL     1       8.965  14.988  18.050  0.00  0.00    +0.000 A 
ENDBRANCH  22  23
ENDBRANCH  21  22
ENDBRANCH  20  21
ENDBRANCH  19  20
ENDBRANCH  17  19
ENDBRANCH   1  15
TORSDOF 8
ENDMDL
MODEL 9
REMARK VINA RESULT:      -7.4      7.637     10.861
REMARK  Name = 
REMARK  9 active torsions:
REMARK  status: ('A' for Active; 'I' for Inactive)
REMARK    1  A    between atoms: C_1  and  C_2
REMARK    2  A    between atoms: N_4  and  C_5
REMARK    3  A    between atoms: N_13  and  C_14
REMARK    4  A    between atoms: C_14  and  C_15
REMARK    5  A    between atoms: N_17  and  C_18
REMARK    6  A    between atoms: C_18  and  C_19
REMARK    7  A    between atoms: C_19  and  C_20
REMARK    8  A    between atoms: C_20  and  O_21
REMARK    9  A    between atoms: O_21  and  C_22
REMARK                            x       y       z     vdW  Elec       q    Type
REMARK                         _______ _______ _______ _____ _____    ______ ____
ROOT
ATOM      1  C   UNL     1       1.020  10.702  19.457  0.00  0.00    +0.000 C 
ENDROOT
BRANCH   1   8
ATOM      2  C   UNL     1       0.962   8.812  21.889  0.00  0.00    +0.000 C 
ATOM      3  C   UNL     1       1.427   8.429  20.523  0.00  0.00    +0.000 A 
ATOM      4  N   UNL     1       1.928   7.261  20.235  0.00  0.00    +0.000 NA
ATOM      5  N   UNL     1       2.280   7.364  18.904  0.00  0.00    +0.000 N 
ATOM      6  C   UNL     1       1.967   8.647  18.436  0.00  0.00    +0.000 A 
ATOM      7  O   UNL     1       2.121   9.148  17.332  0.00  0.00    +0.000 OA
ATOM      8  N   UNL     1       1.387   9.297  19.495  0.00  0.00    +0.000 N 
BRANCH   5   9
ATOM      9  C   UNL     1       2.899   6.299  18.212  0.00  0.00    +0.000 A 
ATOM     10  C   UNL     1       2.254   5.062  18.072  0.00  0.00    +0.000 A 
ATOM     11  C   UNL     1       2.860   3.998  17.400  0.00  0.00    +0.000 A 
ATOM     12  C   UNL     1       4.129   4.154  16.854  0.00  0.00    +0.000 A 
ATOM     13  C   UNL     1       4.786   5.377  16.976  0.00  0.00    +0.000 A 
ATOM     14  C   UNL     1       4.175   6.443  17.648  0.00  0.00    +0.000 A 
ENDBRANCH   5   9
ENDBRANCH   1   8
BRANCH   1  15
ATOM     15  C   UNL     1      -0.449  10.945  19.093  0.00  0.00    +0.000 C 
ATOM     16  O   UNL     1      -1.269  11.281  19.947  0.00  0.00    +0.000 OA
ATOM     17  N   UNL     1      -0.763  10.878  17.751  0.00  0.00    +0.000 N 
ATOM     18  H   UNL     1      -0.033  10.611  17.085  0.00  0.00    +0.000 HD
BRANCH  17  19
ATOM     19  C   UNL     1      -2.097  11.167  17.256  0.00  0.00    +0.000 C 
BRANCH  19  20
ATOM     20  C   UNL     1      -2.874   9.912  16.859  0.00  0.00    +0.000 C 
BRANCH  20  21
ATOM     21  C   UNL     1      -4.173   9.768  17.647  0.00  0.00    +0.000 C 
BRANCH  21  22
ATOM     22  O   UNL     1      -4.860  11.023  17.635  0.00  0.00    +0.000 OA
BRANCH  22  23
ATOM     23  C   UNL     1      -5.570  11.334  18.761  0.00  0.00    +0.000 A 
ATOM     24  C   UNL     1      -5.309  12.387  19.635  0.00  0.00    +0.000 A 
ATOM     25  C   UNL     1      -6.129  12.584  20.745  0.00  0.00    +0.000 A 
ATOM     26  C   UNL     1      -7.188  11.715  20.948  0.00  0.00    +0.000 A 
ATOM     27  N   UNL     1      -7.472  10.680  20.131  0.00  0.00    +0.000 NA
ATOM     28  C   UNL     1      -6.654  10.516  19.060  0.00  0.00    +0.000 A 
ENDBRANCH  22  23
ENDBRANCH  21  22
ENDBRANCH  20  21
ENDBRANCH  19  20
ENDBRANCH  17  19
ENDBRANCH   1  15
TORSDOF 8
ENDMDL
