MODEL 1
REMARK VINA RESULT:      -7.7      0.000      0.000
REMARK  Name = 
REMARK  3 active torsions:
REMARK  status: ('A' for Active; 'I' for Inactive)
REMARK    1  A    between atoms: O_1  and  C_2
REMARK    2  A    between atoms: C_6  and  C_7
REMARK    3  A    between atoms: C_17  and  O_18
REMARK                            x       y       z     vdW  Elec       q    Type
REMARK                         _______ _______ _______ _____ _____    ______ ____
ROOT
ATOM      1  C   UNL     1       6.273   4.011  14.425  0.00  0.00    +0.000 A 
ATOM      2  C   UNL     1       5.275   3.554  15.279  0.00  0.00    +0.000 A 
ATOM      3  C   UNL     1       5.143   4.117  16.560  0.00  0.00    +0.000 A 
ATOM      4  C   UNL     1       4.177   3.656  17.469  0.00  0.00    +0.000 A 
ATOM      5  C   UNL     1       4.085   4.184  18.763  0.00  0.00    +0.000 A 
ATOM      6  C   UNL     1       4.981   5.213  19.050  0.00  0.00    +0.000 A 
ATOM      7  N   UNL     1       5.910   5.708  18.195  0.00  0.00    +0.000 NA
ATOM      8  C   UNL     1       5.998   5.158  16.975  0.00  0.00    +0.000 A 
ATOM      9  C   UNL     1       6.971   5.610  16.094  0.00  0.00    +0.000 A 
ATOM     10  C   UNL     1       7.119   5.037  14.832  0.00  0.00    +0.000 A 
ENDROOT
BRANCH   5  11
ATOM     11  C   UNL     1       3.121   3.667  19.755  0.00  0.00    +0.000 A 
ATOM     12  C   UNL     1       1.737   3.832  19.604  0.00  0.00    +0.000 A 
ATOM     13  C   UNL     1       0.848   3.334  20.555  0.00  0.00    +0.000 A 
ATOM     14  C   UNL     1       1.366   2.664  21.647  0.00  0.00    +0.000 A 
ATOM     15  N   UNL     1       2.685   2.470  21.841  0.00  0.00    +0.000 NA
ATOM     16  C   UNL     1       3.522   2.975  20.902  0.00  0.00    +0.000 A 
ENDBRANCH   5  11
BRANCH   1  17
ATOM     17  O   UNL     1       6.440   3.448  13.192  0.00  0.00    +0.000 OA
ATOM     18  H   UNL     1       6.290   2.492  13.248  0.00  0.00    +0.000 HD
ENDBRANCH   1  17
BRANCH  10  19
ATOM     19  O   UNL     1       8.106   5.467  13.990  0.00  0.00    +0.000 OA
ATOM     20  H   UNL     1       7.993   6.417  13.825  0.00  0.00    +0.000 HD
ENDBRANCH  10  19
TORSDOF 3
ENDMDL
MODEL 2
REMARK VINA RESULT:      -7.7      3.485      6.650
REMARK  Name = 
REMARK  3 active torsions:
REMARK  status: ('A' for Active; 'I' for Inactive)
REMARK    1  A    between atoms: O_1  and  C_2
REMARK    2  A    between atoms: C_6  and  C_7
REMARK    3  A    between atoms: C_17  and  O_18
REMARK                            x       y       z     vdW  Elec       q    Type
REMARK                         _______ _______ _______ _____ _____    ______ ____
ROOT
ATOM      1  C   UNL     1       1.279   2.836  19.285  0.00  0.00    +0.000 A 
ATOM      2  C   UNL     1       1.938   2.994  18.071  0.00  0.00    +0.000 A 
ATOM      3  C   UNL     1       3.290   3.378  18.057  0.00  0.00    +0.000 A 
ATOM      4  C   UNL     1       3.980   3.590  16.853  0.00  0.00    +0.000 A 
ATOM      5  C   UNL     1       5.312   4.025  16.844  0.00  0.00    +0.000 A 
ATOM      6  C   UNL     1       5.894   4.181  18.102  0.00  0.00    +0.000 A 
ATOM      7  N   UNL     1       5.274   3.960  19.288  0.00  0.00    +0.000 NA
ATOM      8  C   UNL     1       3.988   3.580  19.264  0.00  0.00    +0.000 A 
ATOM      9  C   UNL     1       3.312   3.393  20.462  0.00  0.00    +0.000 A 
ATOM     10  C   UNL     1       1.965   3.036  20.479  0.00  0.00    +0.000 A 
ENDROOT
BRANCH   5  11
ATOM     11  C   UNL     1       6.035   4.318  15.591  0.00  0.00    +0.000 A 
ATOM     12  C   UNL     1       5.674   3.730  14.369  0.00  0.00    +0.000 A 
ATOM     13  C   UNL     1       6.373   4.024  13.199  0.00  0.00    +0.000 A 
ATOM     14  C   UNL     1       7.425   4.917  13.272  0.00  0.00    +0.000 A 
ATOM     15  N   UNL     1       7.811   5.517  14.415  0.00  0.00    +0.000 NA
ATOM     16  C   UNL     1       7.116   5.202  15.535  0.00  0.00    +0.000 A 
ENDBRANCH   5  11
BRANCH   1  17
ATOM     17  O   UNL     1      -0.044   2.502  19.317  0.00  0.00    +0.000 OA
ATOM     18  H   UNL     1      -0.437   2.807  20.149  0.00  0.00    +0.000 HD
ENDBRANCH   1  17
BRANCH  10  19
ATOM     19  O   UNL     1       1.304   2.893  21.666  0.00  0.00    +0.000 OA
ATOM     20  H   UNL     1       0.797   3.700  21.848  0.00  0.00    +0.000 HD
ENDBRANCH  10  19
TORSDOF 3
ENDMDL
MODEL 3
REMARK VINA RESULT:      -7.4      3.497      6.671
REMARK  Name = 
REMARK  3 active torsions:
REMARK  status: ('A' for Active; 'I' for Inactive)
REMARK    1  A    between atoms: O_1  and  C_2
REMARK    2  A    between atoms: C_6  and  C_7
REMARK    3  A    between atoms: C_17  and  O_18
REMARK                            x       y       z     vdW  Elec       q    Type
REMARK                         _______ _______ _______ _____ _____    ______ ____
ROOT
ATOM      1  C   UNL     1       1.363   2.553  18.701  0.00  0.00    +0.000 A 
ATOM      2  C   UNL     1       2.253   2.508  17.633  0.00  0.00    +0.000 A 
ATOM      3  C   UNL     1       3.225   3.513  17.493  0.00  0.00    +0.000 A 
ATOM      4  C   UNL     1       4.114   3.529  16.406  0.00  0.00    +0.000 A 
ATOM      5  C   UNL     1       5.045   4.563  16.242  0.00  0.00    +0.000 A 
ATOM      6  C   UNL     1       5.045   5.528  17.250  0.00  0.00    +0.000 A 
ATOM      7  N   UNL     1       4.224   5.536  18.330  0.00  0.00    +0.000 NA
ATOM      8  C   UNL     1       3.319   4.553  18.440  0.00  0.00    +0.000 A 
ATOM      9  C   UNL     1       2.433   4.561  19.508  0.00  0.00    +0.000 A 
ATOM     10  C   UNL     1       1.454   3.579  19.637  0.00  0.00    +0.000 A 
ENDROOT
BRANCH   5  11
ATOM     11  C   UNL     1       5.943   4.633  15.073  0.00  0.00    +0.000 A 
ATOM     12  C   UNL     1       5.684   3.922  13.892  0.00  0.00    +0.000 A 
ATOM     13  C   UNL     1       6.548   4.006  12.801  0.00  0.00    +0.000 A 
ATOM     14  C   UNL     1       7.661   4.816  12.910  0.00  0.00    +0.000 A 
ATOM     15  N   UNL     1       7.957   5.527  14.015  0.00  0.00    +0.000 NA
ATOM     16  C   UNL     1       7.101   5.415  15.061  0.00  0.00    +0.000 A 
ENDBRANCH   5  11
BRANCH   1  17
ATOM     17  O   UNL     1       0.388   1.606  18.831  0.00  0.00    +0.000 OA
ATOM     18  H   UNL     1      -0.454   1.961  18.509  0.00  0.00    +0.000 HD
ENDBRANCH   1  17
BRANCH  10  19
ATOM     19  O   UNL     1       0.564   3.622  20.674  0.00  0.00    +0.000 OA
ATOM     20  H   UNL     1       0.986   3.264  21.472  0.00  0.00    +0.000 HD
ENDBRANCH  10  19
TORSDOF 3
ENDMDL
MODEL 4
REMARK VINA RESULT:      -7.2      0.756      1.162
REMARK  Name = 
REMARK  3 active torsions:
REMARK  status: ('A' for Active; 'I' for Inactive)
REMARK    1  A    between atoms: O_1  and  C_2
REMARK    2  A    between atoms: C_6  and  C_7
REMARK    3  A    between atoms: C_17  and  O_18
REMARK                            x       y       z     vdW  Elec       q    Type
REMARK                         _______ _______ _______ _____ _____    ______ ____
ROOT
ATOM      1  C   UNL     1       6.239   4.213  14.189  0.00  0.00    +0.000 A 
ATOM      2  C   UNL     1       5.206   3.792  15.020  0.00  0.00    +0.000 A 
ATOM      3  C   UNL     1       5.128   4.277  16.336  0.00  0.00    +0.000 A 
ATOM      4  C   UNL     1       4.128   3.844  17.221  0.00  0.00    +0.000 A 
ATOM      5  C   UNL     1       4.086   4.289  18.548  0.00  0.00    +0.000 A 
ATOM      6  C   UNL     1       5.073   5.212  18.896  0.00  0.00    +0.000 A 
ATOM      7  N   UNL     1       6.041   5.678  18.067  0.00  0.00    +0.000 NA
ATOM      8  C   UNL     1       6.076   5.205  16.813  0.00  0.00    +0.000 A 
ATOM      9  C   UNL     1       7.083   5.626  15.956  0.00  0.00    +0.000 A 
ATOM     10  C   UNL     1       7.176   5.129  14.657  0.00  0.00    +0.000 A 
ENDROOT
BRANCH   5  11
ATOM     11  C   UNL     1       3.083   3.796  19.512  0.00  0.00    +0.000 A 
ATOM     12  C   UNL     1       3.434   2.991  20.605  0.00  0.00    +0.000 A 
ATOM     13  C   UNL     1       2.466   2.538  21.501  0.00  0.00    +0.000 A 
ATOM     14  C   UNL     1       1.153   2.911  21.289  0.00  0.00    +0.000 A 
ATOM     15  N   UNL     1       0.758   3.688  20.261  0.00  0.00    +0.000 NA
ATOM     16  C   UNL     1       1.723   4.103  19.404  0.00  0.00    +0.000 A 
ENDBRANCH   5  11
BRANCH   1  17
ATOM     17  O   UNL     1       6.351   3.723  12.920  0.00  0.00    +0.000 OA
ATOM     18  H   UNL     1       6.825   4.362  12.366  0.00  0.00    +0.000 HD
ENDBRANCH   1  17
BRANCH  10  19
ATOM     19  O   UNL     1       8.195   5.525  13.838  0.00  0.00    +0.000 OA
ATOM     20  H   UNL     1       8.973   4.968  14.003  0.00  0.00    +0.000 HD
ENDBRANCH  10  19
TORSDOF 3
ENDMDL
MODEL 5
REMARK VINA RESULT:      -7.2      3.534      6.684
REMARK  Name = 
REMARK  3 active torsions:
REMARK  status: ('A' for Active; 'I' for Inactive)
REMARK    1  A    between atoms: O_1  and  C_2
REMARK    2  A    between atoms: C_6  and  C_7
REMARK    3  A    between atoms: C_17  and  O_18
REMARK                            x       y       z     vdW  Elec       q    Type
REMARK                         _______ _______ _______ _____ _____    ______ ____
ROOT
ATOM      1  C   UNL     1       3.106   3.529  19.779  0.00  0.00    +0.000 A 
ATOM      2  C   UNL     1       3.764   3.174  18.606  0.00  0.00    +0.000 A 
ATOM      3  C   UNL     1       4.283   4.176  17.768  0.00  0.00    +0.000 A 
ATOM      4  C   UNL     1       4.915   3.863  16.555  0.00  0.00    +0.000 A 
ATOM      5  C   UNL     1       5.383   4.867  15.697  0.00  0.00    +0.000 A 
ATOM      6  C   UNL     1       5.213   6.171  16.161  0.00  0.00    +0.000 A 
ATOM      7  N   UNL     1       4.633   6.517  17.338  0.00  0.00    +0.000 NA
ATOM      8  C   UNL     1       4.163   5.535  18.121  0.00  0.00    +0.000 A 
ATOM      9  C   UNL     1       3.522   5.860  19.307  0.00  0.00    +0.000 A 
ATOM     10  C   UNL     1       2.985   4.870  20.129  0.00  0.00    +0.000 A 
ENDROOT
BRANCH   5  11
ATOM     11  C   UNL     1       5.991   4.561  14.387  0.00  0.00    +0.000 A 
ATOM     12  C   UNL     1       5.405   3.658  13.488  0.00  0.00    +0.000 A 
ATOM     13  C   UNL     1       5.999   3.387  12.256  0.00  0.00    +0.000 A 
ATOM     14  C   UNL     1       7.176   4.038  11.940  0.00  0.00    +0.000 A 
ATOM     15  N   UNL     1       7.780   4.919  12.761  0.00  0.00    +0.000 NA
ATOM     16  C   UNL     1       7.181   5.153  13.954  0.00  0.00    +0.000 A 
ENDBRANCH   5  11
BRANCH   1  17
ATOM     17  O   UNL     1       2.562   2.571  20.586  0.00  0.00    +0.000 OA
ATOM     18  H   UNL     1       3.224   1.887  20.769  0.00  0.00    +0.000 HD
ENDBRANCH   1  17
BRANCH  10  19
ATOM     19  O   UNL     1       2.324   5.208  21.276  0.00  0.00    +0.000 OA
ATOM     20  H   UNL     1       2.389   4.477  21.910  0.00  0.00    +0.000 HD
ENDBRANCH  10  19
TORSDOF 3
ENDMDL
MODEL 6
REMARK VINA RESULT:      -7.1      4.894      7.021
REMARK  Name = 
REMARK  3 active torsions:
REMARK  status: ('A' for Active; 'I' for Inactive)
REMARK    1  A    between atoms: O_1  and  C_2
REMARK    2  A    between atoms: C_6  and  C_7
REMARK    3  A    between atoms: C_17  and  O_18
REMARK                            x       y       z     vdW  Elec       q    Type
REMARK                         _______ _______ _______ _____ _____    ______ ____
ROOT
ATOM      1  C   UNL     1       0.964   9.920  18.715  0.00  0.00    +0.000 A 
ATOM      2  C   UNL     1       1.842   9.300  17.832  0.00  0.00    +0.000 A 
ATOM      3  C   UNL     1       2.485   8.109  18.209  0.00  0.00    +0.000 A 
ATOM      4  C   UNL     1       3.410   7.474  17.365  0.00  0.00    +0.000 A 
ATOM      5  C   UNL     1       4.088   6.316  17.768  0.00  0.00    +0.000 A 
ATOM      6  C   UNL     1       3.742   5.833  19.030  0.00  0.00    +0.000 A 
ATOM      7  N   UNL     1       2.835   6.398  19.866  0.00  0.00    +0.000 NA
ATOM      8  C   UNL     1       2.228   7.526  19.467  0.00  0.00    +0.000 A 
ATOM      9  C   UNL     1       1.331   8.154  20.320  0.00  0.00    +0.000 A 
ATOM     10  C   UNL     1       0.710   9.347  19.957  0.00  0.00    +0.000 A 
ENDROOT
BRANCH   5  11
ATOM     11  C   UNL     1       5.112   5.672  16.923  0.00  0.00    +0.000 A 
ATOM     12  C   UNL     1       4.887   4.442  16.287  0.00  0.00    +0.000 A 
ATOM     13  C   UNL     1       5.871   3.855  15.494  0.00  0.00    +0.000 A 
ATOM     14  C   UNL     1       7.072   4.520  15.342  0.00  0.00    +0.000 A 
ATOM     15  N   UNL     1       7.343   5.705  15.922  0.00  0.00    +0.000 NA
ATOM     16  C   UNL     1       6.367   6.244  16.695  0.00  0.00    +0.000 A 
ENDBRANCH   5  11
BRANCH   1  17
ATOM     17  O   UNL     1       0.361  11.097  18.379  0.00  0.00    +0.000 OA
ATOM     18  H   UNL     1      -0.281  11.341  19.064  0.00  0.00    +0.000 HD
ENDBRANCH   1  17
BRANCH  10  19
ATOM     19  O   UNL     1      -0.142   9.974  20.823  0.00  0.00    +0.000 OA
ATOM     20  H   UNL     1      -0.748  10.541  20.321  0.00  0.00    +0.000 HD
ENDBRANCH  10  19
TORSDOF 3
ENDMDL
MODEL 7
REMARK VINA RESULT:      -7.0      3.815      4.502
REMARK  Name = 
REMARK  3 active torsions:
REMARK  status: ('A' for Active; 'I' for Inactive)
REMARK    1  A    between atoms: O_1  and  C_2
REMARK    2  A    between atoms: C_6  and  C_7
REMARK    3  A    between atoms: C_17  and  O_18
REMARK                            x       y       z     vdW  Elec       q    Type
REMARK                         _______ _______ _______ _____ _____    ______ ____
ROOT
ATOM      1  C   UNL     1       6.282   5.368  15.751  0.00  0.00    +0.000 A 
ATOM      2  C   UNL     1       5.658   6.470  16.327  0.00  0.00    +0.000 A 
ATOM      3  C   UNL     1       4.485   6.293  17.079  0.00  0.00    +0.000 A 
ATOM      4  C   UNL     1       3.801   7.383  17.641  0.00  0.00    +0.000 A 
ATOM      5  C   UNL     1       2.602   7.206  18.344  0.00  0.00    +0.000 A 
ATOM      6  C   UNL     1       2.179   5.883  18.475  0.00  0.00    +0.000 A 
ATOM      7  N   UNL     1       2.822   4.799  17.973  0.00  0.00    +0.000 NA
ATOM      8  C   UNL     1       3.949   5.004  17.274  0.00  0.00    +0.000 A 
ATOM      9  C   UNL     1       4.603   3.919  16.707  0.00  0.00    +0.000 A 
ATOM     10  C   UNL     1       5.754   4.095  15.941  0.00  0.00    +0.000 A 
ENDROOT
BRANCH   5  11
ATOM     11  C   UNL     1       1.833   8.344  18.885  0.00  0.00    +0.000 A 
ATOM     12  C   UNL     1       1.410   9.408  18.075  0.00  0.00    +0.000 A 
ATOM     13  C   UNL     1       0.684  10.472  18.611  0.00  0.00    +0.000 A 
ATOM     14  C   UNL     1       0.385  10.446  19.959  0.00  0.00    +0.000 A 
ATOM     15  N   UNL     1       0.759   9.448  20.783  0.00  0.00    +0.000 NA
ATOM     16  C   UNL     1       1.471   8.434  20.232  0.00  0.00    +0.000 A 
ENDBRANCH   5  11
BRANCH   1  17
ATOM     17  O   UNL     1       7.401   5.527  14.986  0.00  0.00    +0.000 OA
ATOM     18  H   UNL     1       7.997   6.163  15.410  0.00  0.00    +0.000 HD
ENDBRANCH   1  17
BRANCH  10  19
ATOM     19  O   UNL     1       6.366   3.021  15.358  0.00  0.00    +0.000 OA
ATOM     20  H   UNL     1       6.583   3.238  14.437  0.00  0.00    +0.000 HD
ENDBRANCH  10  19
TORSDOF 3
ENDMDL
MODEL 8
REMARK VINA RESULT:      -6.9      3.758      4.621
REMARK  Name = 
REMARK  3 active torsions:
REMARK  status: ('A' for Active; 'I' for Inactive)
REMARK    1  A    between atoms: O_1  and  C_2
REMARK    2  A    between atoms: C_6  and  C_7
REMARK    3  A    between atoms: C_17  and  O_18
REMARK                            x       y       z     vdW  Elec       q    Type
REMARK                         _______ _______ _______ _____ _____    ______ ____
ROOT
ATOM      1  C   UNL     1       6.260   5.365  15.773  0.00  0.00    +0.000 A 
ATOM      2  C   UNL     1       5.644   6.471  16.348  0.00  0.00    +0.000 A 
ATOM      3  C   UNL     1       4.475   6.300  17.109  0.00  0.00    +0.000 A 
ATOM      4  C   UNL     1       3.797   7.393  17.671  0.00  0.00    +0.000 A 
ATOM      5  C   UNL     1       2.603   7.223  18.383  0.00  0.00    +0.000 A 
ATOM      6  C   UNL     1       2.178   5.901  18.522  0.00  0.00    +0.000 A 
ATOM      7  N   UNL     1       2.815   4.814  18.020  0.00  0.00    +0.000 NA
ATOM      8  C   UNL     1       3.937   5.013  17.313  0.00  0.00    +0.000 A 
ATOM      9  C   UNL     1       4.584   3.925  16.746  0.00  0.00    +0.000 A 
ATOM     10  C   UNL     1       5.731   4.094  15.971  0.00  0.00    +0.000 A 
ENDROOT
BRANCH   5  11
ATOM     11  C   UNL     1       1.841   8.365  18.924  0.00  0.00    +0.000 A 
ATOM     12  C   UNL     1       1.440   8.423  20.267  0.00  0.00    +0.000 A 
ATOM     13  C   UNL     1       0.721   9.514  20.754  0.00  0.00    +0.000 A 
ATOM     14  C   UNL     1       0.422  10.542  19.881  0.00  0.00    +0.000 A 
ATOM     15  N   UNL     1       0.786  10.544  18.584  0.00  0.00    +0.000 NA
ATOM     16  C   UNL     1       1.476   9.464  18.141  0.00  0.00    +0.000 A 
ENDBRANCH   5  11
BRANCH   1  17
ATOM     17  O   UNL     1       7.374   5.518  14.999  0.00  0.00    +0.000 OA
ATOM     18  H   UNL     1       8.166   5.474  15.557  0.00  0.00    +0.000 HD
ENDBRANCH   1  17
BRANCH  10  19
ATOM     19  O   UNL     1       6.336   3.016  15.388  0.00  0.00    +0.000 OA
ATOM     20  H   UNL     1       5.684   2.532  14.858  0.00  0.00    +0.000 HD
ENDBRANCH  10  19
TORSDOF 3
ENDMDL
MODEL 9
REMARK VINA RESULT:      -6.9      3.533      6.727
REMARK  Name = 
REMARK  3 active torsions:
REMARK  status: ('A' for Active; 'I' for Inactive)
REMARK    1  A    between atoms: O_1  and  C_2
REMARK    2  A    between atoms: C_6  and  C_7
REMARK    3  A    between atoms: C_17  and  O_18
REMARK                            x       y       z     vdW  Elec       q    Type
REMARK                         _______ _______ _______ _____ _____    ______ ____
ROOT
ATOM      1  C   UNL     1       3.172   3.520  19.779  0.00  0.00    +0.000 A 
ATOM      2  C   UNL     1       3.844   3.178  18.610  0.00  0.00    +0.000 A 
ATOM      3  C   UNL     1       4.328   4.190  17.764  0.00  0.00    +0.000 A 
ATOM      4  C   UNL     1       4.974   3.889  16.554  0.00  0.00    +0.000 A 
ATOM      5  C   UNL     1       5.407   4.901  15.688  0.00  0.00    +0.000 A 
ATOM      6  C   UNL     1       5.189   6.203  16.140  0.00  0.00    +0.000 A 
ATOM      7  N   UNL     1       4.596   6.539  17.313  0.00  0.00    +0.000 NA
ATOM      8  C   UNL     1       4.159   5.547  18.104  0.00  0.00    +0.000 A 
ATOM      9  C   UNL     1       3.505   5.860  19.287  0.00  0.00    +0.000 A 
ATOM     10  C   UNL     1       3.003   4.859  20.116  0.00  0.00    +0.000 A 
ENDROOT
BRANCH   5  11
ATOM     11  C   UNL     1       6.027   4.606  14.382  0.00  0.00    +0.000 A 
ATOM     12  C   UNL     1       7.214   5.225  13.964  0.00  0.00    +0.000 A 
ATOM     13  C   UNL     1       7.780   4.928  12.725  0.00  0.00    +0.000 A 
ATOM     14  C   UNL     1       7.145   3.999  11.922  0.00  0.00    +0.000 A 
ATOM     15  N   UNL     1       6.008   3.368  12.273  0.00  0.00    +0.000 NA
ATOM     16  C   UNL     1       5.480   3.687  13.481  0.00  0.00    +0.000 A 
ENDBRANCH   5  11
BRANCH   1  17
ATOM     17  O   UNL     1       2.662   2.550  20.593  0.00  0.00    +0.000 OA
ATOM     18  H   UNL     1       3.224   1.761  20.551  0.00  0.00    +0.000 HD
ENDBRANCH   1  17
BRANCH  10  19
ATOM     19  O   UNL     1       2.328   5.183  21.260  0.00  0.00    +0.000 OA
ATOM     20  H   UNL     1       2.917   5.682  21.848  0.00  0.00    +0.000 HD
ENDBRANCH  10  19
TORSDOF 3
ENDMDL
