MODEL 1
REMARK VINA RESULT:      -6.1      0.000      0.000
REMARK  Name = 
REMARK  9 active torsions:
REMARK  status: ('A' for Active; 'I' for Inactive)
REMARK    1  A    between atoms: C_1  and  O_2
REMARK    2  A    between atoms: O_2  and  C_3
REMARK    3  A    between atoms: C_7  and  O_8
REMARK    4  A    between atoms: O_8  and  C_9
REMARK    5  A    between atoms: C_10  and  O_11
REMARK    6  A    between atoms: O_11  and  C_12
REMARK    7  A    between atoms: C_13  and  C_14
REMARK    8  A    between atoms: N_15  and  C_16
REMARK    9  A    between atoms: N_15  and  C_17
REMARK                            x       y       z     vdW  Elec       q    Type
REMARK                         _______ _______ _______ _____ _____    ______ ____
ROOT
ATOM      1  C   UNL     1       1.668   7.474  20.386  0.00  0.00    +0.000 A 
ATOM      2  C   UNL     1       1.454   6.197  20.920  0.00  0.00    +0.000 A 
ATOM      3  C   UNL     1       1.889   5.041  20.264  0.00  0.00    +0.000 A 
ATOM      4  C   UNL     1       2.559   5.158  19.036  0.00  0.00    +0.000 A 
ATOM      5  C   UNL     1       2.773   6.445  18.474  0.00  0.00    +0.000 A 
ATOM      6  C   UNL     1       2.320   7.613  19.142  0.00  0.00    +0.000 A 
ATOM      7  C   UNL     1       3.017   3.912  18.282  0.00  0.00    +0.000 C 
ATOM      8  C   UNL     1       2.033   3.609  17.137  0.00  0.00    +0.000 C 
ATOM      9  N   UNL     1       3.208   2.666  19.217  0.00  0.00    +0.000 N 
ATOM     10  C   UNL     1       4.464   2.879  20.074  0.00  0.00    +0.000 C 
ATOM     11  C   UNL     1       3.435   1.381  18.425  0.00  0.00    +0.000 C 
ATOM     12  C   UNL     1       1.966   2.495  20.090  0.00  0.00    +0.000 C 
ATOM     13  C   UNL     1       1.696   3.718  20.959  0.00  0.00    +0.000 C 
ENDROOT
BRANCH   1  15
ATOM     14  C   UNL     1      -0.102   8.561  21.575  0.00  0.00    +0.000 C 
ATOM     15  O   UNL     1       1.218   8.593  21.037  0.00  0.00    +0.000 OA
ENDBRANCH   1  15
BRANCH   5  16
ATOM     16  O   UNL     1       3.450   6.379  17.277  0.00  0.00    +0.000 OA
ATOM     17  C   UNL     1       4.837   6.687  17.207  0.00  0.00    +0.000 C 
ENDBRANCH   5  16
BRANCH   6  18
ATOM     18  O   UNL     1       2.584   8.800  18.512  0.00  0.00    +0.000 OA
ATOM     19  C   UNL     1       1.569   9.514  17.825  0.00  0.00    +0.000 C 
ENDBRANCH   6  18
TORSDOF 3
ENDMDL
MODEL 2
REMARK VINA RESULT:      -6.1      2.993      5.111
REMARK  Name = 
REMARK  9 active torsions:
REMARK  status: ('A' for Active; 'I' for Inactive)
REMARK    1  A    between atoms: C_1  and  O_2
REMARK    2  A    between atoms: O_2  and  C_3
REMARK    3  A    between atoms: C_7  and  O_8
REMARK    4  A    between atoms: O_8  and  C_9
REMARK    5  A    between atoms: C_10  and  O_11
REMARK    6  A    between atoms: O_11  and  C_12
REMARK    7  A    between atoms: C_13  and  C_14
REMARK    8  A    between atoms: N_15  and  C_16
REMARK    9  A    between atoms: N_15  and  C_17
REMARK                            x       y       z     vdW  Elec       q    Type
REMARK                         _______ _______ _______ _____ _____    ______ ____
ROOT
ATOM      1  C   UNL     1       5.697   5.202  15.982  0.00  0.00    +0.000 A 
ATOM      2  C   UNL     1       4.512   4.456  16.000  0.00  0.00    +0.000 A 
ATOM      3  C   UNL     1       3.958   3.980  17.192  0.00  0.00    +0.000 A 
ATOM      4  C   UNL     1       4.604   4.254  18.408  0.00  0.00    +0.000 A 
ATOM      5  C   UNL     1       5.813   5.000  18.407  0.00  0.00    +0.000 A 
ATOM      6  C   UNL     1       6.373   5.472  17.191  0.00  0.00    +0.000 A 
ATOM      7  C   UNL     1       4.040   3.720  19.723  0.00  0.00    +0.000 C 
ATOM      8  C   UNL     1       4.839   2.480  20.163  0.00  0.00    +0.000 C 
ATOM      9  N   UNL     1       2.502   3.414  19.649  0.00  0.00    +0.000 N 
ATOM     10  C   UNL     1       1.734   4.742  19.603  0.00  0.00    +0.000 C 
ATOM     11  C   UNL     1       2.004   2.666  20.883  0.00  0.00    +0.000 C 
ATOM     12  C   UNL     1       2.215   2.567  18.410  0.00  0.00    +0.000 C 
ATOM     13  C   UNL     1       2.633   3.266  17.122  0.00  0.00    +0.000 C 
ENDROOT
BRANCH   1  15
ATOM     14  C   UNL     1       7.041   4.736  14.058  0.00  0.00    +0.000 C 
ATOM     15  O   UNL     1       6.232   5.645  14.800  0.00  0.00    +0.000 OA
ENDBRANCH   1  15
BRANCH   5  16
ATOM     16  O   UNL     1       6.306   5.185  19.680  0.00  0.00    +0.000 OA
ATOM     17  C   UNL     1       7.708   5.207  19.921  0.00  0.00    +0.000 C 
ENDBRANCH   5  16
BRANCH   6  18
ATOM     18  O   UNL     1       7.538   6.182  17.308  0.00  0.00    +0.000 OA
ATOM     19  C   UNL     1       7.536   7.599  17.392  0.00  0.00    +0.000 C 
ENDBRANCH   6  18
TORSDOF 3
ENDMDL
MODEL 3
REMARK VINA RESULT:      -6.0      2.531      4.485
REMARK  Name = 
REMARK  9 active torsions:
REMARK  status: ('A' for Active; 'I' for Inactive)
REMARK    1  A    between atoms: C_1  and  O_2
REMARK    2  A    between atoms: O_2  and  C_3
REMARK    3  A    between atoms: C_7  and  O_8
REMARK    4  A    between atoms: O_8  and  C_9
REMARK    5  A    between atoms: C_10  and  O_11
REMARK    6  A    between atoms: O_11  and  C_12
REMARK    7  A    between atoms: C_13  and  C_14
REMARK    8  A    between atoms: N_15  and  C_16
REMARK    9  A    between atoms: N_15  and  C_17
REMARK                            x       y       z     vdW  Elec       q    Type
REMARK                         _______ _______ _______ _____ _____    ______ ____
ROOT
ATOM      1  C   UNL     1       2.380   5.917  19.927  0.00  0.00    +0.000 A 
ATOM      2  C   UNL     1       2.896   6.649  18.850  0.00  0.00    +0.000 A 
ATOM      3  C   UNL     1       3.994   6.198  18.111  0.00  0.00    +0.000 A 
ATOM      4  C   UNL     1       4.601   4.980  18.453  0.00  0.00    +0.000 A 
ATOM      5  C   UNL     1       4.097   4.231  19.551  0.00  0.00    +0.000 A 
ATOM      6  C   UNL     1       2.988   4.699  20.301  0.00  0.00    +0.000 A 
ATOM      7  C   UNL     1       5.821   4.478  17.685  0.00  0.00    +0.000 C 
ATOM      8  C   UNL     1       7.097   4.758  18.500  0.00  0.00    +0.000 C 
ATOM      9  N   UNL     1       5.922   5.079  16.238  0.00  0.00    +0.000 N 
ATOM     10  C   UNL     1       4.834   4.445  15.361  0.00  0.00    +0.000 C 
ATOM     11  C   UNL     1       7.258   4.757  15.573  0.00  0.00    +0.000 C 
ATOM     12  C   UNL     1       5.759   6.597  16.309  0.00  0.00    +0.000 C 
ATOM     13  C   UNL     1       4.421   7.007  16.913  0.00  0.00    +0.000 C 
ENDROOT
BRANCH   1  15
ATOM     14  C   UNL     1       1.257   7.784  20.916  0.00  0.00    +0.000 C 
ATOM     15  O   UNL     1       1.314   6.385  20.649  0.00  0.00    +0.000 OA
ENDBRANCH   1  15
BRANCH   5  16
ATOM     16  O   UNL     1       4.800   3.062  19.742  0.00  0.00    +0.000 OA
ATOM     17  C   UNL     1       4.258   1.812  19.333  0.00  0.00    +0.000 C 
ENDBRANCH   5  16
BRANCH   6  18
ATOM     18  O   UNL     1       2.585   3.896  21.334  0.00  0.00    +0.000 OA
ATOM     19  C   UNL     1       1.460   3.039  21.210  0.00  0.00    +0.000 C 
ENDBRANCH   6  18
TORSDOF 3
ENDMDL
MODEL 4
REMARK VINA RESULT:      -5.9      2.238      4.974
REMARK  Name = 
REMARK  9 active torsions:
REMARK  status: ('A' for Active; 'I' for Inactive)
REMARK    1  A    between atoms: C_1  and  O_2
REMARK    2  A    between atoms: O_2  and  C_3
REMARK    3  A    between atoms: C_7  and  O_8
REMARK    4  A    between atoms: O_8  and  C_9
REMARK    5  A    between atoms: C_10  and  O_11
REMARK    6  A    between atoms: O_11  and  C_12
REMARK    7  A    between atoms: C_13  and  C_14
REMARK    8  A    between atoms: N_15  and  C_16
REMARK    9  A    between atoms: N_15  and  C_17
REMARK                            x       y       z     vdW  Elec       q    Type
REMARK                         _______ _______ _______ _____ _____    ______ ____
ROOT
ATOM      1  C   UNL     1       6.180   4.826  16.271  0.00  0.00    +0.000 A 
ATOM      2  C   UNL     1       5.490   3.646  16.574  0.00  0.00    +0.000 A 
ATOM      3  C   UNL     1       4.385   3.637  17.430  0.00  0.00    +0.000 A 
ATOM      4  C   UNL     1       3.951   4.842  18.006  0.00  0.00    +0.000 A 
ATOM      5  C   UNL     1       4.647   6.047  17.718  0.00  0.00    +0.000 A 
ATOM      6  C   UNL     1       5.773   6.045  16.854  0.00  0.00    +0.000 A 
ATOM      7  C   UNL     1       2.767   4.858  18.970  0.00  0.00    +0.000 C 
ATOM      8  C   UNL     1       3.281   4.942  20.419  0.00  0.00    +0.000 C 
ATOM      9  N   UNL     1       1.802   3.635  18.775  0.00  0.00    +0.000 N 
ATOM     10  C   UNL     1       1.023   3.824  17.466  0.00  0.00    +0.000 C 
ATOM     11  C   UNL     1       0.763   3.538  19.889  0.00  0.00    +0.000 C 
ATOM     12  C   UNL     1       2.621   2.345  18.749  0.00  0.00    +0.000 C 
ATOM     13  C   UNL     1       3.651   2.336  17.625  0.00  0.00    +0.000 C 
ENDROOT
BRANCH   1  15
ATOM     14  C   UNL     1       7.036   4.765  14.037  0.00  0.00    +0.000 C 
ATOM     15  O   UNL     1       7.272   4.810  15.442  0.00  0.00    +0.000 OA
ENDBRANCH   1  15
BRANCH   5  16
ATOM     16  O   UNL     1       4.085   7.131  18.355  0.00  0.00    +0.000 OA
ATOM     17  C   UNL     1       3.102   7.928  17.704  0.00  0.00    +0.000 C 
ENDBRANCH   5  16
BRANCH   6  18
ATOM     18  O   UNL     1       6.364   7.262  16.645  0.00  0.00    +0.000 OA
ATOM     19  C   UNL     1       7.463   7.697  17.431  0.00  0.00    +0.000 C 
ENDBRANCH   6  18
TORSDOF 3
ENDMDL
MODEL 5
REMARK VINA RESULT:      -5.3      2.643      5.171
REMARK  Name = 
REMARK  9 active torsions:
REMARK  status: ('A' for Active; 'I' for Inactive)
REMARK    1  A    between atoms: C_1  and  O_2
REMARK    2  A    between atoms: O_2  and  C_3
REMARK    3  A    between atoms: C_7  and  O_8
REMARK    4  A    between atoms: O_8  and  C_9
REMARK    5  A    between atoms: C_10  and  O_11
REMARK    6  A    between atoms: O_11  and  C_12
REMARK    7  A    between atoms: C_13  and  C_14
REMARK    8  A    between atoms: N_15  and  C_16
REMARK    9  A    between atoms: N_15  and  C_17
REMARK                            x       y       z     vdW  Elec       q    Type
REMARK                         _______ _______ _______ _____ _____    ______ ____
ROOT
ATOM      1  C   UNL     1       2.745   2.735  18.519  0.00  0.00    +0.000 A 
ATOM      2  C   UNL     1       3.717   2.746  17.511  0.00  0.00    +0.000 A 
ATOM      3  C   UNL     1       4.555   3.847  17.307  0.00  0.00    +0.000 A 
ATOM      4  C   UNL     1       4.422   4.975  18.132  0.00  0.00    +0.000 A 
ATOM      5  C   UNL     1       3.433   4.984  19.152  0.00  0.00    +0.000 A 
ATOM      6  C   UNL     1       2.580   3.866  19.346  0.00  0.00    +0.000 A 
ATOM      7  C   UNL     1       5.302   6.203  17.913  0.00  0.00    +0.000 C 
ATOM      8  C   UNL     1       4.501   7.286  17.167  0.00  0.00    +0.000 C 
ATOM      9  N   UNL     1       6.644   5.870  17.171  0.00  0.00    +0.000 N 
ATOM     10  C   UNL     1       7.566   5.109  18.133  0.00  0.00    +0.000 C 
ATOM     11  C   UNL     1       7.398   7.130  16.752  0.00  0.00    +0.000 C 
ATOM     12  C   UNL     1       6.339   5.040  15.924  0.00  0.00    +0.000 C 
ATOM     13  C   UNL     1       5.632   3.732  16.260  0.00  0.00    +0.000 C 
ENDROOT
BRANCH   1  15
ATOM     14  C   UNL     1       0.515   1.880  18.670  0.00  0.00    +0.000 C 
ATOM     15  O   UNL     1       1.922   1.652  18.690  0.00  0.00    +0.000 OA
ENDBRANCH   1  15
BRANCH   5  16
ATOM     16  O   UNL     1       3.445   6.159  19.871  0.00  0.00    +0.000 OA
ATOM     17  C   UNL     1       2.305   7.010  19.894  0.00  0.00    +0.000 C 
ENDBRANCH   5  16
BRANCH   6  18
ATOM     18  O   UNL     1       1.666   3.983  20.359  0.00  0.00    +0.000 OA
ATOM     19  C   UNL     1       1.945   3.505  21.666  0.00  0.00    +0.000 C 
ENDBRANCH   6  18
TORSDOF 3
ENDMDL
MODEL 6
REMARK VINA RESULT:      -5.0      1.882      4.401
REMARK  Name = 
REMARK  9 active torsions:
REMARK  status: ('A' for Active; 'I' for Inactive)
REMARK    1  A    between atoms: C_1  and  O_2
REMARK    2  A    between atoms: O_2  and  C_3
REMARK    3  A    between atoms: C_7  and  O_8
REMARK    4  A    between atoms: O_8  and  C_9
REMARK    5  A    between atoms: C_10  and  O_11
REMARK    6  A    between atoms: O_11  and  C_12
REMARK    7  A    between atoms: C_13  and  C_14
REMARK    8  A    between atoms: N_15  and  C_16
REMARK    9  A    between atoms: N_15  and  C_17
REMARK                            x       y       z     vdW  Elec       q    Type
REMARK                         _______ _______ _______ _____ _____    ______ ____
ROOT
ATOM      1  C   UNL     1       6.018   5.102  17.459  0.00  0.00    +0.000 A 
ATOM      2  C   UNL     1       5.847   4.024  18.336  0.00  0.00    +0.000 A 
ATOM      3  C   UNL     1       4.641   3.806  19.009  0.00  0.00    +0.000 A 
ATOM      4  C   UNL     1       3.569   4.689  18.805  0.00  0.00    +0.000 A 
ATOM      5  C   UNL     1       3.731   5.795  17.928  0.00  0.00    +0.000 A 
ATOM      6  C   UNL     1       4.961   6.015  17.255  0.00  0.00    +0.000 A 
ATOM      7  C   UNL     1       2.252   4.494  19.551  0.00  0.00    +0.000 C 
ATOM      8  C   UNL     1       2.175   5.480  20.732  0.00  0.00    +0.000 C 
ATOM      9  N   UNL     1       2.030   3.014  20.025  0.00  0.00    +0.000 N 
ATOM     10  C   UNL     1       1.720   2.143  18.800  0.00  0.00    +0.000 C 
ATOM     11  C   UNL     1       0.834   2.884  20.965  0.00  0.00    +0.000 C 
ATOM     12  C   UNL     1       3.283   2.523  20.749  0.00  0.00    +0.000 C 
ATOM     13  C   UNL     1       4.520   2.569  19.861  0.00  0.00    +0.000 C 
ENDROOT
BRANCH   1  15
ATOM     14  C   UNL     1       7.403   4.691  15.551  0.00  0.00    +0.000 C 
ATOM     15  O   UNL     1       7.214   5.308  16.822  0.00  0.00    +0.000 OA
ENDBRANCH   1  15
BRANCH   5  16
ATOM     16  O   UNL     1       2.583   6.552  17.836  0.00  0.00    +0.000 OA
ATOM     17  C   UNL     1       2.593   7.933  18.178  0.00  0.00    +0.000 C 
ENDBRANCH   5  16
BRANCH   6  18
ATOM     18  O   UNL     1       5.003   7.108  16.432  0.00  0.00    +0.000 OA
ATOM     19  C   UNL     1       4.809   6.988  15.031  0.00  0.00    +0.000 C 
ENDBRANCH   6  18
TORSDOF 3
ENDMDL
MODEL 7
REMARK VINA RESULT:      -5.0      1.982      4.654
REMARK  Name = 
REMARK  9 active torsions:
REMARK  status: ('A' for Active; 'I' for Inactive)
REMARK    1  A    between atoms: C_1  and  O_2
REMARK    2  A    between atoms: O_2  and  C_3
REMARK    3  A    between atoms: C_7  and  O_8
REMARK    4  A    between atoms: O_8  and  C_9
REMARK    5  A    between atoms: C_10  and  O_11
REMARK    6  A    between atoms: O_11  and  C_12
REMARK    7  A    between atoms: C_13  and  C_14
REMARK    8  A    between atoms: N_15  and  C_16
REMARK    9  A    between atoms: N_15  and  C_17
REMARK                            x       y       z     vdW  Elec       q    Type
REMARK                         _______ _______ _______ _____ _____    ______ ____
ROOT
ATOM      1  C   UNL     1       5.033   4.668  16.035  0.00  0.00    +0.000 A 
ATOM      2  C   UNL     1       4.539   3.420  16.433  0.00  0.00    +0.000 A 
ATOM      3  C   UNL     1       3.733   3.273  17.567  0.00  0.00    +0.000 A 
ATOM      4  C   UNL     1       3.408   4.404  18.331  0.00  0.00    +0.000 A 
ATOM      5  C   UNL     1       3.910   5.677  17.947  0.00  0.00    +0.000 A 
ATOM      6  C   UNL     1       4.735   5.816  16.800  0.00  0.00    +0.000 A 
ATOM      7  C   UNL     1       2.557   4.270  19.591  0.00  0.00    +0.000 C 
ATOM      8  C   UNL     1       3.463   4.320  20.835  0.00  0.00    +0.000 C 
ATOM      9  N   UNL     1       1.658   2.983  19.588  0.00  0.00    +0.000 N 
ATOM     10  C   UNL     1       0.522   3.174  18.575  0.00  0.00    +0.000 C 
ATOM     11  C   UNL     1       0.997   2.739  20.943  0.00  0.00    +0.000 C 
ATOM     12  C   UNL     1       2.517   1.769  19.233  0.00  0.00    +0.000 C 
ATOM     13  C   UNL     1       3.174   1.906  17.865  0.00  0.00    +0.000 C 
ENDROOT
BRANCH   1  15
ATOM     14  C   UNL     1       7.243   4.682  15.120  0.00  0.00    +0.000 C 
ATOM     15  O   UNL     1       5.835   4.788  14.930  0.00  0.00    +0.000 OA
ENDBRANCH   1  15
BRANCH   5  16
ATOM     16  O   UNL     1       3.488   6.675  18.798  0.00  0.00    +0.000 OA
ATOM     17  C   UNL     1       2.483   7.598  18.394  0.00  0.00    +0.000 C 
ENDBRANCH   5  16
BRANCH   6  18
ATOM     18  O   UNL     1       5.159   7.088  16.522  0.00  0.00    +0.000 OA
ATOM     19  C   UNL     1       6.329   7.625  17.120  0.00  0.00    +0.000 C 
ENDBRANCH   6  18
TORSDOF 3
ENDMDL
MODEL 8
REMARK VINA RESULT:      -5.0      3.588      6.396
REMARK  Name = 
REMARK  9 active torsions:
REMARK  status: ('A' for Active; 'I' for Inactive)
REMARK    1  A    between atoms: C_1  and  O_2
REMARK    2  A    between atoms: O_2  and  C_3
REMARK    3  A    between atoms: C_7  and  O_8
REMARK    4  A    between atoms: O_8  and  C_9
REMARK    5  A    between atoms: C_10  and  O_11
REMARK    6  A    between atoms: O_11  and  C_12
REMARK    7  A    between atoms: C_13  and  C_14
REMARK    8  A    between atoms: N_15  and  C_16
REMARK    9  A    between atoms: N_15  and  C_17
REMARK                            x       y       z     vdW  Elec       q    Type
REMARK                         _______ _______ _______ _____ _____    ______ ____
ROOT
ATOM      1  C   UNL     1       6.166   4.069  14.171  0.00  0.00    +0.000 A 
ATOM      2  C   UNL     1       5.030   3.626  14.860  0.00  0.00    +0.000 A 
ATOM      3  C   UNL     1       4.725   4.080  16.147  0.00  0.00    +0.000 A 
ATOM      4  C   UNL     1       5.577   5.006  16.770  0.00  0.00    +0.000 A 
ATOM      5  C   UNL     1       6.739   5.457  16.089  0.00  0.00    +0.000 A 
ATOM      6  C   UNL     1       7.046   4.984  14.786  0.00  0.00    +0.000 A 
ATOM      7  C   UNL     1       5.286   5.495  18.187  0.00  0.00    +0.000 C 
ATOM      8  C   UNL     1       6.194   4.756  19.186  0.00  0.00    +0.000 C 
ATOM      9  N   UNL     1       3.772   5.361  18.581  0.00  0.00    +0.000 N 
ATOM     10  C   UNL     1       2.965   6.418  17.814  0.00  0.00    +0.000 C 
ATOM     11  C   UNL     1       3.539   5.630  20.066  0.00  0.00    +0.000 C 
ATOM     12  C   UNL     1       3.288   3.950  18.253  0.00  0.00    +0.000 C 
ATOM     13  C   UNL     1       3.435   3.617  16.773  0.00  0.00    +0.000 C 
ENDROOT
BRANCH   1  15
ATOM     14  C   UNL     1       5.364   3.245  12.073  0.00  0.00    +0.000 C 
ATOM     15  O   UNL     1       6.456   3.598  12.917  0.00  0.00    +0.000 OA
ENDBRANCH   1  15
BRANCH   5  16
ATOM     16  O   UNL     1       7.454   6.366  16.837  0.00  0.00    +0.000 OA
ATOM     17  C   UNL     1       6.991   7.702  16.996  0.00  0.00    +0.000 C 
ENDBRANCH   5  16
BRANCH   6  18
ATOM     18  O   UNL     1       8.188   5.488  14.224  0.00  0.00    +0.000 OA
ATOM     19  C   UNL     1       8.260   5.790  12.839  0.00  0.00    +0.000 C 
ENDBRANCH   6  18
TORSDOF 3
ENDMDL
MODEL 9
REMARK VINA RESULT:      -4.9      2.086      4.036
REMARK  Name = 
REMARK  9 active torsions:
REMARK  status: ('A' for Active; 'I' for Inactive)
REMARK    1  A    between atoms: C_1  and  O_2
REMARK    2  A    between atoms: O_2  and  C_3
REMARK    3  A    between atoms: C_7  and  O_8
REMARK    4  A    between atoms: O_8  and  C_9
REMARK    5  A    between atoms: C_10  and  O_11
REMARK    6  A    between atoms: O_11  and  C_12
REMARK    7  A    between atoms: C_13  and  C_14
REMARK    8  A    between atoms: N_15  and  C_16
REMARK    9  A    between atoms: N_15  and  C_17
REMARK                            x       y       z     vdW  Elec       q    Type
REMARK                         _______ _______ _______ _____ _____    ______ ____
ROOT
ATOM      1  C   UNL     1       2.124   8.082  18.589  0.00  0.00    +0.000 A 
ATOM      2  C   UNL     1       3.034   8.095  17.525  0.00  0.00    +0.000 A 
ATOM      3  C   UNL     1       4.048   7.139  17.409  0.00  0.00    +0.000 A 
ATOM      4  C   UNL     1       4.162   6.136  18.386  0.00  0.00    +0.000 A 
ATOM      5  C   UNL     1       3.254   6.116  19.478  0.00  0.00    +0.000 A 
ATOM      6  C   UNL     1       2.233   7.095  19.592  0.00  0.00    +0.000 A 
ATOM      7  C   UNL     1       5.278   5.098  18.303  0.00  0.00    +0.000 C 
ATOM      8  C   UNL     1       6.405   5.471  19.285  0.00  0.00    +0.000 C 
ATOM      9  N   UNL     1       5.829   4.906  16.846  0.00  0.00    +0.000 N 
ATOM     10  C   UNL     1       4.776   4.162  16.013  0.00  0.00    +0.000 C 
ATOM     11  C   UNL     1       7.092   4.048  16.816  0.00  0.00    +0.000 C 
ATOM     12  C   UNL     1       6.147   6.273  16.242  0.00  0.00    +0.000 C 
ATOM     13  C   UNL     1       4.922   7.178  16.183  0.00  0.00    +0.000 C 
ENDROOT
BRANCH   1  15
ATOM     14  C   UNL     1       1.493  10.377  18.342  0.00  0.00    +0.000 C 
ATOM     15  O   UNL     1       1.149   9.039  18.692  0.00  0.00    +0.000 OA
ENDBRANCH   1  15
BRANCH   5  16
ATOM     16  O   UNL     1       3.501   5.065  20.333  0.00  0.00    +0.000 OA
ATOM     17  C   UNL     1       2.656   3.920  20.341  0.00  0.00    +0.000 C 
ENDBRANCH   5  16
BRANCH   6  18
ATOM     18  O   UNL     1       1.413   6.978  20.682  0.00  0.00    +0.000 OA
ATOM     19  C   UNL     1       1.175   8.074  21.551  0.00  0.00    +0.000 C 
ENDBRANCH   6  18
TORSDOF 3
ENDMDL
