MODEL 1
REMARK VINA RESULT:      -7.8      0.000      0.000
REMARK  Name = 
REMARK  6 active torsions:
REMARK  status: ('A' for Active; 'I' for Inactive)
REMARK    1  A    between atoms: C_1  and  C_2
REMARK    2  A    between atoms: C_7  and  C_8
REMARK    3  A    between atoms: N_11  and  C_12
REMARK    4  A    between atoms: C_12  and  C_13
REMARK    5  A    between atoms: C_21  and  C_22
REMARK    6  A    between atoms: C_24  and  C_25
REMARK                            x       y       z     vdW  Elec       q    Type
REMARK                         _______ _______ _______ _____ _____    ______ ____
ROOT
ATOM      1  C   UNL     1       4.215   5.650  17.566  0.00  0.00    +0.000 A 
ATOM      2  N   UNL     1       3.207   6.227  18.274  0.00  0.00    +0.000 NA
ATOM      3  C   UNL     1       2.886   7.506  18.041  0.00  0.00    +0.000 A 
ATOM      4  N   UNL     1       1.699   7.964  18.584  0.00  0.00    +0.000 N 
ATOM      5  N   UNL     1       3.600   8.308  17.253  0.00  0.00    +0.000 NA
ATOM      6  C   UNL     1       4.605   7.734  16.574  0.00  0.00    +0.000 A 
ATOM      7  C   UNL     1       4.930   6.387  16.623  0.00  0.00    +0.000 A 
ATOM      8  H   UNL     1       1.462   7.375  19.372  0.00  0.00    +0.000 HD
ENDROOT
BRANCH   1  15
ATOM      9  C   UNL     1       1.267   2.427  21.726  0.00  0.00    +0.000 C 
ATOM     10  C   UNL     1       1.172   2.487  20.222  0.00  0.00    +0.000 C 
ATOM     11  O   UNL     1       0.160   2.059  19.666  0.00  0.00    +0.000 OA
ATOM     12  N   UNL     1       2.252   3.024  19.517  0.00  0.00    +0.000 N 
ATOM     13  C   UNL     1       2.014   3.300  18.101  0.00  0.00    +0.000 C 
ATOM     14  C   UNL     1       3.291   3.277  17.271  0.00  0.00    +0.000 C 
ATOM     15  C   UNL     1       4.414   4.160  17.836  0.00  0.00    +0.000 C 
ATOM     16  C   UNL     1       4.613   3.826  19.326  0.00  0.00    +0.000 C 
ATOM     17  C   UNL     1       3.324   3.791  20.153  0.00  0.00    +0.000 C 
ENDBRANCH   1  15
BRANCH   7  18
ATOM     18  C   UNL     1       5.763   5.878  15.548  0.00  0.00    +0.000 A 
ATOM     19  C   UNL     1       5.430   5.253  14.368  0.00  0.00    +0.000 A 
ATOM     20  C   UNL     1       6.641   4.699  13.916  0.00  0.00    +0.000 A 
ATOM     21  C   UNL     1       6.806   3.665  12.872  0.00  0.00    +0.000 C 
ATOM     22  N   UNL     1       7.675   5.133  14.648  0.00  0.00    +0.000 NA
ATOM     23  O   UNL     1       7.115   5.895  15.670  0.00  0.00    +0.000 OA
ENDBRANCH   7  18
BRANCH   4  24
ATOM     24  C   UNL     1       1.694   9.392  18.848  0.00  0.00    +0.000 C 
BRANCH  24  25
ATOM     25  C   UNL     1       0.964   9.713  20.135  0.00  0.00    +0.000 A 
ATOM     26  C   UNL     1       1.058   8.859  21.234  0.00  0.00    +0.000 A 
ATOM     27  C   UNL     1       0.333   9.151  22.382  0.00  0.00    +0.000 A 
ATOM     28  C   UNL     1      -0.468  10.287  22.408  0.00  0.00    +0.000 A 
ATOM     29  C   UNL     1      -0.504  11.087  21.278  0.00  0.00    +0.000 A 
ATOM     30  N   UNL     1       0.194  10.827  20.151  0.00  0.00    +0.000 NA
ENDBRANCH  24  25
ENDBRANCH   4  24
TORSDOF 4
ENDMDL
MODEL 2
REMARK VINA RESULT:      -7.7      7.767     10.520
REMARK  Name = 
REMARK  6 active torsions:
REMARK  status: ('A' for Active; 'I' for Inactive)
REMARK    1  A    between atoms: C_1  and  C_2
REMARK    2  A    between atoms: C_7  and  C_8
REMARK    3  A    between atoms: N_11  and  C_12
REMARK    4  A    between atoms: C_12  and  C_13
REMARK    5  A    between atoms: C_21  and  C_22
REMARK    6  A    between atoms: C_24  and  C_25
REMARK                            x       y       z     vdW  Elec       q    Type
REMARK                         _______ _______ _______ _____ _____    ______ ____
ROOT
ATOM      1  C   UNL     1       9.475  12.303  20.250  0.00  0.00    +0.000 A 
ATOM      2  N   UNL     1       9.061  11.015  20.101  0.00  0.00    +0.000 NA
ATOM      3  C   UNL     1       8.887  10.517  18.870  0.00  0.00    +0.000 A 
ATOM      4  N   UNL     1       8.727   9.147  18.765  0.00  0.00    +0.000 N 
ATOM      5  N   UNL     1       8.949  11.258  17.765  0.00  0.00    +0.000 NA
ATOM      6  C   UNL     1       9.339  12.533  17.925  0.00  0.00    +0.000 A 
ATOM      7  C   UNL     1       9.691  13.111  19.135  0.00  0.00    +0.000 A 
ATOM      8  H   UNL     1       8.393   8.797  19.654  0.00  0.00    +0.000 HD
ENDROOT
BRANCH   1  15
ATOM      9  C   UNL     1       5.617  15.256  23.825  0.00  0.00    +0.000 C 
ATOM     10  C   UNL     1       6.092  13.826  23.794  0.00  0.00    +0.000 C 
ATOM     11  O   UNL     1       5.432  12.960  24.370  0.00  0.00    +0.000 OA
ATOM     12  N   UNL     1       7.279  13.542  23.114  0.00  0.00    +0.000 N 
ATOM     13  C   UNL     1       7.562  12.126  22.889  0.00  0.00    +0.000 C 
ATOM     14  C   UNL     1       9.050  11.836  22.735  0.00  0.00    +0.000 C 
ATOM     15  C   UNL     1       9.748  12.723  21.693  0.00  0.00    +0.000 C 
ATOM     16  C   UNL     1       9.409  14.197  21.979  0.00  0.00    +0.000 C 
ATOM     17  C   UNL     1       7.920  14.482  22.193  0.00  0.00    +0.000 C 
ENDBRANCH   1  15
BRANCH   7  18
ATOM     18  C   UNL     1      10.453  14.344  19.070  0.00  0.00    +0.000 A 
ATOM     19  C   UNL     1      10.086  15.613  18.679  0.00  0.00    +0.000 A 
ATOM     20  C   UNL     1      11.307  16.288  18.506  0.00  0.00    +0.000 A 
ATOM     21  C   UNL     1      11.516  17.569  17.796  0.00  0.00    +0.000 C 
ATOM     22  N   UNL     1      12.333  15.560  18.963  0.00  0.00    +0.000 NA
ATOM     23  O   UNL     1      11.785  14.335  19.336  0.00  0.00    +0.000 OA
ENDBRANCH   7  18
BRANCH   4  24
ATOM     24  C   UNL     1       7.956   8.741  17.603  0.00  0.00    +0.000 C 
BRANCH  24  25
ATOM     25  C   UNL     1       7.697   7.248  17.608  0.00  0.00    +0.000 A 
ATOM     26  C   UNL     1       7.860   6.505  18.778  0.00  0.00    +0.000 A 
ATOM     27  C   UNL     1       7.668   5.130  18.737  0.00  0.00    +0.000 A 
ATOM     28  C   UNL     1       7.319   4.529  17.535  0.00  0.00    +0.000 A 
ATOM     29  C   UNL     1       7.171   5.336  16.419  0.00  0.00    +0.000 A 
ATOM     30  N   UNL     1       7.348   6.676  16.432  0.00  0.00    +0.000 NA
ENDBRANCH  24  25
ENDBRANCH   4  24
TORSDOF 4
ENDMDL
MODEL 3
REMARK VINA RESULT:      -7.6      1.091      1.476
REMARK  Name = 
REMARK  6 active torsions:
REMARK  status: ('A' for Active; 'I' for Inactive)
REMARK    1  A    between atoms: C_1  and  C_2
REMARK    2  A    between atoms: C_7  and  C_8
REMARK    3  A    between atoms: N_11  and  C_12
REMARK    4  A    between atoms: C_12  and  C_13
REMARK    5  A    between atoms: C_21  and  C_22
REMARK    6  A    between atoms: C_24  and  C_25
REMARK                            x       y       z     vdW  Elec       q    Type
REMARK                         _______ _______ _______ _____ _____    ______ ____
ROOT
ATOM      1  C   UNL     1       4.224   5.617  17.484  0.00  0.00    +0.000 A 
ATOM      2  N   UNL     1       3.241   6.225  18.202  0.00  0.00    +0.000 NA
ATOM      3  C   UNL     1       2.965   7.517  17.980  0.00  0.00    +0.000 A 
ATOM      4  N   UNL     1       1.799   8.013  18.533  0.00  0.00    +0.000 N 
ATOM      5  N   UNL     1       3.704   8.298  17.194  0.00  0.00    +0.000 NA
ATOM      6  C   UNL     1       4.684   7.692  16.505  0.00  0.00    +0.000 A 
ATOM      7  C   UNL     1       4.960   6.334  16.543  0.00  0.00    +0.000 A 
ATOM      8  H   UNL     1       1.545   7.427  19.318  0.00  0.00    +0.000 HD
ENDROOT
BRANCH   1  15
ATOM      9  C   UNL     1       1.295   2.500  21.737  0.00  0.00    +0.000 C 
ATOM     10  C   UNL     1       1.148   2.571  20.238  0.00  0.00    +0.000 C 
ATOM     11  O   UNL     1       0.099   2.189  19.717  0.00  0.00    +0.000 OA
ATOM     12  N   UNL     1       2.223   3.066  19.496  0.00  0.00    +0.000 N 
ATOM     13  C   UNL     1       1.947   3.359  18.091  0.00  0.00    +0.000 C 
ATOM     14  C   UNL     1       3.191   3.286  17.215  0.00  0.00    +0.000 C 
ATOM     15  C   UNL     1       4.370   4.119  17.742  0.00  0.00    +0.000 C 
ATOM     16  C   UNL     1       4.608   3.770  19.223  0.00  0.00    +0.000 C 
ATOM     17  C   UNL     1       3.349   3.784  20.095  0.00  0.00    +0.000 C 
ENDBRANCH   1  15
BRANCH   7  18
ATOM     18  C   UNL     1       5.768   5.804  15.460  0.00  0.00    +0.000 A 
ATOM     19  C   UNL     1       5.409   5.157  14.299  0.00  0.00    +0.000 A 
ATOM     20  C   UNL     1       6.609   4.592  13.832  0.00  0.00    +0.000 A 
ATOM     21  C   UNL     1       6.749   3.538  12.804  0.00  0.00    +0.000 C 
ATOM     22  N   UNL     1       7.659   5.038  14.532  0.00  0.00    +0.000 NA
ATOM     23  O   UNL     1       7.124   5.820  15.552  0.00  0.00    +0.000 OA
ENDBRANCH   7  18
BRANCH   4  24
ATOM     24  C   UNL     1       1.848   9.438  18.807  0.00  0.00    +0.000 C 
BRANCH  24  25
ATOM     25  C   UNL     1       0.461  10.048  18.808  0.00  0.00    +0.000 A 
ATOM     26  C   UNL     1      -0.446   9.743  17.793  0.00  0.00    +0.000 A 
ATOM     27  C   UNL     1      -1.691  10.361  17.791  0.00  0.00    +0.000 A 
ATOM     28  C   UNL     1      -2.001  11.265  18.798  0.00  0.00    +0.000 A 
ATOM     29  C   UNL     1      -1.048  11.511  19.773  0.00  0.00    +0.000 A 
ATOM     30  N   UNL     1       0.168  10.922  19.800  0.00  0.00    +0.000 NA
ENDBRANCH  24  25
ENDBRANCH   4  24
TORSDOF 4
ENDMDL
MODEL 4
REMARK VINA RESULT:      -7.5      4.315     10.342
REMARK  Name = 
REMARK  6 active torsions:
REMARK  status: ('A' for Active; 'I' for Inactive)
REMARK    1  A    between atoms: C_1  and  C_2
REMARK    2  A    between atoms: C_7  and  C_8
REMARK    3  A    between atoms: N_11  and  C_12
REMARK    4  A    between atoms: C_12  and  C_13
REMARK    5  A    between atoms: C_21  and  C_22
REMARK    6  A    between atoms: C_24  and  C_25
REMARK                            x       y       z     vdW  Elec       q    Type
REMARK                         _______ _______ _______ _____ _____    ______ ____
ROOT
ATOM      1  C   UNL     1      -0.844  11.695  20.896  0.00  0.00    +0.000 A 
ATOM      2  N   UNL     1      -0.187  10.676  20.277  0.00  0.00    +0.000 NA
ATOM      3  C   UNL     1       0.194   9.608  20.990  0.00  0.00    +0.000 A 
ATOM      4  N   UNL     1       0.613   8.498  20.280  0.00  0.00    +0.000 N 
ATOM      5  N   UNL     1       0.102   9.543  22.317  0.00  0.00    +0.000 NA
ATOM      6  C   UNL     1      -0.530  10.562  22.920  0.00  0.00    +0.000 A 
ATOM      7  C   UNL     1      -1.098  11.644  22.266  0.00  0.00    +0.000 A 
ATOM      8  H   UNL     1       0.919   8.803  19.364  0.00  0.00    +0.000 HD
ENDROOT
BRANCH   1  15
ATOM      9  C   UNL     1      -3.280  10.858  15.442  0.00  0.00    +0.000 C 
ATOM     10  C   UNL     1      -3.865  11.258  16.773  0.00  0.00    +0.000 C 
ATOM     11  O   UNL     1      -5.078  11.140  16.957  0.00  0.00    +0.000 OA
ATOM     12  N   UNL     1      -2.999  11.757  17.748  0.00  0.00    +0.000 N 
ATOM     13  C   UNL     1      -3.557  11.885  19.093  0.00  0.00    +0.000 C 
ATOM     14  C   UNL     1      -2.858  12.951  19.927  0.00  0.00    +0.000 C 
ATOM     15  C   UNL     1      -1.329  12.802  19.964  0.00  0.00    +0.000 C 
ATOM     16  C   UNL     1      -0.802  12.668  18.523  0.00  0.00    +0.000 C 
ATOM     17  C   UNL     1      -1.542  11.639  17.664  0.00  0.00    +0.000 C 
ENDBRANCH   1  15
BRANCH   7  18
ATOM     18  C   UNL     1      -2.065  12.424  23.017  0.00  0.00    +0.000 A 
ATOM     19  C   UNL     1      -2.045  13.741  23.419  0.00  0.00    +0.000 A 
ATOM     20  C   UNL     1      -3.067  13.824  24.381  0.00  0.00    +0.000 A 
ATOM     21  C   UNL     1      -3.276  14.915  25.358  0.00  0.00    +0.000 C 
ATOM     22  N   UNL     1      -3.799  12.703  24.409  0.00  0.00    +0.000 NA
ATOM     23  O   UNL     1      -3.170  11.825  23.530  0.00  0.00    +0.000 OA
ENDBRANCH   7  18
BRANCH   4  24
ATOM     24  C   UNL     1       1.554   7.665  21.007  0.00  0.00    +0.000 C 
BRANCH  24  25
ATOM     25  C   UNL     1       2.011   6.487  20.171  0.00  0.00    +0.000 A 
ATOM     26  C   UNL     1       1.694   5.183  20.553  0.00  0.00    +0.000 A 
ATOM     27  C   UNL     1       2.173   4.122  19.796  0.00  0.00    +0.000 A 
ATOM     28  C   UNL     1       2.955   4.384  18.678  0.00  0.00    +0.000 A 
ATOM     29  C   UNL     1       3.221   5.706  18.362  0.00  0.00    +0.000 A 
ATOM     30  N   UNL     1       2.765   6.757  19.079  0.00  0.00    +0.000 NA
ENDBRANCH  24  25
ENDBRANCH   4  24
TORSDOF 4
ENDMDL
MODEL 5
REMARK VINA RESULT:      -7.4      4.528      9.973
REMARK  Name = 
REMARK  6 active torsions:
REMARK  status: ('A' for Active; 'I' for Inactive)
REMARK    1  A    between atoms: C_1  and  C_2
REMARK    2  A    between atoms: C_7  and  C_8
REMARK    3  A    between atoms: N_11  and  C_12
REMARK    4  A    between atoms: C_12  and  C_13
REMARK    5  A    between atoms: C_21  and  C_22
REMARK    6  A    between atoms: C_24  and  C_25
REMARK                            x       y       z     vdW  Elec       q    Type
REMARK                         _______ _______ _______ _____ _____    ______ ____
ROOT
ATOM      1  C   UNL     1      -0.305  11.522  20.516  0.00  0.00    +0.000 A 
ATOM      2  N   UNL     1       0.308  10.574  19.755  0.00  0.00    +0.000 NA
ATOM      3  C   UNL     1       0.798   9.474  20.341  0.00  0.00    +0.000 A 
ATOM      4  N   UNL     1       1.167   8.432  19.510  0.00  0.00    +0.000 N 
ATOM      5  N   UNL     1       0.857   9.312  21.662  0.00  0.00    +0.000 NA
ATOM      6  C   UNL     1       0.267  10.263  22.404  0.00  0.00    +0.000 A 
ATOM      7  C   UNL     1      -0.402  11.366  21.898  0.00  0.00    +0.000 A 
ATOM      8  H   UNL     1       1.359   8.811  18.591  0.00  0.00    +0.000 HD
ENDROOT
BRANCH   1  15
ATOM      9  C   UNL     1      -3.673  10.942  15.546  0.00  0.00    +0.000 C 
ATOM     10  C   UNL     1      -4.008  11.294  16.973  0.00  0.00    +0.000 C 
ATOM     11  O   UNL     1      -5.172  11.184  17.362  0.00  0.00    +0.000 OA
ATOM     12  N   UNL     1      -2.975  11.741  17.800  0.00  0.00    +0.000 N 
ATOM     13  C   UNL     1      -3.287  11.821  19.225  0.00  0.00    +0.000 C 
ATOM     14  C   UNL     1      -2.431  12.843  19.963  0.00  0.00    +0.000 C 
ATOM     15  C   UNL     1      -0.923  12.673  19.726  0.00  0.00    +0.000 C 
ATOM     16  C   UNL     1      -0.659  12.592  18.211  0.00  0.00    +0.000 C 
ATOM     17  C   UNL     1      -1.558  11.608  17.456  0.00  0.00    +0.000 C 
ENDBRANCH   1  15
BRANCH   7  18
ATOM     18  C   UNL     1      -1.301  12.056  22.805  0.00  0.00    +0.000 A 
ATOM     19  C   UNL     1      -2.512  11.674  23.339  0.00  0.00    +0.000 A 
ATOM     20  C   UNL     1      -3.053  12.866  23.853  0.00  0.00    +0.000 A 
ATOM     21  C   UNL     1      -4.458  13.099  24.251  0.00  0.00    +0.000 C 
ATOM     22  N   UNL     1      -2.153  13.857  23.831  0.00  0.00    +0.000 NA
ATOM     23  O   UNL     1      -1.038  13.334  23.182  0.00  0.00    +0.000 OA
ENDBRANCH   7  18
BRANCH   4  24
ATOM     24  C   UNL     1       2.208   7.586  20.066  0.00  0.00    +0.000 C 
BRANCH  24  25
ATOM     25  C   UNL     1       2.027   6.141  19.649  0.00  0.00    +0.000 A 
ATOM     26  C   UNL     1       2.289   5.745  18.337  0.00  0.00    +0.000 A 
ATOM     27  C   UNL     1       2.061   4.425  17.971  0.00  0.00    +0.000 A 
ATOM     28  C   UNL     1       1.577   3.532  18.919  0.00  0.00    +0.000 A 
ATOM     29  C   UNL     1       1.345   4.001  20.201  0.00  0.00    +0.000 A 
ATOM     30  N   UNL     1       1.563   5.279  20.584  0.00  0.00    +0.000 NA
ENDBRANCH  24  25
ENDBRANCH   4  24
TORSDOF 4
ENDMDL
MODEL 6
REMARK VINA RESULT:      -7.4      1.200      1.422
REMARK  Name = 
REMARK  6 active torsions:
REMARK  status: ('A' for Active; 'I' for Inactive)
REMARK    1  A    between atoms: C_1  and  C_2
REMARK    2  A    between atoms: C_7  and  C_8
REMARK    3  A    between atoms: N_11  and  C_12
REMARK    4  A    between atoms: C_12  and  C_13
REMARK    5  A    between atoms: C_21  and  C_22
REMARK    6  A    between atoms: C_24  and  C_25
REMARK                            x       y       z     vdW  Elec       q    Type
REMARK                         _______ _______ _______ _____ _____    ______ ____
ROOT
ATOM      1  C   UNL     1       3.149   5.821  17.536  0.00  0.00    +0.000 A 
ATOM      2  N   UNL     1       2.152   6.579  18.071  0.00  0.00    +0.000 NA
ATOM      3  C   UNL     1       2.303   7.908  18.145  0.00  0.00    +0.000 A 
ATOM      4  N   UNL     1       1.175   8.650  18.444  0.00  0.00    +0.000 N 
ATOM      5  N   UNL     1       3.445   8.532  17.863  0.00  0.00    +0.000 NA
ATOM      6  C   UNL     1       4.428   7.773  17.355  0.00  0.00    +0.000 A 
ATOM      7  C   UNL     1       4.330   6.415  17.093  0.00  0.00    +0.000 A 
ATOM      8  H   UNL     1       0.516   8.049  18.923  0.00  0.00    +0.000 HD
ENDROOT
BRANCH   1  15
ATOM      9  C   UNL     1       4.664   1.520  21.484  0.00  0.00    +0.000 C 
ATOM     10  C   UNL     1       3.354   2.189  21.153  0.00  0.00    +0.000 C 
ATOM     11  O   UNL     1       2.427   2.128  21.962  0.00  0.00    +0.000 OA
ATOM     12  N   UNL     1       3.245   2.850  19.927  0.00  0.00    +0.000 N 
ATOM     13  C   UNL     1       2.064   3.695  19.762  0.00  0.00    +0.000 C 
ATOM     14  C   UNL     1       1.665   3.876  18.303  0.00  0.00    +0.000 C 
ATOM     15  C   UNL     1       2.818   4.337  17.398  0.00  0.00    +0.000 C 
ATOM     16  C   UNL     1       4.030   3.413  17.620  0.00  0.00    +0.000 C 
ATOM     17  C   UNL     1       4.398   3.182  19.089  0.00  0.00    +0.000 C 
ENDBRANCH   1  15
BRANCH   7  18
ATOM     18  C   UNL     1       5.321   5.851  16.195  0.00  0.00    +0.000 A 
ATOM     19  C   UNL     1       5.254   5.548  14.853  0.00  0.00    +0.000 A 
ATOM     20  C   UNL     1       6.376   4.730  14.627  0.00  0.00    +0.000 A 
ATOM     21  C   UNL     1       6.620   3.870  13.449  0.00  0.00    +0.000 C 
ATOM     22  N   UNL     1       7.184   4.712  15.694  0.00  0.00    +0.000 NA
ATOM     23  O   UNL     1       6.520   5.438  16.679  0.00  0.00    +0.000 OA
ENDBRANCH   7  18
BRANCH   4  24
ATOM     24  C   UNL     1       1.468   9.909  19.105  0.00  0.00    +0.000 C 
BRANCH  24  25
ATOM     25  C   UNL     1       0.735  10.022  20.427  0.00  0.00    +0.000 A 
ATOM     26  C   UNL     1       0.483   8.885  21.195  0.00  0.00    +0.000 A 
ATOM     27  C   UNL     1      -0.239   9.013  22.375  0.00  0.00    +0.000 A 
ATOM     28  C   UNL     1      -0.692  10.269  22.760  0.00  0.00    +0.000 A 
ATOM     29  C   UNL     1      -0.396  11.349  21.945  0.00  0.00    +0.000 A 
ATOM     30  N   UNL     1       0.307  11.252  20.795  0.00  0.00    +0.000 NA
ENDBRANCH  24  25
ENDBRANCH   4  24
TORSDOF 4
ENDMDL
MODEL 7
REMARK VINA RESULT:      -7.3      1.374      1.646
REMARK  Name = 
REMARK  6 active torsions:
REMARK  status: ('A' for Active; 'I' for Inactive)
REMARK    1  A    between atoms: C_1  and  C_2
REMARK    2  A    between atoms: C_7  and  C_8
REMARK    3  A    between atoms: N_11  and  C_12
REMARK    4  A    between atoms: C_12  and  C_13
REMARK    5  A    between atoms: C_21  and  C_22
REMARK    6  A    between atoms: C_24  and  C_25
REMARK                            x       y       z     vdW  Elec       q    Type
REMARK                         _______ _______ _______ _____ _____    ______ ____
ROOT
ATOM      1  C   UNL     1       4.472   5.251  17.251  0.00  0.00    +0.000 A 
ATOM      2  N   UNL     1       3.612   6.008  17.986  0.00  0.00    +0.000 NA
ATOM      3  C   UNL     1       3.313   7.248  17.578  0.00  0.00    +0.000 A 
ATOM      4  N   UNL     1       2.246   7.872  18.200  0.00  0.00    +0.000 N 
ATOM      5  N   UNL     1       3.927   7.853  16.563  0.00  0.00    +0.000 NA
ATOM      6  C   UNL     1       4.788   7.104  15.857  0.00  0.00    +0.000 A 
ATOM      7  C   UNL     1       5.060   5.766  16.097  0.00  0.00    +0.000 A 
ATOM      8  H   UNL     1       2.111   7.442  19.106  0.00  0.00    +0.000 HD
ENDROOT
BRANCH   1  15
ATOM      9  C   UNL     1       1.262   2.662  21.653  0.00  0.00    +0.000 C 
ATOM     10  C   UNL     1       1.259   2.499  20.154  0.00  0.00    +0.000 C 
ATOM     11  O   UNL     1       0.281   1.989  19.606  0.00  0.00    +0.000 OA
ATOM     12  N   UNL     1       2.382   2.932  19.444  0.00  0.00    +0.000 N 
ATOM     13  C   UNL     1       2.233   2.995  17.992  0.00  0.00    +0.000 C 
ATOM     14  C   UNL     1       3.558   2.855  17.253  0.00  0.00    +0.000 C 
ATOM     15  C   UNL     1       4.648   3.818  17.750  0.00  0.00    +0.000 C 
ATOM     16  C   UNL     1       4.754   3.709  19.282  0.00  0.00    +0.000 C 
ATOM     17  C   UNL     1       3.417   3.789  20.024  0.00  0.00    +0.000 C 
ENDBRANCH   1  15
BRANCH   7  18
ATOM     18  C   UNL     1       5.692   5.027  15.020  0.00  0.00    +0.000 A 
ATOM     19  C   UNL     1       6.911   5.195  14.403  0.00  0.00    +0.000 A 
ATOM     20  C   UNL     1       6.819   4.417  13.235  0.00  0.00    +0.000 A 
ATOM     21  C   UNL     1       7.711   4.480  12.057  0.00  0.00    +0.000 C 
ATOM     22  N   UNL     1       5.714   3.660  13.243  0.00  0.00    +0.000 NA
ATOM     23  O   UNL     1       5.011   4.037  14.384  0.00  0.00    +0.000 OA
ENDBRANCH   7  18
BRANCH   4  24
ATOM     24  C   UNL     1       2.343   9.321  18.203  0.00  0.00    +0.000 C 
BRANCH  24  25
ATOM     25  C   UNL     1       1.043   9.960  18.646  0.00  0.00    +0.000 A 
ATOM     26  C   UNL     1      -0.119   9.796  17.892  0.00  0.00    +0.000 A 
ATOM     27  C   UNL     1      -1.282  10.440  18.294  0.00  0.00    +0.000 A 
ATOM     28  C   UNL     1      -1.260  11.230  19.437  0.00  0.00    +0.000 A 
ATOM     29  C   UNL     1      -0.068  11.338  20.134  0.00  0.00    +0.000 A 
ATOM     30  N   UNL     1       1.076  10.720  19.766  0.00  0.00    +0.000 NA
ENDBRANCH  24  25
ENDBRANCH   4  24
TORSDOF 4
ENDMDL
MODEL 8
REMARK VINA RESULT:      -7.3      4.438      9.723
REMARK  Name = 
REMARK  6 active torsions:
REMARK  status: ('A' for Active; 'I' for Inactive)
REMARK    1  A    between atoms: C_1  and  C_2
REMARK    2  A    between atoms: C_7  and  C_8
REMARK    3  A    between atoms: N_11  and  C_12
REMARK    4  A    between atoms: C_12  and  C_13
REMARK    5  A    between atoms: C_21  and  C_22
REMARK    6  A    between atoms: C_24  and  C_25
REMARK                            x       y       z     vdW  Elec       q    Type
REMARK                         _______ _______ _______ _____ _____    ______ ____
ROOT
ATOM      1  C   UNL     1       0.093  11.239  20.353  0.00  0.00    +0.000 A 
ATOM      2  N   UNL     1       0.651  10.302  19.538  0.00  0.00    +0.000 NA
ATOM      3  C   UNL     1       1.110   9.160  20.066  0.00  0.00    +0.000 A 
ATOM      4  N   UNL     1       1.419   8.142  19.182  0.00  0.00    +0.000 N 
ATOM      5  N   UNL     1       1.194   8.940  21.376  0.00  0.00    +0.000 NA
ATOM      6  C   UNL     1       0.659   9.880  22.172  0.00  0.00    +0.000 A 
ATOM      7  C   UNL     1       0.022  11.029  21.729  0.00  0.00    +0.000 A 
ATOM      8  H   UNL     1       1.604   8.553  18.276  0.00  0.00    +0.000 HD
ENDROOT
BRANCH   1  15
ATOM      9  C   UNL     1      -4.071  11.007  15.995  0.00  0.00    +0.000 C 
ATOM     10  C   UNL     1      -4.128  11.422  17.444  0.00  0.00    +0.000 C 
ATOM     11  O   UNL     1      -5.219  11.467  18.014  0.00  0.00    +0.000 OA
ATOM     12  N   UNL     1      -2.929  11.749  18.081  0.00  0.00    +0.000 N 
ATOM     13  C   UNL     1      -2.998  11.892  19.534  0.00  0.00    +0.000 C 
ATOM     14  C   UNL     1      -1.917  12.809  20.092  0.00  0.00    +0.000 C 
ATOM     15  C   UNL     1      -0.498  12.446  19.628  0.00  0.00    +0.000 C 
ATOM     16  C   UNL     1      -0.491  12.307  18.094  0.00  0.00    +0.000 C 
ATOM     17  C   UNL     1      -1.613  11.432  17.526  0.00  0.00    +0.000 C 
ENDBRANCH   1  15
BRANCH   7  18
ATOM     18  C   UNL     1      -0.828  11.712  22.687  0.00  0.00    +0.000 A 
ATOM     19  C   UNL     1      -2.080  11.399  23.167  0.00  0.00    +0.000 A 
ATOM     20  C   UNL     1      -2.519  12.583  23.786  0.00  0.00    +0.000 A 
ATOM     21  C   UNL     1      -3.904  12.910  24.187  0.00  0.00    +0.000 C 
ATOM     22  N   UNL     1      -1.530  13.482  23.869  0.00  0.00    +0.000 NA
ATOM     23  O   UNL     1      -0.455  12.919  23.187  0.00  0.00    +0.000 OA
ENDBRANCH   7  18
BRANCH   4  24
ATOM     24  C   UNL     1       2.439   7.234  19.677  0.00  0.00    +0.000 C 
BRANCH  24  25
ATOM     25  C   UNL     1       2.014   5.788  19.518  0.00  0.00    +0.000 A 
ATOM     26  C   UNL     1       1.504   5.077  20.605  0.00  0.00    +0.000 A 
ATOM     27  C   UNL     1       1.175   3.737  20.442  0.00  0.00    +0.000 A 
ATOM     28  C   UNL     1       1.362   3.139  19.202  0.00  0.00    +0.000 A 
ATOM     29  C   UNL     1       1.869   3.913  18.172  0.00  0.00    +0.000 A 
ATOM     30  N   UNL     1       2.193   5.219  18.303  0.00  0.00    +0.000 NA
ENDBRANCH  24  25
ENDBRANCH   4  24
TORSDOF 4
ENDMDL
MODEL 9
REMARK VINA RESULT:      -7.2      4.106     10.087
REMARK  Name = 
REMARK  6 active torsions:
REMARK  status: ('A' for Active; 'I' for Inactive)
REMARK    1  A    between atoms: C_1  and  C_2
REMARK    2  A    between atoms: C_7  and  C_8
REMARK    3  A    between atoms: N_11  and  C_12
REMARK    4  A    between atoms: C_12  and  C_13
REMARK    5  A    between atoms: C_21  and  C_22
REMARK    6  A    between atoms: C_24  and  C_25
REMARK                            x       y       z     vdW  Elec       q    Type
REMARK                         _______ _______ _______ _____ _____    ______ ____
ROOT
ATOM      1  C   UNL     1       0.250  11.376  20.330  0.00  0.00    +0.000 A 
ATOM      2  N   UNL     1       1.033  10.449  19.714  0.00  0.00    +0.000 NA
ATOM      3  C   UNL     1       1.123   9.215  20.228  0.00  0.00    +0.000 A 
ATOM      4  N   UNL     1       1.707   8.246  19.433  0.00  0.00    +0.000 N 
ATOM      5  N   UNL     1       0.604   8.874  21.406  0.00  0.00    +0.000 NA
ATOM      6  C   UNL     1      -0.150   9.802  22.016  0.00  0.00    +0.000 A 
ATOM      7  C   UNL     1      -0.434  11.058  21.502  0.00  0.00    +0.000 A 
ATOM      8  H   UNL     1       2.303   8.707  18.757  0.00  0.00    +0.000 HD
ENDROOT
BRANCH   1  15
ATOM      9  C   UNL     1       4.538  15.611  20.069  0.00  0.00    +0.000 C 
ATOM     10  C   UNL     1       4.017  14.619  19.060  0.00  0.00    +0.000 C 
ATOM     11  O   UNL     1       4.704  14.347  18.074  0.00  0.00    +0.000 OA
ATOM     12  N   UNL     1       2.760  14.052  19.284  0.00  0.00    +0.000 N 
ATOM     13  C   UNL     1       2.410  12.918  18.431  0.00  0.00    +0.000 C 
ATOM     14  C   UNL     1       0.906  12.744  18.263  0.00  0.00    +0.000 C 
ATOM     15  C   UNL     1       0.135  12.708  19.592  0.00  0.00    +0.000 C 
ATOM     16  C   UNL     1       0.548  13.922  20.445  0.00  0.00    +0.000 C 
ATOM     17  C   UNL     1       2.060  14.135  20.567  0.00  0.00    +0.000 C 
ENDBRANCH   1  15
BRANCH   7  18
ATOM     18  C   UNL     1      -1.562  11.761  22.087  0.00  0.00    +0.000 A 
ATOM     19  C   UNL     1      -1.890  12.004  23.402  0.00  0.00    +0.000 A 
ATOM     20  C   UNL     1      -3.234  12.415  23.353  0.00  0.00    +0.000 A 
ATOM     21  C   UNL     1      -4.175  12.499  24.490  0.00  0.00    +0.000 C 
ATOM     22  N   UNL     1      -3.633  12.617  22.091  0.00  0.00    +0.000 NA
ATOM     23  O   UNL     1      -2.564  12.217  21.293  0.00  0.00    +0.000 OA
ENDBRANCH   7  18
BRANCH   4  24
ATOM     24  C   UNL     1       2.330   7.174  20.189  0.00  0.00    +0.000 C 
BRANCH  24  25
ATOM     25  C   UNL     1       1.992   5.818  19.604  0.00  0.00    +0.000 A 
ATOM     26  C   UNL     1       2.222   5.553  18.254  0.00  0.00    +0.000 A 
ATOM     27  C   UNL     1       1.851   4.319  17.735  0.00  0.00    +0.000 A 
ATOM     28  C   UNL     1       1.261   3.380  18.572  0.00  0.00    +0.000 A 
ATOM     29  C   UNL     1       1.070   3.718  19.902  0.00  0.00    +0.000 A 
ATOM     30  N   UNL     1       1.426   4.910  20.432  0.00  0.00    +0.000 NA
ENDBRANCH  24  25
ENDBRANCH   4  24
TORSDOF 4
ENDMDL
