MODEL 1
REMARK VINA RESULT:      -5.1      0.000      0.000
REMARK  Name = 
REMARK  19 active torsions:
REMARK  status: ('A' for Active; 'I' for Inactive)
REMARK    1  A    between atoms: C_1  and  C_2
REMARK    2  A    between atoms: N_4  and  C_5
REMARK    3  A    between atoms: C_5  and  C_6
REMARK    4  A    between atoms: C_6  and  S_7
REMARK    5  A    between atoms: S_7  and  C_8
REMARK    6  A    between atoms: C_8  and  C_9
REMARK    7  A    between atoms: N_11  and  C_12
REMARK    8  A    between atoms: C_12  and  C_13
REMARK    9  A    between atoms: C_13  and  C_14
REMARK   10  A    between atoms: C_14  and  N_15
REMARK   11  A    between atoms: N_15  and  C_16
REMARK   12  A    between atoms: C_16  and  C_17
REMARK   13  A    between atoms: C_17  and  C_18
REMARK   14  A    between atoms: C_18  and  C_19
REMARK   15  A    between atoms: C_19  and  N_20
REMARK   16  A    between atoms: N_20  and  C_21
REMARK   17  A    between atoms: C_21  and  C_22
REMARK   18  A    between atoms: C_22  and  C_23
REMARK   19  A    between atoms: C_23  and  N_24
REMARK                            x       y       z     vdW  Elec       q    Type
REMARK                         _______ _______ _______ _____ _____    ______ ____
ROOT
ATOM      1  C   UNL     1       1.867   8.195  18.704  0.00  0.00    +0.000 C 
ENDROOT
BRANCH   1   2
ATOM      2  C   UNL     1       2.395   7.345  17.537  0.00  0.00    +0.000 C 
BRANCH   2   5
ATOM      3  C   UNL     1       4.623   6.348  17.263  0.00  0.00    +0.000 C 
ATOM      4  O   UNL     1       4.120   5.234  17.256  0.00  0.00    +0.000 OA
ATOM      5  N   UNL     1       3.838   7.455  17.392  0.00  0.00    +0.000 N 
ATOM      6  H   UNL     1       4.280   8.388  17.394  0.00  0.00    +0.000 HD
BRANCH   3   7
ATOM      7  C   UNL     1       6.123   6.473  17.128  0.00  0.00    +0.000 C 
BRANCH   7   8
ATOM      8  S   UNL     1       6.819   4.861  16.622  0.00  0.00    +0.000 S 
BRANCH   8   9
ATOM      9  C   UNL     1       6.774   5.114  14.806  0.00  0.00    +0.000 C 
BRANCH   9  10
ATOM     10  C   UNL     1       5.734   4.143  14.225  0.00  0.00    +0.000 C 
BRANCH  10  14
ATOM     11  C   UNL     1       6.339   1.882  11.183  0.00  0.00    +0.000 C 
ATOM     12  C   UNL     1       5.726   2.886  12.118  0.00  0.00    +0.000 C 
ATOM     13  O   UNL     1       4.689   3.444  11.791  0.00  0.00    +0.000 OA
ATOM     14  N   UNL     1       6.318   3.173  13.315  0.00  0.00    +0.000 N 
ATOM     15  H   UNL     1       7.195   2.694  13.569  0.00  0.00    +0.000 HD
ENDBRANCH  10  14
ENDBRANCH   9  10
ENDBRANCH   8   9
ENDBRANCH   7   8
ENDBRANCH   3   7
ENDBRANCH   2   5
ENDBRANCH   1   2
BRANCH   1  16
ATOM     16  C   UNL     1       2.349   7.648  20.056  0.00  0.00    +0.000 C 
BRANCH  16  17
ATOM     17  N   UNL     1       2.520   6.192  19.995  0.00  0.00    +0.000 NA
ATOM     18  H   UNL     1       3.520   5.961  20.209  0.00  0.00    +0.000 HD
BRANCH  17  19
ATOM     19  C   UNL     1       1.660   5.524  20.975  0.00  0.00    +0.000 C 
BRANCH  19  20
ATOM     20  C   UNL     1       1.481   4.053  20.595  0.00  0.00    +0.000 C 
BRANCH  20  21
ATOM     21  C   UNL     1       1.428   3.886  19.074  0.00  0.00    +0.000 C 
BRANCH  21  22
ATOM     22  C   UNL     1       0.718   2.586  18.698  0.00  0.00    +0.000 C 
BRANCH  22  23
ATOM     23  N   UNL     1       1.590   1.763  17.855  0.00  0.00    +0.000 NA
ATOM     24  H   UNL     1       1.296   1.881  16.855  0.00  0.00    +0.000 HD
BRANCH  23  25
ATOM     25  C   UNL     1       2.980   2.206  17.987  0.00  0.00    +0.000 C 
BRANCH  25  26
ATOM     26  C   UNL     1       3.784   1.195  18.812  0.00  0.00    +0.000 C 
BRANCH  26  27
ATOM     27  C   UNL     1       4.614   1.894  19.895  0.00  0.00    +0.000 C 
BRANCH  27  28
ATOM     28  N   UNL     1       5.067   3.205  19.437  0.00  0.00    +0.000 NA
ATOM     29  H   UNL     1       5.779   3.578  20.106  0.00  0.00    +0.000 HD
ATOM     30  H   UNL     1       4.251   3.859  19.430  0.00  0.00    +0.000 HD
ENDBRANCH  27  28
ENDBRANCH  26  27
ENDBRANCH  25  26
ENDBRANCH  23  25
ENDBRANCH  22  23
ENDBRANCH  21  22
ENDBRANCH  20  21
ENDBRANCH  19  20
ENDBRANCH  17  19
ENDBRANCH  16  17
ENDBRANCH   1  16
TORSDOF 18
ENDMDL
MODEL 2
REMARK VINA RESULT:      -5.0      4.108      7.235
REMARK  Name = 
REMARK  19 active torsions:
REMARK  status: ('A' for Active; 'I' for Inactive)
REMARK    1  A    between atoms: C_1  and  C_2
REMARK    2  A    between atoms: N_4  and  C_5
REMARK    3  A    between atoms: C_5  and  C_6
REMARK    4  A    between atoms: C_6  and  S_7
REMARK    5  A    between atoms: S_7  and  C_8
REMARK    6  A    between atoms: C_8  and  C_9
REMARK    7  A    between atoms: N_11  and  C_12
REMARK    8  A    between atoms: C_12  and  C_13
REMARK    9  A    between atoms: C_13  and  C_14
REMARK   10  A    between atoms: C_14  and  N_15
REMARK   11  A    between atoms: N_15  and  C_16
REMARK   12  A    between atoms: C_16  and  C_17
REMARK   13  A    between atoms: C_17  and  C_18
REMARK   14  A    between atoms: C_18  and  C_19
REMARK   15  A    between atoms: C_19  and  N_20
REMARK   16  A    between atoms: N_20  and  C_21
REMARK   17  A    between atoms: C_21  and  C_22
REMARK   18  A    between atoms: C_22  and  C_23
REMARK   19  A    between atoms: C_23  and  N_24
REMARK                            x       y       z     vdW  Elec       q    Type
REMARK                         _______ _______ _______ _____ _____    ______ ____
ROOT
ATOM      1  C   UNL     1       1.839   5.294  17.837  0.00  0.00    +0.000 C 
ENDROOT
BRANCH   1   2
ATOM      2  C   UNL     1       2.617   6.435  18.511  0.00  0.00    +0.000 C 
BRANCH   2   5
ATOM      3  C   UNL     1       1.643   8.653  18.917  0.00  0.00    +0.000 C 
ATOM      4  O   UNL     1       1.540   8.387  20.105  0.00  0.00    +0.000 OA
ATOM      5  N   UNL     1       2.174   7.743  18.053  0.00  0.00    +0.000 N 
ATOM      6  H   UNL     1       2.255   7.985  17.053  0.00  0.00    +0.000 HD
BRANCH   3   7
ATOM      7  C   UNL     1       1.172  10.004  18.427  0.00  0.00    +0.000 C 
BRANCH   7   8
ATOM      8  S   UNL     1      -0.111  10.641  19.561  0.00  0.00    +0.000 S 
BRANCH   8   9
ATOM      9  C   UNL     1      -0.600  12.122  18.597  0.00  0.00    +0.000 C 
BRANCH   9  10
ATOM     10  C   UNL     1      -2.051  11.919  18.133  0.00  0.00    +0.000 C 
BRANCH  10  14
ATOM     11  C   UNL     1      -2.834  10.115  14.836  0.00  0.00    +0.000 C 
ATOM     12  C   UNL     1      -2.736  10.438  16.300  0.00  0.00    +0.000 C 
ATOM     13  O   UNL     1      -3.191   9.647  17.112  0.00  0.00    +0.000 OA
ATOM     14  N   UNL     1      -2.149  11.598  16.719  0.00  0.00    +0.000 N 
ATOM     15  H   UNL     1      -1.775  12.253  16.016  0.00  0.00    +0.000 HD
ENDBRANCH  10  14
ENDBRANCH   9  10
ENDBRANCH   8   9
ENDBRANCH   7   8
ENDBRANCH   3   7
ENDBRANCH   2   5
ENDBRANCH   1   2
BRANCH   1  16
ATOM     16  C   UNL     1       1.278   4.310  18.876  0.00  0.00    +0.000 C 
BRANCH  16  17
ATOM     17  N   UNL     1       1.074   2.986  18.278  0.00  0.00    +0.000 NA
ATOM     18  H   UNL     1       1.387   3.017  17.278  0.00  0.00    +0.000 HD
BRANCH  17  19
ATOM     19  C   UNL     1       1.854   1.968  18.987  0.00  0.00    +0.000 C 
BRANCH  19  20
ATOM     20  C   UNL     1       3.311   2.011  18.523  0.00  0.00    +0.000 C 
BRANCH  20  21
ATOM     21  C   UNL     1       4.241   2.379  19.682  0.00  0.00    +0.000 C 
BRANCH  21  22
ATOM     22  C   UNL     1       4.797   3.791  19.502  0.00  0.00    +0.000 C 
BRANCH  22  23
ATOM     23  N   UNL     1       6.051   3.745  18.746  0.00  0.00    +0.000 NA
ATOM     24  H   UNL     1       6.136   2.800  18.297  0.00  0.00    +0.000 HD
BRANCH  23  25
ATOM     25  C   UNL     1       6.039   4.762  17.690  0.00  0.00    +0.000 C 
BRANCH  25  26
ATOM     26  C   UNL     1       7.300   4.649  16.828  0.00  0.00    +0.000 C 
BRANCH  26  27
ATOM     27  C   UNL     1       6.948   4.400  15.357  0.00  0.00    +0.000 C 
BRANCH  27  28
ATOM     28  N   UNL     1       7.469   5.470  14.510  0.00  0.00    +0.000 NA
ATOM     29  H   UNL     1       8.433   5.724  14.827  0.00  0.00    +0.000 HD
ATOM     30  H   UNL     1       6.858   6.311  14.617  0.00  0.00    +0.000 HD
ENDBRANCH  27  28
ENDBRANCH  26  27
ENDBRANCH  25  26
ENDBRANCH  23  25
ENDBRANCH  22  23
ENDBRANCH  21  22
ENDBRANCH  20  21
ENDBRANCH  19  20
ENDBRANCH  17  19
ENDBRANCH  16  17
ENDBRANCH   1  16
TORSDOF 18
ENDMDL
MODEL 3
REMARK VINA RESULT:      -5.0      2.535      5.596
REMARK  Name = 
REMARK  19 active torsions:
REMARK  status: ('A' for Active; 'I' for Inactive)
REMARK    1  A    between atoms: C_1  and  C_2
REMARK    2  A    between atoms: N_4  and  C_5
REMARK    3  A    between atoms: C_5  and  C_6
REMARK    4  A    between atoms: C_6  and  S_7
REMARK    5  A    between atoms: S_7  and  C_8
REMARK    6  A    between atoms: C_8  and  C_9
REMARK    7  A    between atoms: N_11  and  C_12
REMARK    8  A    between atoms: C_12  and  C_13
REMARK    9  A    between atoms: C_13  and  C_14
REMARK   10  A    between atoms: C_14  and  N_15
REMARK   11  A    between atoms: N_15  and  C_16
REMARK   12  A    between atoms: C_16  and  C_17
REMARK   13  A    between atoms: C_17  and  C_18
REMARK   14  A    between atoms: C_18  and  C_19
REMARK   15  A    between atoms: C_19  and  N_20
REMARK   16  A    between atoms: N_20  and  C_21
REMARK   17  A    between atoms: C_21  and  C_22
REMARK   18  A    between atoms: C_22  and  C_23
REMARK   19  A    between atoms: C_23  and  N_24
REMARK                            x       y       z     vdW  Elec       q    Type
REMARK                         _______ _______ _______ _____ _____    ______ ____
ROOT
ATOM      1  C   UNL     1       3.379   2.294  18.711  0.00  0.00    +0.000 C 
ENDROOT
BRANCH   1   2
ATOM      2  C   UNL     1       4.392   2.903  19.694  0.00  0.00    +0.000 C 
BRANCH   2   5
ATOM      3  C   UNL     1       5.986   4.665  19.071  0.00  0.00    +0.000 C 
ATOM      4  O   UNL     1       5.325   5.481  19.697  0.00  0.00    +0.000 OA
ATOM      5  N   UNL     1       5.598   3.360  19.022  0.00  0.00    +0.000 N 
ATOM      6  H   UNL     1       6.170   2.684  18.489  0.00  0.00    +0.000 HD
BRANCH   3   7
ATOM      7  C   UNL     1       7.234   5.131  18.356  0.00  0.00    +0.000 C 
BRANCH   7   8
ATOM      8  S   UNL     1       6.759   6.034  16.841  0.00  0.00    +0.000 S 
BRANCH   8   9
ATOM      9  C   UNL     1       5.935   4.652  15.960  0.00  0.00    +0.000 C 
BRANCH   9  10
ATOM     10  C   UNL     1       6.660   4.456  14.619  0.00  0.00    +0.000 C 
BRANCH  10  14
ATOM     11  C   UNL     1       5.642   2.341  11.581  0.00  0.00    +0.000 C 
ATOM     12  C   UNL     1       6.303   3.380  12.443  0.00  0.00    +0.000 C 
ATOM     13  O   UNL     1       7.097   4.155  11.931  0.00  0.00    +0.000 OA
ATOM     14  N   UNL     1       6.024   3.456  13.777  0.00  0.00    +0.000 N 
ATOM     15  H   UNL     1       5.354   2.789  14.189  0.00  0.00    +0.000 HD
ENDBRANCH  10  14
ENDBRANCH   9  10
ENDBRANCH   8   9
ENDBRANCH   7   8
ENDBRANCH   3   7
ENDBRANCH   2   5
ENDBRANCH   1   2
BRANCH   1  16
ATOM     16  C   UNL     1       2.253   3.285  18.383  0.00  0.00    +0.000 C 
BRANCH  16  17
ATOM     17  N   UNL     1       2.806   4.568  17.933  0.00  0.00    +0.000 NA
ATOM     18  H   UNL     1       2.571   4.700  16.920  0.00  0.00    +0.000 HD
BRANCH  17  19
ATOM     19  C   UNL     1       2.237   5.679  18.700  0.00  0.00    +0.000 C 
BRANCH  19  20
ATOM     20  C   UNL     1       2.304   6.968  17.878  0.00  0.00    +0.000 C 
BRANCH  20  21
ATOM     21  C   UNL     1       2.184   8.198  18.783  0.00  0.00    +0.000 C 
BRANCH  21  22
ATOM     22  C   UNL     1       1.825   9.437  17.965  0.00  0.00    +0.000 C 
BRANCH  22  23
ATOM     23  N   UNL     1       1.221  10.454  18.831  0.00  0.00    +0.000 NA
ATOM     24  H   UNL     1       1.132  11.346  18.286  0.00  0.00    +0.000 HD
BRANCH  23  25
ATOM     25  C   UNL     1      -0.118  10.027  19.247  0.00  0.00    +0.000 C 
BRANCH  25  26
ATOM     26  C   UNL     1      -1.060  11.233  19.326  0.00  0.00    +0.000 C 
BRANCH  26  27
ATOM     27  C   UNL     1      -1.633  11.584  17.949  0.00  0.00    +0.000 C 
BRANCH  27  28
ATOM     28  N   UNL     1      -1.512  10.454  17.032  0.00  0.00    +0.000 NA
ATOM     29  H   UNL     1      -0.525  10.109  17.037  0.00  0.00    +0.000 HD
ATOM     30  H   UNL     1      -1.740  10.778  16.066  0.00  0.00    +0.000 HD
ENDBRANCH  27  28
ENDBRANCH  26  27
ENDBRANCH  25  26
ENDBRANCH  23  25
ENDBRANCH  22  23
ENDBRANCH  21  22
ENDBRANCH  20  21
ENDBRANCH  19  20
ENDBRANCH  17  19
ENDBRANCH  16  17
ENDBRANCH   1  16
TORSDOF 18
ENDMDL
MODEL 4
REMARK VINA RESULT:      -4.9      4.116      7.124
REMARK  Name = 
REMARK  19 active torsions:
REMARK  status: ('A' for Active; 'I' for Inactive)
REMARK    1  A    between atoms: C_1  and  C_2
REMARK    2  A    between atoms: N_4  and  C_5
REMARK    3  A    between atoms: C_5  and  C_6
REMARK    4  A    between atoms: C_6  and  S_7
REMARK    5  A    between atoms: S_7  and  C_8
REMARK    6  A    between atoms: C_8  and  C_9
REMARK    7  A    between atoms: N_11  and  C_12
REMARK    8  A    between atoms: C_12  and  C_13
REMARK    9  A    between atoms: C_13  and  C_14
REMARK   10  A    between atoms: C_14  and  N_15
REMARK   11  A    between atoms: N_15  and  C_16
REMARK   12  A    between atoms: C_16  and  C_17
REMARK   13  A    between atoms: C_17  and  C_18
REMARK   14  A    between atoms: C_18  and  C_19
REMARK   15  A    between atoms: C_19  and  N_20
REMARK   16  A    between atoms: N_20  and  C_21
REMARK   17  A    between atoms: C_21  and  C_22
REMARK   18  A    between atoms: C_22  and  C_23
REMARK   19  A    between atoms: C_23  and  N_24
REMARK                            x       y       z     vdW  Elec       q    Type
REMARK                         _______ _______ _______ _____ _____    ______ ____
ROOT
ATOM      1  C   UNL     1       2.732   4.699  20.223  0.00  0.00    +0.000 C 
ENDROOT
BRANCH   1   2
ATOM      2  C   UNL     1       3.172   6.101  19.773  0.00  0.00    +0.000 C 
BRANCH   2   5
ATOM      3  C   UNL     1       1.905   8.178  19.430  0.00  0.00    +0.000 C 
ATOM      4  O   UNL     1       2.348   8.256  18.293  0.00  0.00    +0.000 OA
ATOM      5  N   UNL     1       2.257   7.134  20.233  0.00  0.00    +0.000 N 
ATOM      6  H   UNL     1       1.872   7.083  21.190  0.00  0.00    +0.000 HD
BRANCH   3   7
ATOM      7  C   UNL     1       0.966   9.254  19.924  0.00  0.00    +0.000 C 
BRANCH   7   8
ATOM      8  S   UNL     1       0.222  10.108  18.491  0.00  0.00    +0.000 S 
BRANCH   8   9
ATOM      9  C   UNL     1      -0.763  11.352  19.410  0.00  0.00    +0.000 C 
BRANCH   9  10
ATOM     10  C   UNL     1      -1.398  12.299  18.379  0.00  0.00    +0.000 C 
BRANCH  10  14
ATOM     11  C   UNL     1      -2.904  10.522  15.328  0.00  0.00    +0.000 C 
ATOM     12  C   UNL     1      -2.752  11.155  16.682  0.00  0.00    +0.000 C 
ATOM     13  O   UNL     1      -3.718  11.193  17.430  0.00  0.00    +0.000 OA
ATOM     14  N   UNL     1      -1.554  11.683  17.072  0.00  0.00    +0.000 N 
ATOM     15  H   UNL     1      -0.754  11.644  16.423  0.00  0.00    +0.000 HD
ENDBRANCH  10  14
ENDBRANCH   9  10
ENDBRANCH   8   9
ENDBRANCH   7   8
ENDBRANCH   3   7
ENDBRANCH   2   5
ENDBRANCH   1   2
BRANCH   1  16
ATOM     16  C   UNL     1       1.216   4.639  20.464  0.00  0.00    +0.000 C 
BRANCH  16  17
ATOM     17  N   UNL     1       0.778   3.254  20.671  0.00  0.00    +0.000 NA
ATOM     18  H   UNL     1      -0.079   3.082  20.093  0.00  0.00    +0.000 HD
BRANCH  17  19
ATOM     19  C   UNL     1       1.822   2.311  20.262  0.00  0.00    +0.000 C 
BRANCH  19  20
ATOM     20  C   UNL     1       1.665   1.971  18.778  0.00  0.00    +0.000 C 
BRANCH  20  21
ATOM     21  C   UNL     1       3.032   1.861  18.097  0.00  0.00    +0.000 C 
BRANCH  21  22
ATOM     22  C   UNL     1       3.271   3.052  17.170  0.00  0.00    +0.000 C 
BRANCH  22  23
ATOM     23  N   UNL     1       4.696   3.395  17.150  0.00  0.00    +0.000 NA
ATOM     24  H   UNL     1       5.209   2.659  16.606  0.00  0.00    +0.000 HD
BRANCH  23  25
ATOM     25  C   UNL     1       4.892   4.687  16.485  0.00  0.00    +0.000 C 
BRANCH  25  26
ATOM     26  C   UNL     1       5.831   5.573  17.310  0.00  0.00    +0.000 C 
BRANCH  26  27
ATOM     27  C   UNL     1       6.842   4.732  18.098  0.00  0.00    +0.000 C 
BRANCH  27  28
ATOM     28  N   UNL     1       7.893   4.227  17.219  0.00  0.00    +0.000 NA
ATOM     29  H   UNL     1       7.938   3.185  17.297  0.00  0.00    +0.000 HD
ATOM     30  H   UNL     1       8.810   4.617  17.532  0.00  0.00    +0.000 HD
ENDBRANCH  27  28
ENDBRANCH  26  27
ENDBRANCH  25  26
ENDBRANCH  23  25
ENDBRANCH  22  23
ENDBRANCH  21  22
ENDBRANCH  20  21
ENDBRANCH  19  20
ENDBRANCH  17  19
ENDBRANCH  16  17
ENDBRANCH   1  16
TORSDOF 18
ENDMDL
MODEL 5
REMARK VINA RESULT:      -4.9      3.663      6.986
REMARK  Name = 
REMARK  19 active torsions:
REMARK  status: ('A' for Active; 'I' for Inactive)
REMARK    1  A    between atoms: C_1  and  C_2
REMARK    2  A    between atoms: N_4  and  C_5
REMARK    3  A    between atoms: C_5  and  C_6
REMARK    4  A    between atoms: C_6  and  S_7
REMARK    5  A    between atoms: S_7  and  C_8
REMARK    6  A    between atoms: C_8  and  C_9
REMARK    7  A    between atoms: N_11  and  C_12
REMARK    8  A    between atoms: C_12  and  C_13
REMARK    9  A    between atoms: C_13  and  C_14
REMARK   10  A    between atoms: C_14  and  N_15
REMARK   11  A    between atoms: N_15  and  C_16
REMARK   12  A    between atoms: C_16  and  C_17
REMARK   13  A    between atoms: C_17  and  C_18
REMARK   14  A    between atoms: C_18  and  C_19
REMARK   15  A    between atoms: C_19  and  N_20
REMARK   16  A    between atoms: N_20  and  C_21
REMARK   17  A    between atoms: C_21  and  C_22
REMARK   18  A    between atoms: C_22  and  C_23
REMARK   19  A    between atoms: C_23  and  N_24
REMARK                            x       y       z     vdW  Elec       q    Type
REMARK                         _______ _______ _______ _____ _____    ______ ____
ROOT
ATOM      1  C   UNL     1       0.998   4.148  20.441  0.00  0.00    +0.000 C 
ENDROOT
BRANCH   1   2
ATOM      2  C   UNL     1       1.876   5.380  20.712  0.00  0.00    +0.000 C 
BRANCH   2   5
ATOM      3  C   UNL     1       2.198   7.457  19.440  0.00  0.00    +0.000 C 
ATOM      4  O   UNL     1       1.919   8.107  20.438  0.00  0.00    +0.000 OA
ATOM      5  N   UNL     1       2.208   6.095  19.490  0.00  0.00    +0.000 N 
ATOM      6  H   UNL     1       2.447   5.562  18.639  0.00  0.00    +0.000 HD
BRANCH   3   7
ATOM      7  C   UNL     1       2.530   8.189  18.160  0.00  0.00    +0.000 C 
BRANCH   7   8
ATOM      8  S   UNL     1       1.780   9.854  18.208  0.00  0.00    +0.000 S 
BRANCH   8   9
ATOM      9  C   UNL     1       0.048   9.372  17.844  0.00  0.00    +0.000 C 
BRANCH   9  10
ATOM     10  C   UNL     1      -0.848  10.579  18.164  0.00  0.00    +0.000 C 
BRANCH  10  14
ATOM     11  C   UNL     1      -3.733  10.878  15.648  0.00  0.00    +0.000 C 
ATOM     12  C   UNL     1      -2.897  10.446  16.821  0.00  0.00    +0.000 C 
ATOM     13  O   UNL     1      -3.341   9.602  17.584  0.00  0.00    +0.000 OA
ATOM     14  N   UNL     1      -1.662  10.989  17.032  0.00  0.00    +0.000 N 
ATOM     15  H   UNL     1      -1.310  11.704  16.377  0.00  0.00    +0.000 HD
ENDBRANCH  10  14
ENDBRANCH   9  10
ENDBRANCH   8   9
ENDBRANCH   7   8
ENDBRANCH   3   7
ENDBRANCH   2   5
ENDBRANCH   1   2
BRANCH   1  16
ATOM     16  C   UNL     1       1.748   2.846  20.759  0.00  0.00    +0.000 C 
BRANCH  16  17
ATOM     17  N   UNL     1       1.862   2.007  19.560  0.00  0.00    +0.000 NA
ATOM     18  H   UNL     1       1.285   1.143  19.699  0.00  0.00    +0.000 HD
BRANCH  17  19
ATOM     19  C   UNL     1       1.371   2.719  18.378  0.00  0.00    +0.000 C 
BRANCH  19  20
ATOM     20  C   UNL     1       2.532   3.002  17.421  0.00  0.00    +0.000 C 
BRANCH  20  21
ATOM     21  C   UNL     1       3.868   2.599  18.051  0.00  0.00    +0.000 C 
BRANCH  21  22
ATOM     22  C   UNL     1       4.658   3.835  18.477  0.00  0.00    +0.000 C 
BRANCH  22  23
ATOM     23  N   UNL     1       4.347   4.961  17.592  0.00  0.00    +0.000 NA
ATOM     24  H   UNL     1       3.912   5.725  18.164  0.00  0.00    +0.000 HD
BRANCH  23  25
ATOM     25  C   UNL     1       5.577   5.477  16.984  0.00  0.00    +0.000 C 
BRANCH  25  26
ATOM     26  C   UNL     1       5.394   5.646  15.473  0.00  0.00    +0.000 C 
BRANCH  26  27
ATOM     27  C   UNL     1       6.232   4.629  14.692  0.00  0.00    +0.000 C 
BRANCH  27  28
ATOM     28  N   UNL     1       6.270   3.345  15.387  0.00  0.00    +0.000 NA
ATOM     29  H   UNL     1       6.703   3.474  16.330  0.00  0.00    +0.000 HD
ATOM     30  H   UNL     1       6.868   2.685  14.841  0.00  0.00    +0.000 HD
ENDBRANCH  27  28
ENDBRANCH  26  27
ENDBRANCH  25  26
ENDBRANCH  23  25
ENDBRANCH  22  23
ENDBRANCH  21  22
ENDBRANCH  20  21
ENDBRANCH  19  20
ENDBRANCH  17  19
ENDBRANCH  16  17
ENDBRANCH   1  16
TORSDOF 18
ENDMDL
MODEL 6
REMARK VINA RESULT:      -4.8      4.336      7.466
REMARK  Name = 
REMARK  19 active torsions:
REMARK  status: ('A' for Active; 'I' for Inactive)
REMARK    1  A    between atoms: C_1  and  C_2
REMARK    2  A    between atoms: N_4  and  C_5
REMARK    3  A    between atoms: C_5  and  C_6
REMARK    4  A    between atoms: C_6  and  S_7
REMARK    5  A    between atoms: S_7  and  C_8
REMARK    6  A    between atoms: C_8  and  C_9
REMARK    7  A    between atoms: N_11  and  C_12
REMARK    8  A    between atoms: C_12  and  C_13
REMARK    9  A    between atoms: C_13  and  C_14
REMARK   10  A    between atoms: C_14  and  N_15
REMARK   11  A    between atoms: N_15  and  C_16
REMARK   12  A    between atoms: C_16  and  C_17
REMARK   13  A    between atoms: C_17  and  C_18
REMARK   14  A    between atoms: C_18  and  C_19
REMARK   15  A    between atoms: C_19  and  N_20
REMARK   16  A    between atoms: N_20  and  C_21
REMARK   17  A    between atoms: C_21  and  C_22
REMARK   18  A    between atoms: C_22  and  C_23
REMARK   19  A    between atoms: C_23  and  N_24
REMARK                            x       y       z     vdW  Elec       q    Type
REMARK                         _______ _______ _______ _____ _____    ______ ____
ROOT
ATOM      1  C   UNL     1       1.510   5.382  20.119  0.00  0.00    +0.000 C 
ENDROOT
BRANCH   1   2
ATOM      2  C   UNL     1       2.627   6.425  19.954  0.00  0.00    +0.000 C 
BRANCH   2   5
ATOM      3  C   UNL     1       2.307   8.311  18.413  0.00  0.00    +0.000 C 
ATOM      4  O   UNL     1       2.933   7.710  17.552  0.00  0.00    +0.000 OA
ATOM      5  N   UNL     1       2.101   7.743  19.635  0.00  0.00    +0.000 N 
ATOM      6  H   UNL     1       1.569   8.264  20.349  0.00  0.00    +0.000 HD
BRANCH   3   7
ATOM      7  C   UNL     1       1.768   9.687  18.097  0.00  0.00    +0.000 C 
BRANCH   7   8
ATOM      8  S   UNL     1       0.445  10.104  19.286  0.00  0.00    +0.000 S 
BRANCH   8   9
ATOM      9  C   UNL     1      -0.881  10.486  18.079  0.00  0.00    +0.000 C 
BRANCH   9  10
ATOM     10  C   UNL     1      -2.036  11.147  18.848  0.00  0.00    +0.000 C 
BRANCH  10  14
ATOM     11  C   UNL     1      -5.179  12.045  16.835  0.00  0.00    +0.000 C 
ATOM     12  C   UNL     1      -4.217  11.326  17.738  0.00  0.00    +0.000 C 
ATOM     13  O   UNL     1      -4.567  10.278  18.261  0.00  0.00    +0.000 OA
ATOM     14  N   UNL     1      -2.972  11.834  17.975  0.00  0.00    +0.000 N 
ATOM     15  H   UNL     1      -2.699  12.722  17.526  0.00  0.00    +0.000 HD
ENDBRANCH  10  14
ENDBRANCH   9  10
ENDBRANCH   8   9
ENDBRANCH   7   8
ENDBRANCH   3   7
ENDBRANCH   2   5
ENDBRANCH   1   2
BRANCH   1  16
ATOM     16  C   UNL     1       1.948   4.235  21.043  0.00  0.00    +0.000 C 
BRANCH  16  17
ATOM     17  N   UNL     1       1.092   3.059  20.850  0.00  0.00    +0.000 NA
ATOM     18  H   UNL     1       0.283   3.120  21.514  0.00  0.00    +0.000 HD
BRANCH  17  19
ATOM     19  C   UNL     1       0.576   3.009  19.479  0.00  0.00    +0.000 C 
BRANCH  19  20
ATOM     20  C   UNL     1       1.292   1.908  18.693  0.00  0.00    +0.000 C 
BRANCH  20  21
ATOM     21  C   UNL     1       2.353   2.505  17.765  0.00  0.00    +0.000 C 
BRANCH  21  22
ATOM     22  C   UNL     1       3.755   2.101  18.217  0.00  0.00    +0.000 C 
BRANCH  22  23
ATOM     23  N   UNL     1       4.682   3.224  18.046  0.00  0.00    +0.000 NA
ATOM     24  H   UNL     1       5.537   2.878  17.547  0.00  0.00    +0.000 HD
BRANCH  23  25
ATOM     25  C   UNL     1       4.058   4.270  17.232  0.00  0.00    +0.000 C 
BRANCH  25  26
ATOM     26  C   UNL     1       5.125   5.038  16.444  0.00  0.00    +0.000 C 
BRANCH  26  27
ATOM     27  C   UNL     1       6.297   4.130  16.060  0.00  0.00    +0.000 C 
BRANCH  27  28
ATOM     28  N   UNL     1       7.450   4.378  16.921  0.00  0.00    +0.000 NA
ATOM     29  H   UNL     1       8.319   4.400  16.339  0.00  0.00    +0.000 HD
ATOM     30  H   UNL     1       7.535   3.592  17.604  0.00  0.00    +0.000 HD
ENDBRANCH  27  28
ENDBRANCH  26  27
ENDBRANCH  25  26
ENDBRANCH  23  25
ENDBRANCH  22  23
ENDBRANCH  21  22
ENDBRANCH  20  21
ENDBRANCH  19  20
ENDBRANCH  17  19
ENDBRANCH  16  17
ENDBRANCH   1  16
TORSDOF 18
ENDMDL
MODEL 7
REMARK VINA RESULT:      -4.8      3.018      6.402
REMARK  Name = 
REMARK  19 active torsions:
REMARK  status: ('A' for Active; 'I' for Inactive)
REMARK    1  A    between atoms: C_1  and  C_2
REMARK    2  A    between atoms: N_4  and  C_5
REMARK    3  A    between atoms: C_5  and  C_6
REMARK    4  A    between atoms: C_6  and  S_7
REMARK    5  A    between atoms: S_7  and  C_8
REMARK    6  A    between atoms: C_8  and  C_9
REMARK    7  A    between atoms: N_11  and  C_12
REMARK    8  A    between atoms: C_12  and  C_13
REMARK    9  A    between atoms: C_13  and  C_14
REMARK   10  A    between atoms: C_14  and  N_15
REMARK   11  A    between atoms: N_15  and  C_16
REMARK   12  A    between atoms: C_16  and  C_17
REMARK   13  A    between atoms: C_17  and  C_18
REMARK   14  A    between atoms: C_18  and  C_19
REMARK   15  A    between atoms: C_19  and  N_20
REMARK   16  A    between atoms: N_20  and  C_21
REMARK   17  A    between atoms: C_21  and  C_22
REMARK   18  A    between atoms: C_22  and  C_23
REMARK   19  A    between atoms: C_23  and  N_24
REMARK                            x       y       z     vdW  Elec       q    Type
REMARK                         _______ _______ _______ _____ _____    ______ ____
ROOT
ATOM      1  C   UNL     1       1.269   2.020  19.225  0.00  0.00    +0.000 C 
ENDROOT
BRANCH   1   2
ATOM      2  C   UNL     1       2.696   1.945  18.660  0.00  0.00    +0.000 C 
BRANCH   2   5
ATOM      3  C   UNL     1       4.337   3.769  18.790  0.00  0.00    +0.000 C 
ATOM      4  O   UNL     1       4.976   3.131  19.614  0.00  0.00    +0.000 OA
ATOM      5  N   UNL     1       3.194   3.252  18.258  0.00  0.00    +0.000 N 
ATOM      6  H   UNL     1       2.668   3.804  17.562  0.00  0.00    +0.000 HD
BRANCH   3   7
ATOM      7  C   UNL     1       4.837   5.134  18.376  0.00  0.00    +0.000 C 
BRANCH   7   8
ATOM      8  S   UNL     1       4.742   5.284  16.558  0.00  0.00    +0.000 S 
BRANCH   8   9
ATOM      9  C   UNL     1       6.269   4.359  16.139  0.00  0.00    +0.000 C 
BRANCH   9  10
ATOM     10  C   UNL     1       7.425   4.979  16.940  0.00  0.00    +0.000 C 
BRANCH  10  14
ATOM     11  C   UNL     1       7.912   8.708  17.713  0.00  0.00    +0.000 C 
ATOM     12  C   UNL     1       7.848   7.214  17.862  0.00  0.00    +0.000 C 
ATOM     13  O   UNL     1       8.125   6.714  18.942  0.00  0.00    +0.000 OA
ATOM     14  N   UNL     1       7.488   6.425  16.807  0.00  0.00    +0.000 N 
ATOM     15  H   UNL     1       7.263   6.868  15.903  0.00  0.00    +0.000 HD
ENDBRANCH  10  14
ENDBRANCH   9  10
ENDBRANCH   8   9
ENDBRANCH   7   8
ENDBRANCH   3   7
ENDBRANCH   2   5
ENDBRANCH   1   2
BRANCH   1  16
ATOM     16  C   UNL     1       0.985   3.397  19.844  0.00  0.00    +0.000 C 
BRANCH  16  17
ATOM     17  N   UNL     1       1.685   3.543  21.126  0.00  0.00    +0.000 NA
ATOM     18  H   UNL     1       2.488   2.870  21.149  0.00  0.00    +0.000 HD
BRANCH  17  19
ATOM     19  C   UNL     1       2.204   4.904  21.284  0.00  0.00    +0.000 C 
BRANCH  19  20
ATOM     20  C   UNL     1       1.379   5.878  20.440  0.00  0.00    +0.000 C 
BRANCH  20  21
ATOM     21  C   UNL     1       2.146   7.183  20.208  0.00  0.00    +0.000 C 
BRANCH  21  22
ATOM     22  C   UNL     1       1.309   8.386  20.640  0.00  0.00    +0.000 C 
BRANCH  22  23
ATOM     23  N   UNL     1       1.111   9.294  19.507  0.00  0.00    +0.000 NA
ATOM     24  H   UNL     1       1.107   8.729  18.623  0.00  0.00    +0.000 HD
BRANCH  23  25
ATOM     25  C   UNL     1      -0.180   9.977  19.629  0.00  0.00    +0.000 C 
BRANCH  25  26
ATOM     26  C   UNL     1      -0.378  10.954  18.467  0.00  0.00    +0.000 C 
BRANCH  26  27
ATOM     27  C   UNL     1      -1.199  12.174  18.897  0.00  0.00    +0.000 C 
BRANCH  27  28
ATOM     28  N   UNL     1      -2.594  12.032  18.488  0.00  0.00    +0.000 NA
ATOM     29  H   UNL     1      -2.953  12.957  18.158  0.00  0.00    +0.000 HD
ATOM     30  H   UNL     1      -3.159  11.739  19.316  0.00  0.00    +0.000 HD
ENDBRANCH  27  28
ENDBRANCH  26  27
ENDBRANCH  25  26
ENDBRANCH  23  25
ENDBRANCH  22  23
ENDBRANCH  21  22
ENDBRANCH  20  21
ENDBRANCH  19  20
ENDBRANCH  17  19
ENDBRANCH  16  17
ENDBRANCH   1  16
TORSDOF 18
ENDMDL
MODEL 8
REMARK VINA RESULT:      -4.8      4.104      7.251
REMARK  Name = 
REMARK  19 active torsions:
REMARK  status: ('A' for Active; 'I' for Inactive)
REMARK    1  A    between atoms: C_1  and  C_2
REMARK    2  A    between atoms: N_4  and  C_5
REMARK    3  A    between atoms: C_5  and  C_6
REMARK    4  A    between atoms: C_6  and  S_7
REMARK    5  A    between atoms: S_7  and  C_8
REMARK    6  A    between atoms: C_8  and  C_9
REMARK    7  A    between atoms: N_11  and  C_12
REMARK    8  A    between atoms: C_12  and  C_13
REMARK    9  A    between atoms: C_13  and  C_14
REMARK   10  A    between atoms: C_14  and  N_15
REMARK   11  A    between atoms: N_15  and  C_16
REMARK   12  A    between atoms: C_16  and  C_17
REMARK   13  A    between atoms: C_17  and  C_18
REMARK   14  A    between atoms: C_18  and  C_19
REMARK   15  A    between atoms: C_19  and  N_20
REMARK   16  A    between atoms: N_20  and  C_21
REMARK   17  A    between atoms: C_21  and  C_22
REMARK   18  A    between atoms: C_22  and  C_23
REMARK   19  A    between atoms: C_23  and  N_24
REMARK                            x       y       z     vdW  Elec       q    Type
REMARK                         _______ _______ _______ _____ _____    ______ ____
ROOT
ATOM      1  C   UNL     1       1.202   4.411  20.432  0.00  0.00    +0.000 C 
ENDROOT
BRANCH   1   2
ATOM      2  C   UNL     1       2.090   5.606  20.812  0.00  0.00    +0.000 C 
BRANCH   2   5
ATOM      3  C   UNL     1       1.573   7.970  20.385  0.00  0.00    +0.000 C 
ATOM      4  O   UNL     1       1.441   8.154  21.587  0.00  0.00    +0.000 OA
ATOM      5  N   UNL     1       1.902   6.735  19.913  0.00  0.00    +0.000 N 
ATOM      6  H   UNL     1       2.011   6.597  18.895  0.00  0.00    +0.000 HD
BRANCH   3   7
ATOM      7  C   UNL     1       1.365   9.131  19.441  0.00  0.00    +0.000 C 
BRANCH   7   8
ATOM      8  S   UNL     1       0.724  10.563  20.379  0.00  0.00    +0.000 S 
BRANCH   8   9
ATOM      9  C   UNL     1      -0.250  11.341  19.034  0.00  0.00    +0.000 C 
BRANCH   9  10
ATOM     10  C   UNL     1      -0.810  10.215  18.151  0.00  0.00    +0.000 C 
BRANCH  10  14
ATOM     11  C   UNL     1      -3.573  10.828  15.557  0.00  0.00    +0.000 C 
ATOM     12  C   UNL     1      -2.822  10.304  16.749  0.00  0.00    +0.000 C 
ATOM     13  O   UNL     1      -3.372   9.505  17.491  0.00  0.00    +0.000 OA
ATOM     14  N   UNL     1      -1.544  10.715  17.001  0.00  0.00    +0.000 N 
ATOM     15  H   UNL     1      -1.100  11.393  16.363  0.00  0.00    +0.000 HD
ENDBRANCH  10  14
ENDBRANCH   9  10
ENDBRANCH   8   9
ENDBRANCH   7   8
ENDBRANCH   3   7
ENDBRANCH   2   5
ENDBRANCH   1   2
BRANCH   1  16
ATOM     16  C   UNL     1       2.008   3.103  20.402  0.00  0.00    +0.000 C 
BRANCH  16  17
ATOM     17  N   UNL     1       3.310   3.312  19.759  0.00  0.00    +0.000 NA
ATOM     18  H   UNL     1       4.054   2.876  20.356  0.00  0.00    +0.000 HD
BRANCH  17  19
ATOM     19  C   UNL     1       3.343   2.691  18.433  0.00  0.00    +0.000 C 
BRANCH  19  20
ATOM     20  C   UNL     1       4.153   3.563  17.470  0.00  0.00    +0.000 C 
BRANCH  20  21
ATOM     21  C   UNL     1       3.611   4.994  17.444  0.00  0.00    +0.000 C 
BRANCH  21  22
ATOM     22  C   UNL     1       4.623   5.944  16.805  0.00  0.00    +0.000 C 
BRANCH  22  23
ATOM     23  N   UNL     1       5.803   5.196  16.361  0.00  0.00    +0.000 NA
ATOM     24  H   UNL     1       5.836   5.217  15.313  0.00  0.00    +0.000 HD
BRANCH  23  25
ATOM     25  C   UNL     1       7.021   5.826  16.878  0.00  0.00    +0.000 C 
BRANCH  25  26
ATOM     26  C   UNL     1       7.585   5.013  18.048  0.00  0.00    +0.000 C 
BRANCH  26  27
ATOM     27  C   UNL     1       7.080   5.546  19.392  0.00  0.00    +0.000 C 
BRANCH  27  28
ATOM     28  N   UNL     1       8.118   5.444  20.415  0.00  0.00    +0.000 NA
ATOM     29  H   UNL     1       8.598   6.367  20.515  0.00  0.00    +0.000 HD
ATOM     30  H   UNL     1       8.825   4.740  20.106  0.00  0.00    +0.000 HD
ENDBRANCH  27  28
ENDBRANCH  26  27
ENDBRANCH  25  26
ENDBRANCH  23  25
ENDBRANCH  22  23
ENDBRANCH  21  22
ENDBRANCH  20  21
ENDBRANCH  19  20
ENDBRANCH  17  19
ENDBRANCH  16  17
ENDBRANCH   1  16
TORSDOF 18
ENDMDL
MODEL 9
REMARK VINA RESULT:      -4.7      3.393      7.280
REMARK  Name = 
REMARK  19 active torsions:
REMARK  status: ('A' for Active; 'I' for Inactive)
REMARK    1  A    between atoms: C_1  and  C_2
REMARK    2  A    between atoms: N_4  and  C_5
REMARK    3  A    between atoms: C_5  and  C_6
REMARK    4  A    between atoms: C_6  and  S_7
REMARK    5  A    between atoms: S_7  and  C_8
REMARK    6  A    between atoms: C_8  and  C_9
REMARK    7  A    between atoms: N_11  and  C_12
REMARK    8  A    between atoms: C_12  and  C_13
REMARK    9  A    between atoms: C_13  and  C_14
REMARK   10  A    between atoms: C_14  and  N_15
REMARK   11  A    between atoms: N_15  and  C_16
REMARK   12  A    between atoms: C_16  and  C_17
REMARK   13  A    between atoms: C_17  and  C_18
REMARK   14  A    between atoms: C_18  and  C_19
REMARK   15  A    between atoms: C_19  and  N_20
REMARK   16  A    between atoms: N_20  and  C_21
REMARK   17  A    between atoms: C_21  and  C_22
REMARK   18  A    between atoms: C_22  and  C_23
REMARK   19  A    between atoms: C_23  and  N_24
REMARK                            x       y       z     vdW  Elec       q    Type
REMARK                         _______ _______ _______ _____ _____    ______ ____
ROOT
ATOM      1  C   UNL     1       1.390   3.360  21.075  0.00  0.00    +0.000 C 
ENDROOT
BRANCH   1   2
ATOM      2  C   UNL     1       2.373   4.530  21.239  0.00  0.00    +0.000 C 
BRANCH   2   5
ATOM      3  C   UNL     1       2.342   6.658  20.012  0.00  0.00    +0.000 C 
ATOM      4  O   UNL     1       3.391   6.352  19.462  0.00  0.00    +0.000 OA
ATOM      5  N   UNL     1       1.762   5.808  20.905  0.00  0.00    +0.000 N 
ATOM      6  H   UNL     1       0.876   6.081  21.358  0.00  0.00    +0.000 HD
BRANCH   3   7
ATOM      7  C   UNL     1       1.706   7.989  19.683  0.00  0.00    +0.000 C 
BRANCH   7   8
ATOM      8  S   UNL     1       2.192   8.488  17.994  0.00  0.00    +0.000 S 
BRANCH   8   9
ATOM      9  C   UNL     1       1.616  10.228  18.059  0.00  0.00    +0.000 C 
BRANCH   9  10
ATOM     10  C   UNL     1       0.297  10.253  18.846  0.00  0.00    +0.000 C 
BRANCH  10  14
ATOM     11  C   UNL     1      -0.895  13.775  19.802  0.00  0.00    +0.000 C 
ATOM     12  C   UNL     1      -0.692  12.490  19.050  0.00  0.00    +0.000 C 
ATOM     13  O   UNL     1      -1.243  12.343  17.970  0.00  0.00    +0.000 OA
ATOM     14  N   UNL     1       0.095  11.500  19.565  0.00  0.00    +0.000 N 
ATOM     15  H   UNL     1       0.548  11.644  20.480  0.00  0.00    +0.000 HD
ENDBRANCH  10  14
ENDBRANCH   9  10
ENDBRANCH   8   9
ENDBRANCH   7   8
ENDBRANCH   3   7
ENDBRANCH   2   5
ENDBRANCH   1   2
BRANCH   1  16
ATOM     16  C   UNL     1       0.531   3.526  19.812  0.00  0.00    +0.000 C 
BRANCH  16  17
ATOM     17  N   UNL     1       1.176   2.886  18.659  0.00  0.00    +0.000 NA
ATOM     18  H   UNL     1       0.483   2.249  18.197  0.00  0.00    +0.000 HD
BRANCH  17  19
ATOM     19  C   UNL     1       1.619   3.888  17.687  0.00  0.00    +0.000 C 
BRANCH  19  20
ATOM     20  C   UNL     1       3.055   3.590  17.248  0.00  0.00    +0.000 C 
BRANCH  20  21
ATOM     21  C   UNL     1       3.732   2.623  18.224  0.00  0.00    +0.000 C 
BRANCH  21  22
ATOM     22  C   UNL     1       4.807   3.342  19.037  0.00  0.00    +0.000 C 
BRANCH  22  23
ATOM     23  N   UNL     1       5.306   4.504  18.295  0.00  0.00    +0.000 NA
ATOM     24  H   UNL     1       4.550   5.231  18.269  0.00  0.00    +0.000 HD
BRANCH  23  25
ATOM     25  C   UNL     1       6.473   5.070  18.976  0.00  0.00    +0.000 C 
BRANCH  25  26
ATOM     26  C   UNL     1       7.098   6.181  18.125  0.00  0.00    +0.000 C 
BRANCH  26  27
ATOM     27  C   UNL     1       7.090   5.815  16.637  0.00  0.00    +0.000 C 
BRANCH  27  28
ATOM     28  N   UNL     1       7.765   4.540  16.412  0.00  0.00    +0.000 NA
ATOM     29  H   UNL     1       7.159   3.761  16.760  0.00  0.00    +0.000 HD
ATOM     30  H   UNL     1       8.655   4.530  16.958  0.00  0.00    +0.000 HD
ENDBRANCH  27  28
ENDBRANCH  26  27
ENDBRANCH  25  26
ENDBRANCH  23  25
ENDBRANCH  22  23
ENDBRANCH  21  22
ENDBRANCH  20  21
ENDBRANCH  19  20
ENDBRANCH  17  19
ENDBRANCH  16  17
ENDBRANCH   1  16
TORSDOF 18
ENDMDL
