MODEL 1
REMARK VINA RESULT:      -8.4      0.000      0.000
REMARK  Name = 
REMARK  3 active torsions:
REMARK  status: ('A' for Active; 'I' for Inactive)
REMARK    1  A    between atoms: C_1  and  C_2
REMARK    2  A    between atoms: C_5  and  C_6
REMARK    3  A    between atoms: N_14  and  C_15
REMARK                            x       y       z     vdW  Elec       q    Type
REMARK                         _______ _______ _______ _____ _____    ______ ____
ROOT
ATOM      1  C   UNL     1       5.400   4.157  17.240  0.00  0.00    +0.000 C 
ATOM      2  O   UNL     1       5.400   3.768  16.070  0.00  0.00    +0.000 OA
ATOM      3  N   UNL     1       4.774   3.404  18.219  0.00  0.00    +0.000 N 
ATOM      4  C   UNL     1       3.920   2.293  17.796  0.00  0.00    +0.000 C 
ATOM      5  C   UNL     1       3.662   1.465  19.072  0.00  0.00    +0.000 C 
ATOM      6  C   UNL     1       4.347   2.248  20.196  0.00  0.00    +0.000 C 
ATOM      7  C   UNL     1       4.515   3.666  19.638  0.00  0.00    +0.000 C 
ATOM      8  C   UNL     1       3.234   4.504  19.847  0.00  0.00    +0.000 C 
ATOM      9  N   UNL     1       2.052   3.848  19.279  0.00  0.00    +0.000 N 
ATOM     10  C   UNL     1       0.833   3.840  20.052  0.00  0.00    +0.000 C 
ATOM     11  C   UNL     1       1.906   3.913  17.897  0.00  0.00    +0.000 C 
ATOM     12  O   UNL     1       1.098   4.662  17.353  0.00  0.00    +0.000 OA
ATOM     13  C   UNL     1       2.625   2.806  17.145  0.00  0.00    +0.000 C 
ENDROOT
BRANCH   1  18
ATOM     14  C   UNL     1       8.420   9.065  17.968  0.00  0.00    +0.000 C 
ATOM     15  C   UNL     1       7.649   7.789  17.877  0.00  0.00    +0.000 A 
ATOM     16  C   UNL     1       7.968   6.667  18.534  0.00  0.00    +0.000 A 
ATOM     17  C   UNL     1       7.225   5.451  18.305  0.00  0.00    +0.000 A 
ATOM     18  C   UNL     1       6.097   5.427  17.573  0.00  0.00    +0.000 A 
ATOM     19  C   UNL     1       5.693   6.707  16.889  0.00  0.00    +0.000 A 
ATOM     20  O   UNL     1       4.680   6.828  16.210  0.00  0.00    +0.000 OA
ATOM     21  N   UNL     1       6.538   7.782  17.060  0.00  0.00    +0.000 N 
ATOM     22  H   UNL     1       6.269   8.618  16.554  0.00  0.00    +0.000 HD
ENDBRANCH   1  18
TORSDOF 1
ENDMDL
MODEL 2
REMARK VINA RESULT:      -8.3      2.513      3.615
REMARK  Name = 
REMARK  3 active torsions:
REMARK  status: ('A' for Active; 'I' for Inactive)
REMARK    1  A    between atoms: C_1  and  C_2
REMARK    2  A    between atoms: C_5  and  C_6
REMARK    3  A    between atoms: N_14  and  C_15
REMARK                            x       y       z     vdW  Elec       q    Type
REMARK                         _______ _______ _______ _____ _____    ______ ____
ROOT
ATOM      1  C   UNL     1       5.892   4.571  17.933  0.00  0.00    +0.000 C 
ATOM      2  O   UNL     1       6.722   4.350  18.818  0.00  0.00    +0.000 OA
ATOM      3  N   UNL     1       4.597   4.923  18.272  0.00  0.00    +0.000 N 
ATOM      4  C   UNL     1       4.185   4.784  19.669  0.00  0.00    +0.000 C 
ATOM      5  C   UNL     1       2.856   5.558  19.786  0.00  0.00    +0.000 C 
ATOM      6  C   UNL     1       2.549   6.030  18.361  0.00  0.00    +0.000 C 
ATOM      7  C   UNL     1       3.394   5.123  17.459  0.00  0.00    +0.000 C 
ATOM      8  C   UNL     1       2.665   3.792  17.165  0.00  0.00    +0.000 C 
ATOM      9  N   UNL     1       2.276   3.099  18.396  0.00  0.00    +0.000 N 
ATOM     10  C   UNL     1       0.958   2.514  18.468  0.00  0.00    +0.000 C 
ATOM     11  C   UNL     1       3.285   2.430  19.082  0.00  0.00    +0.000 C 
ATOM     12  O   UNL     1       3.402   1.207  19.058  0.00  0.00    +0.000 OA
ATOM     13  C   UNL     1       4.051   3.303  20.063  0.00  0.00    +0.000 C 
ENDROOT
BRANCH   1  18
ATOM     14  C   UNL     1       7.112   4.633  12.255  0.00  0.00    +0.000 C 
ATOM     15  C   UNL     1       6.820   4.522  13.715  0.00  0.00    +0.000 A 
ATOM     16  C   UNL     1       6.127   3.521  14.271  0.00  0.00    +0.000 A 
ATOM     17  C   UNL     1       5.805   3.549  15.677  0.00  0.00    +0.000 A 
ATOM     18  C   UNL     1       6.317   4.471  16.512  0.00  0.00    +0.000 A 
ATOM     19  C   UNL     1       7.158   5.561  15.901  0.00  0.00    +0.000 A 
ATOM     20  O   UNL     1       7.701   6.449  16.548  0.00  0.00    +0.000 OA
ATOM     21  N   UNL     1       7.302   5.524  14.531  0.00  0.00    +0.000 N 
ATOM     22  H   UNL     1       7.834   6.293  14.139  0.00  0.00    +0.000 HD
ENDBRANCH   1  18
TORSDOF 1
ENDMDL
MODEL 3
REMARK VINA RESULT:      -8.1      0.984      1.472
REMARK  Name = 
REMARK  3 active torsions:
REMARK  status: ('A' for Active; 'I' for Inactive)
REMARK    1  A    between atoms: C_1  and  C_2
REMARK    2  A    between atoms: C_5  and  C_6
REMARK    3  A    between atoms: N_14  and  C_15
REMARK                            x       y       z     vdW  Elec       q    Type
REMARK                         _______ _______ _______ _____ _____    ______ ____
ROOT
ATOM      1  C   UNL     1       5.262   4.005  16.901  0.00  0.00    +0.000 C 
ATOM      2  O   UNL     1       5.124   3.504  15.783  0.00  0.00    +0.000 OA
ATOM      3  N   UNL     1       4.712   3.385  18.010  0.00  0.00    +0.000 N 
ATOM      4  C   UNL     1       3.773   2.284  17.791  0.00  0.00    +0.000 C 
ATOM      5  C   UNL     1       3.616   1.600  19.164  0.00  0.00    +0.000 C 
ATOM      6  C   UNL     1       4.447   2.452  20.127  0.00  0.00    +0.000 C 
ATOM      7  C   UNL     1       4.614   3.798  19.413  0.00  0.00    +0.000 C 
ATOM      8  C   UNL     1       3.397   4.718  19.662  0.00  0.00    +0.000 C 
ATOM      9  N   UNL     1       2.137   4.071  19.286  0.00  0.00    +0.000 N 
ATOM     10  C   UNL     1       1.006   4.202  20.173  0.00  0.00    +0.000 C 
ATOM     11  C   UNL     1       1.850   4.009  17.926  0.00  0.00    +0.000 C 
ATOM     12  O   UNL     1       1.020   4.742  17.392  0.00  0.00    +0.000 OA
ATOM     13  C   UNL     1       2.440   2.797  17.223  0.00  0.00    +0.000 C 
ENDROOT
BRANCH   1  18
ATOM     14  C   UNL     1       8.168   8.906  18.034  0.00  0.00    +0.000 C 
ATOM     15  C   UNL     1       7.399   7.682  17.655  0.00  0.00    +0.000 A 
ATOM     16  C   UNL     1       6.212   7.700  17.037  0.00  0.00    +0.000 A 
ATOM     17  C   UNL     1       5.494   6.471  16.802  0.00  0.00    +0.000 A 
ATOM     18  C   UNL     1       6.043   5.265  17.030  0.00  0.00    +0.000 A 
ATOM     19  C   UNL     1       7.411   5.239  17.661  0.00  0.00    +0.000 A 
ATOM     20  O   UNL     1       8.033   4.210  17.903  0.00  0.00    +0.000 OA
ATOM     21  N   UNL     1       7.962   6.463  17.969  0.00  0.00    +0.000 N 
ATOM     22  H   UNL     1       8.862   6.419  18.433  0.00  0.00    +0.000 HD
ENDBRANCH   1  18
TORSDOF 1
ENDMDL
MODEL 4
REMARK VINA RESULT:      -7.9      1.914      5.870
REMARK  Name = 
REMARK  3 active torsions:
REMARK  status: ('A' for Active; 'I' for Inactive)
REMARK    1  A    between atoms: C_1  and  C_2
REMARK    2  A    between atoms: C_5  and  C_6
REMARK    3  A    between atoms: N_14  and  C_15
REMARK                            x       y       z     vdW  Elec       q    Type
REMARK                         _______ _______ _______ _____ _____    ______ ____
ROOT
ATOM      1  C   UNL     1       3.930   3.575  17.412  0.00  0.00    +0.000 C 
ATOM      2  O   UNL     1       4.134   2.575  16.719  0.00  0.00    +0.000 OA
ATOM      3  N   UNL     1       4.371   4.815  16.984  0.00  0.00    +0.000 N 
ATOM      4  C   UNL     1       5.283   4.867  15.840  0.00  0.00    +0.000 C 
ATOM      5  C   UNL     1       5.310   6.347  15.404  0.00  0.00    +0.000 C 
ATOM      6  C   UNL     1       4.440   7.077  16.432  0.00  0.00    +0.000 C 
ATOM      7  C   UNL     1       4.377   6.129  17.635  0.00  0.00    +0.000 C 
ATOM      8  C   UNL     1       5.604   6.313  18.556  0.00  0.00    +0.000 C 
ATOM      9  N   UNL     1       6.865   6.158  17.825  0.00  0.00    +0.000 N 
ATOM     10  C   UNL     1       7.930   7.098  18.083  0.00  0.00    +0.000 C 
ATOM     11  C   UNL     1       7.253   4.857  17.518  0.00  0.00    +0.000 C 
ATOM     12  O   UNL     1       8.147   4.273  18.126  0.00  0.00    +0.000 OA
ATOM     13  C   UNL     1       6.674   4.330  16.215  0.00  0.00    +0.000 C 
ENDROOT
BRANCH   1  18
ATOM     14  C   UNL     1       1.047   2.333  22.300  0.00  0.00    +0.000 C 
ATOM     15  C   UNL     1       1.737   2.735  21.037  0.00  0.00    +0.000 A 
ATOM     16  C   UNL     1       1.116   3.255  19.972  0.00  0.00    +0.000 A 
ATOM     17  C   UNL     1       1.849   3.518  18.757  0.00  0.00    +0.000 A 
ATOM     18  C   UNL     1       3.189   3.420  18.692  0.00  0.00    +0.000 A 
ATOM     19  C   UNL     1       3.901   2.902  19.915  0.00  0.00    +0.000 A 
ATOM     20  O   UNL     1       5.118   2.783  19.997  0.00  0.00    +0.000 OA
ATOM     21  N   UNL     1       3.103   2.553  20.982  0.00  0.00    +0.000 N 
ATOM     22  H   UNL     1       3.601   2.165  21.775  0.00  0.00    +0.000 HD
ENDBRANCH   1  18
TORSDOF 1
ENDMDL
MODEL 5
REMARK VINA RESULT:      -7.9      1.687      5.687
REMARK  Name = 
REMARK  3 active torsions:
REMARK  status: ('A' for Active; 'I' for Inactive)
REMARK    1  A    between atoms: C_1  and  C_2
REMARK    2  A    between atoms: C_5  and  C_6
REMARK    3  A    between atoms: N_14  and  C_15
REMARK                            x       y       z     vdW  Elec       q    Type
REMARK                         _______ _______ _______ _____ _____    ______ ____
ROOT
ATOM      1  C   UNL     1       4.078   3.452  17.162  0.00  0.00    +0.000 C 
ATOM      2  O   UNL     1       4.289   2.596  16.299  0.00  0.00    +0.000 OA
ATOM      3  N   UNL     1       4.475   4.761  16.948  0.00  0.00    +0.000 N 
ATOM      4  C   UNL     1       5.353   5.040  15.811  0.00  0.00    +0.000 C 
ATOM      5  C   UNL     1       5.330   6.573  15.641  0.00  0.00    +0.000 C 
ATOM      6  C   UNL     1       4.470   7.085  16.801  0.00  0.00    +0.000 C 
ATOM      7  C   UNL     1       4.465   5.940  17.819  0.00  0.00    +0.000 C 
ATOM      8  C   UNL     1       5.712   5.997  18.730  0.00  0.00    +0.000 C 
ATOM      9  N   UNL     1       6.956   6.011  17.955  0.00  0.00    +0.000 N 
ATOM     10  C   UNL     1       8.003   6.923  18.350  0.00  0.00    +0.000 C 
ATOM     11  C   UNL     1       7.368   4.797  17.415  0.00  0.00    +0.000 C 
ATOM     12  O   UNL     1       8.294   4.143  17.891  0.00  0.00    +0.000 OA
ATOM     13  C   UNL     1       6.767   4.488  16.053  0.00  0.00    +0.000 C 
ENDROOT
BRANCH   1  18
ATOM     14  C   UNL     1       1.306   2.521  22.180  0.00  0.00    +0.000 C 
ATOM     15  C   UNL     1       2.066   2.676  20.904  0.00  0.00    +0.000 A 
ATOM     16  C   UNL     1       3.374   2.427  20.771  0.00  0.00    +0.000 A 
ATOM     17  C   UNL     1       4.046   2.704  19.524  0.00  0.00    +0.000 A 
ATOM     18  C   UNL     1       3.377   3.052  18.411  0.00  0.00    +0.000 A 
ATOM     19  C   UNL     1       1.891   3.265  18.539  0.00  0.00    +0.000 A 
ATOM     20  O   UNL     1       1.160   3.564  17.601  0.00  0.00    +0.000 OA
ATOM     21  N   UNL     1       1.359   3.104  19.799  0.00  0.00    +0.000 N 
ATOM     22  H   UNL     1       0.366   3.297  19.869  0.00  0.00    +0.000 HD
ENDBRANCH   1  18
TORSDOF 1
ENDMDL
MODEL 6
REMARK VINA RESULT:      -7.0      2.246      3.435
REMARK  Name = 
REMARK  3 active torsions:
REMARK  status: ('A' for Active; 'I' for Inactive)
REMARK    1  A    between atoms: C_1  and  C_2
REMARK    2  A    between atoms: C_5  and  C_6
REMARK    3  A    between atoms: N_14  and  C_15
REMARK                            x       y       z     vdW  Elec       q    Type
REMARK                         _______ _______ _______ _____ _____    ______ ____
ROOT
ATOM      1  C   UNL     1       5.192   5.004  18.715  0.00  0.00    +0.000 C 
ATOM      2  O   UNL     1       5.918   4.863  19.702  0.00  0.00    +0.000 OA
ATOM      3  N   UNL     1       3.848   5.289  18.881  0.00  0.00    +0.000 N 
ATOM      4  C   UNL     1       3.277   5.173  20.223  0.00  0.00    +0.000 C 
ATOM      5  C   UNL     1       1.903   5.870  20.147  0.00  0.00    +0.000 C 
ATOM      6  C   UNL     1       1.747   6.275  18.678  0.00  0.00    +0.000 C 
ATOM      7  C   UNL     1       2.745   5.390  17.921  0.00  0.00    +0.000 C 
ATOM      8  C   UNL     1       2.131   4.009  17.597  0.00  0.00    +0.000 C 
ATOM      9  N   UNL     1       1.633   3.336  18.800  0.00  0.00    +0.000 N 
ATOM     10  C   UNL     1       0.350   2.676  18.737  0.00  0.00    +0.000 C 
ATOM     11  C   UNL     1       2.586   2.752  19.629  0.00  0.00    +0.000 C 
ATOM     12  O   UNL     1       2.772   1.538  19.669  0.00  0.00    +0.000 OA
ATOM     13  C   UNL     1       3.177   3.702  20.658  0.00  0.00    +0.000 C 
ENDROOT
BRANCH   1  18
ATOM     14  C   UNL     1       6.974   4.730  13.194  0.00  0.00    +0.000 C 
ATOM     15  C   UNL     1       6.573   4.724  14.632  0.00  0.00    +0.000 A 
ATOM     16  C   UNL     1       6.274   3.619  15.326  0.00  0.00    +0.000 A 
ATOM     17  C   UNL     1       5.796   3.718  16.684  0.00  0.00    +0.000 A 
ATOM     18  C   UNL     1       5.793   4.881  17.361  0.00  0.00    +0.000 A 
ATOM     19  C   UNL     1       6.199   6.118  16.604  0.00  0.00    +0.000 A 
ATOM     20  O   UNL     1       6.260   7.236  17.104  0.00  0.00    +0.000 OA
ATOM     21  N   UNL     1       6.513   5.943  15.274  0.00  0.00    +0.000 N 
ATOM     22  H   UNL     1       6.738   6.797  14.775  0.00  0.00    +0.000 HD
ENDBRANCH   1  18
TORSDOF 1
ENDMDL
MODEL 7
REMARK VINA RESULT:      -6.9      3.219      5.150
REMARK  Name = 
REMARK  3 active torsions:
REMARK  status: ('A' for Active; 'I' for Inactive)
REMARK    1  A    between atoms: C_1  and  C_2
REMARK    2  A    between atoms: C_5  and  C_6
REMARK    3  A    between atoms: N_14  and  C_15
REMARK                            x       y       z     vdW  Elec       q    Type
REMARK                         _______ _______ _______ _____ _____    ______ ____
ROOT
ATOM      1  C   UNL     1       2.520   5.817  17.786  0.00  0.00    +0.000 C 
ATOM      2  O   UNL     1       1.709   4.893  17.887  0.00  0.00    +0.000 OA
ATOM      3  N   UNL     1       3.673   5.645  17.039  0.00  0.00    +0.000 N 
ATOM      4  C   UNL     1       4.015   4.293  16.595  0.00  0.00    +0.000 C 
ATOM      5  C   UNL     1       5.117   4.475  15.532  0.00  0.00    +0.000 C 
ATOM      6  C   UNL     1       5.397   5.980  15.509  0.00  0.00    +0.000 C 
ATOM      7  C   UNL     1       4.847   6.501  16.842  0.00  0.00    +0.000 C 
ATOM      8  C   UNL     1       5.883   6.334  17.977  0.00  0.00    +0.000 C 
ATOM      9  N   UNL     1       6.342   4.948  18.099  0.00  0.00    +0.000 N 
ATOM     10  C   UNL     1       7.753   4.705  18.290  0.00  0.00    +0.000 C 
ATOM     11  C   UNL     1       5.474   4.055  18.718  0.00  0.00    +0.000 C 
ATOM     12  O   UNL     1       5.646   3.656  19.868  0.00  0.00    +0.000 OA
ATOM     13  C   UNL     1       4.464   3.418  17.777  0.00  0.00    +0.000 C 
ENDROOT
BRANCH   1  18
ATOM     14  C   UNL     1       0.746  10.663  20.450  0.00  0.00    +0.000 C 
ATOM     15  C   UNL     1       1.268   9.471  19.717  0.00  0.00    +0.000 A 
ATOM     16  C   UNL     1       1.556   9.457  18.410  0.00  0.00    +0.000 A 
ATOM     17  C   UNL     1       1.958   8.230  17.765  0.00  0.00    +0.000 A 
ATOM     18  C   UNL     1       2.223   7.109  18.459  0.00  0.00    +0.000 A 
ATOM     19  C   UNL     1       1.968   7.141  19.943  0.00  0.00    +0.000 A 
ATOM     20  O   UNL     1       2.186   6.197  20.695  0.00  0.00    +0.000 OA
ATOM     21  N   UNL     1       1.460   8.318  20.448  0.00  0.00    +0.000 N 
ATOM     22  H   UNL     1       1.254   8.300  21.441  0.00  0.00    +0.000 HD
ENDBRANCH   1  18
TORSDOF 1
ENDMDL
MODEL 8
REMARK VINA RESULT:      -6.7      2.539      3.900
REMARK  Name = 
REMARK  3 active torsions:
REMARK  status: ('A' for Active; 'I' for Inactive)
REMARK    1  A    between atoms: C_1  and  C_2
REMARK    2  A    between atoms: C_5  and  C_6
REMARK    3  A    between atoms: N_14  and  C_15
REMARK                            x       y       z     vdW  Elec       q    Type
REMARK                         _______ _______ _______ _____ _____    ______ ____
ROOT
ATOM      1  C   UNL     1       5.001   5.447  17.296  0.00  0.00    +0.000 C 
ATOM      2  O   UNL     1       5.611   6.240  18.017  0.00  0.00    +0.000 OA
ATOM      3  N   UNL     1       3.736   5.018  17.656  0.00  0.00    +0.000 N 
ATOM      4  C   UNL     1       3.259   5.324  19.005  0.00  0.00    +0.000 C 
ATOM      5  C   UNL     1       1.745   5.034  18.982  0.00  0.00    +0.000 C 
ATOM      6  C   UNL     1       1.472   4.475  17.583  0.00  0.00    +0.000 C 
ATOM      7  C   UNL     1       2.841   4.013  17.073  0.00  0.00    +0.000 C 
ATOM      8  C   UNL     1       3.170   2.587  17.569  0.00  0.00    +0.000 C 
ATOM      9  N   UNL     1       3.086   2.483  19.029  0.00  0.00    +0.000 N 
ATOM     10  C   UNL     1       2.436   1.327  19.599  0.00  0.00    +0.000 C 
ATOM     11  C   UNL     1       4.148   3.013  19.754  0.00  0.00    +0.000 C 
ATOM     12  O   UNL     1       5.004   2.308  20.283  0.00  0.00    +0.000 OA
ATOM     13  C   UNL     1       4.010   4.496  20.060  0.00  0.00    +0.000 C 
ENDROOT
BRANCH   1  18
ATOM     14  C   UNL     1       7.341   4.224  12.122  0.00  0.00    +0.000 C 
ATOM     15  C   UNL     1       6.717   4.445  13.461  0.00  0.00    +0.000 A 
ATOM     16  C   UNL     1       5.558   3.900  13.850  0.00  0.00    +0.000 A 
ATOM     17  C   UNL     1       4.979   4.251  15.125  0.00  0.00    +0.000 A 
ATOM     18  C   UNL     1       5.642   4.988  16.035  0.00  0.00    +0.000 A 
ATOM     19  C   UNL     1       6.981   5.544  15.627  0.00  0.00    +0.000 A 
ATOM     20  O   UNL     1       7.697   6.213  16.364  0.00  0.00    +0.000 OA
ATOM     21  N   UNL     1       7.391   5.263  14.342  0.00  0.00    +0.000 N 
ATOM     22  H   UNL     1       8.274   5.686  14.076  0.00  0.00    +0.000 HD
ENDBRANCH   1  18
TORSDOF 1
ENDMDL
MODEL 9
REMARK VINA RESULT:      -6.7      2.446      3.626
REMARK  Name = 
REMARK  3 active torsions:
REMARK  status: ('A' for Active; 'I' for Inactive)
REMARK    1  A    between atoms: C_1  and  C_2
REMARK    2  A    between atoms: C_5  and  C_6
REMARK    3  A    between atoms: N_14  and  C_15
REMARK                            x       y       z     vdW  Elec       q    Type
REMARK                         _______ _______ _______ _____ _____    ______ ____
ROOT
ATOM      1  C   UNL     1       5.787   4.592  17.910  0.00  0.00    +0.000 C 
ATOM      2  O   UNL     1       6.699   4.271  18.676  0.00  0.00    +0.000 OA
ATOM      3  N   UNL     1       4.532   4.885  18.415  0.00  0.00    +0.000 N 
ATOM      4  C   UNL     1       4.258   4.567  19.817  0.00  0.00    +0.000 C 
ATOM      5  C   UNL     1       2.949   5.307  20.158  0.00  0.00    +0.000 C 
ATOM      6  C   UNL     1       2.505   5.951  18.842  0.00  0.00    +0.000 C 
ATOM      7  C   UNL     1       3.255   5.173  17.754  0.00  0.00    +0.000 C 
ATOM      8  C   UNL     1       2.498   3.883  17.368  0.00  0.00    +0.000 C 
ATOM      9  N   UNL     1       2.230   3.036  18.534  0.00  0.00    +0.000 N 
ATOM     10  C   UNL     1       0.924   2.433  18.660  0.00  0.00    +0.000 C 
ATOM     11  C   UNL     1       3.300   2.298  19.029  0.00  0.00    +0.000 C 
ATOM     12  O   UNL     1       3.412   1.088  18.840  0.00  0.00    +0.000 OA
ATOM     13  C   UNL     1       4.160   3.048  20.033  0.00  0.00    +0.000 C 
ENDROOT
BRANCH   1  18
ATOM     14  C   UNL     1       7.417   4.552  12.335  0.00  0.00    +0.000 C 
ATOM     15  C   UNL     1       6.962   4.652  13.755  0.00  0.00    +0.000 A 
ATOM     16  C   UNL     1       7.125   5.736  14.523  0.00  0.00    +0.000 A 
ATOM     17  C   UNL     1       6.747   5.706  15.916  0.00  0.00    +0.000 A 
ATOM     18  C   UNL     1       6.071   4.675  16.453  0.00  0.00    +0.000 A 
ATOM     19  C   UNL     1       5.822   3.480  15.570  0.00  0.00    +0.000 A 
ATOM     20  O   UNL     1       5.202   2.484  15.927  0.00  0.00    +0.000 OA
ATOM     21  N   UNL     1       6.335   3.549  14.293  0.00  0.00    +0.000 N 
ATOM     22  H   UNL     1       6.194   2.715  13.734  0.00  0.00    +0.000 HD
ENDBRANCH   1  18
TORSDOF 1
ENDMDL
