MODEL 1
REMARK VINA RESULT:      -7.8      0.000      0.000
REMARK  Name = 
REMARK  4 active torsions:
REMARK  status: ('A' for Active; 'I' for Inactive)
REMARK    1  A    between atoms: C_1  and  C_2
REMARK    2  A    between atoms: C_7  and  C_8
REMARK    3  A    between atoms: C_8  and  C_10
REMARK    4  A    between atoms: C_13  and  C_14
REMARK                            x       y       z     vdW  Elec       q    Type
REMARK                         _______ _______ _______ _____ _____    ______ ____
ROOT
ATOM      1  C   UNL     1       0.469  12.135  18.850  0.00  0.00    +0.000 C 
ATOM      2  O   UNL     1       1.282  13.065  18.912  0.00  0.00    +0.000 OA
ENDROOT
BRANCH   1   9
ATOM      3  C   UNL     1      -7.557  12.042  19.708  0.00  0.00    +0.000 C 
ATOM      4  C   UNL     1      -6.061  12.172  19.746  0.00  0.00    +0.000 C 
ATOM      5  C   UNL     1      -5.303  11.858  18.680  0.00  0.00    +0.000 C 
ATOM      6  C   UNL     1      -3.810  11.946  18.787  0.00  0.00    +0.000 C 
ATOM      7  N   UNL     1      -3.178  11.470  17.777  0.00  0.00    +0.000 NA
ATOM      8  C   UNL     1      -1.726  11.383  17.837  0.00  0.00    +0.000 C 
ATOM      9  C   UNL     1      -1.041  12.454  18.666  0.00  0.00    +0.000 C 
ATOM     10  C   UNL     1      -1.763  12.563  20.041  0.00  0.00    +0.000 C 
ATOM     11  N   UNL     1      -3.236  12.477  19.942  0.00  0.00    +0.000 N 
ATOM     12  C   UNL     1      -4.077  12.764  21.022  0.00  0.00    +0.000 C 
ATOM     13  C   UNL     1      -5.418  12.625  20.973  0.00  0.00    +0.000 C 
ENDBRANCH   1   9
BRANCH   1  14
ATOM     14  C   UNL     1       1.060  10.720  18.887  0.00  0.00    +0.000 A 
ATOM     15  C   UNL     1       0.796   9.944  20.028  0.00  0.00    +0.000 A 
ATOM     16  C   UNL     1       1.282   8.623  20.174  0.00  0.00    +0.000 A 
ATOM     17  C   UNL     1       2.046   7.987  19.182  0.00  0.00    +0.000 A 
ATOM     18  C   UNL     1       2.275   8.753  18.024  0.00  0.00    +0.000 A 
ATOM     19  C   UNL     1       1.804  10.088  17.885  0.00  0.00    +0.000 A 
BRANCH  17  20
ATOM     20  C   UNL     1       2.584   6.602  19.370  0.00  0.00    +0.000 A 
ATOM     21  C   UNL     1       3.554   6.060  18.499  0.00  0.00    +0.000 A 
ATOM     22  C   UNL     1       4.016   4.737  18.619  0.00  0.00    +0.000 A 
ATOM     23  C   UNL     1       3.521   3.925  19.631  0.00  0.00    +0.000 A 
ATOM     24 BR   UNL     1       4.107   2.133  19.775  0.00  0.00    +0.000 Br
ATOM     25  C   UNL     1       2.586   4.428  20.529  0.00  0.00    +0.000 A 
ATOM     26  C   UNL     1       2.128   5.752  20.397  0.00  0.00    +0.000 A 
ENDBRANCH  17  20
ENDBRANCH   1  14
TORSDOF 3
ENDMDL
MODEL 2
REMARK VINA RESULT:      -7.8      1.884      2.697
REMARK  Name = 
REMARK  4 active torsions:
REMARK  status: ('A' for Active; 'I' for Inactive)
REMARK    1  A    between atoms: C_1  and  C_2
REMARK    2  A    between atoms: C_7  and  C_8
REMARK    3  A    between atoms: C_8  and  C_10
REMARK    4  A    between atoms: C_13  and  C_14
REMARK                            x       y       z     vdW  Elec       q    Type
REMARK                         _______ _______ _______ _____ _____    ______ ____
ROOT
ATOM      1  C   UNL     1       0.094  10.612  20.610  0.00  0.00    +0.000 C 
ATOM      2  O   UNL     1       0.666  11.263  21.492  0.00  0.00    +0.000 OA
ENDROOT
BRANCH   1   9
ATOM      3  C   UNL     1      -6.898  12.983  17.347  0.00  0.00    +0.000 C 
ATOM      4  C   UNL     1      -5.589  12.391  17.784  0.00  0.00    +0.000 C 
ATOM      5  C   UNL     1      -5.046  12.695  18.977  0.00  0.00    +0.000 C 
ATOM      6  C   UNL     1      -3.707  12.126  19.342  0.00  0.00    +0.000 C 
ATOM      7  N   UNL     1      -3.206  12.604  20.422  0.00  0.00    +0.000 NA
ATOM      8  C   UNL     1      -1.852  12.220  20.795  0.00  0.00    +0.000 C 
ATOM      9  C   UNL     1      -1.426  10.829  20.368  0.00  0.00    +0.000 C 
ATOM     10  C   UNL     1      -1.788  10.631  18.866  0.00  0.00    +0.000 C 
ATOM     11  N   UNL     1      -3.108  11.190  18.500  0.00  0.00    +0.000 N 
ATOM     12  C   UNL     1      -3.712  10.935  17.265  0.00  0.00    +0.000 C 
ATOM     13  C   UNL     1      -4.882  11.490  16.884  0.00  0.00    +0.000 C 
ENDBRANCH   1   9
BRANCH   1  14
ATOM     14  C   UNL     1       0.984   9.687  19.770  0.00  0.00    +0.000 A 
ATOM     15  C   UNL     1       1.345   8.454  20.339  0.00  0.00    +0.000 A 
ATOM     16  C   UNL     1       2.157   7.516  19.659  0.00  0.00    +0.000 A 
ATOM     17  C   UNL     1       2.644   7.740  18.361  0.00  0.00    +0.000 A 
ATOM     18  C   UNL     1       2.248   8.959  17.780  0.00  0.00    +0.000 A 
ATOM     19  C   UNL     1       1.448   9.912  18.470  0.00  0.00    +0.000 A 
BRANCH  17  20
ATOM     20  C   UNL     1       3.533   6.752  17.672  0.00  0.00    +0.000 A 
ATOM     21  C   UNL     1       4.630   7.166  16.885  0.00  0.00    +0.000 A 
ATOM     22  C   UNL     1       5.431   6.255  16.174  0.00  0.00    +0.000 A 
ATOM     23  C   UNL     1       5.155   4.895  16.245  0.00  0.00    +0.000 A 
ATOM     24 BR   UNL     1       6.201   3.666  15.260  0.00  0.00    +0.000 Br
ATOM     25  C   UNL     1       4.101   4.442  17.032  0.00  0.00    +0.000 A 
ATOM     26  C   UNL     1       3.304   5.364  17.736  0.00  0.00    +0.000 A 
ENDBRANCH  17  20
ENDBRANCH   1  14
TORSDOF 3
ENDMDL
MODEL 3
REMARK VINA RESULT:      -7.8      1.762      2.836
REMARK  Name = 
REMARK  4 active torsions:
REMARK  status: ('A' for Active; 'I' for Inactive)
REMARK    1  A    between atoms: C_1  and  C_2
REMARK    2  A    between atoms: C_7  and  C_8
REMARK    3  A    between atoms: C_8  and  C_10
REMARK    4  A    between atoms: C_13  and  C_14
REMARK                            x       y       z     vdW  Elec       q    Type
REMARK                         _______ _______ _______ _____ _____    ______ ____
ROOT
ATOM      1  C   UNL     1       0.129  10.852  20.473  0.00  0.00    +0.000 C 
ATOM      2  O   UNL     1       0.755  11.712  21.103  0.00  0.00    +0.000 OA
ENDROOT
BRANCH   1   9
ATOM      3  C   UNL     1      -7.151  13.042  17.760  0.00  0.00    +0.000 C 
ATOM      4  C   UNL     1      -5.788  12.500  18.081  0.00  0.00    +0.000 C 
ATOM      5  C   UNL     1      -5.205  12.730  19.272  0.00  0.00    +0.000 C 
ATOM      6  C   UNL     1      -3.817  12.220  19.522  0.00  0.00    +0.000 C 
ATOM      7  N   UNL     1      -3.293  12.631  20.619  0.00  0.00    +0.000 NA
ATOM      8  C   UNL     1      -1.901  12.305  20.894  0.00  0.00    +0.000 C 
ATOM      9  C   UNL     1      -1.412  10.989  20.320  0.00  0.00    +0.000 C 
ATOM     10  C   UNL     1      -1.837  10.904  18.824  0.00  0.00    +0.000 C 
ATOM     11  N   UNL     1      -3.204  11.405  18.571  0.00  0.00    +0.000 N 
ATOM     12  C   UNL     1      -3.854  11.223  17.345  0.00  0.00    +0.000 C 
ATOM     13  C   UNL     1      -5.073  11.732  17.070  0.00  0.00    +0.000 C 
ENDBRANCH   1   9
BRANCH   1  14
ATOM     14  C   UNL     1       0.972   9.747  19.824  0.00  0.00    +0.000 A 
ATOM     15  C   UNL     1       1.449   9.984  18.524  0.00  0.00    +0.000 A 
ATOM     16  C   UNL     1       2.241   9.042  17.825  0.00  0.00    +0.000 A 
ATOM     17  C   UNL     1       2.622   7.812  18.386  0.00  0.00    +0.000 A 
ATOM     18  C   UNL     1       2.174   7.596  19.703  0.00  0.00    +0.000 A 
ATOM     19  C   UNL     1       1.362   8.534  20.399  0.00  0.00    +0.000 A 
BRANCH  17  20
ATOM     20  C   UNL     1       3.428   6.812  17.618  0.00  0.00    +0.000 A 
ATOM     21  C   UNL     1       3.277   5.423  17.825  0.00  0.00    +0.000 A 
ATOM     22  C   UNL     1       4.076   4.474  17.163  0.00  0.00    +0.000 A 
ATOM     23  C   UNL     1       5.046   4.898  16.263  0.00  0.00    +0.000 A 
ATOM     24 BR   UNL     1       6.153   3.631  15.400  0.00  0.00    +0.000 Br
ATOM     25  C   UNL     1       5.209   6.256  16.009  0.00  0.00    +0.000 A 
ATOM     26  C   UNL     1       4.405   7.197  16.679  0.00  0.00    +0.000 A 
ENDBRANCH  17  20
ENDBRANCH   1  14
TORSDOF 3
ENDMDL
MODEL 4
REMARK VINA RESULT:      -7.7      3.056      4.223
REMARK  Name = 
REMARK  4 active torsions:
REMARK  status: ('A' for Active; 'I' for Inactive)
REMARK    1  A    between atoms: C_1  and  C_2
REMARK    2  A    between atoms: C_7  and  C_8
REMARK    3  A    between atoms: C_8  and  C_10
REMARK    4  A    between atoms: C_13  and  C_14
REMARK                            x       y       z     vdW  Elec       q    Type
REMARK                         _______ _______ _______ _____ _____    ______ ____
ROOT
ATOM      1  C   UNL     1      -0.724  11.017  20.174  0.00  0.00    +0.000 C 
ATOM      2  O   UNL     1      -1.714  11.193  19.455  0.00  0.00    +0.000 OA
ENDROOT
BRANCH   1   9
ATOM      3  C   UNL     1      -1.877  16.528  25.959  0.00  0.00    +0.000 C 
ATOM      4  C   UNL     1      -1.859  15.413  24.954  0.00  0.00    +0.000 C 
ATOM      5  C   UNL     1      -0.767  15.157  24.210  0.00  0.00    +0.000 C 
ATOM      6  C   UNL     1      -0.819  14.072  23.176  0.00  0.00    +0.000 C 
ATOM      7  N   UNL     1       0.211  14.018  22.413  0.00  0.00    +0.000 NA
ATOM      8  C   UNL     1       0.204  13.091  21.291  0.00  0.00    +0.000 C 
ATOM      9  C   UNL     1      -0.594  11.818  21.500  0.00  0.00    +0.000 C 
ATOM     10  C   UNL     1      -1.994  12.190  22.070  0.00  0.00    +0.000 C 
ATOM     11  N   UNL     1      -1.949  13.259  23.091  0.00  0.00    +0.000 N 
ATOM     12  C   UNL     1      -3.059  13.592  23.876  0.00  0.00    +0.000 C 
ATOM     13  C   UNL     1      -3.060  14.609  24.763  0.00  0.00    +0.000 C 
ENDBRANCH   1   9
BRANCH   1  14
ATOM     14  C   UNL     1       0.264   9.941  19.709  0.00  0.00    +0.000 A 
ATOM     15  C   UNL     1       0.625   9.945  18.351  0.00  0.00    +0.000 A 
ATOM     16  C   UNL     1       1.532   9.006  17.806  0.00  0.00    +0.000 A 
ATOM     17  C   UNL     1       2.151   8.015  18.585  0.00  0.00    +0.000 A 
ATOM     18  C   UNL     1       1.817   8.039  19.953  0.00  0.00    +0.000 A 
ATOM     19  C   UNL     1       0.890   8.970  20.497  0.00  0.00    +0.000 A 
BRANCH  17  20
ATOM     20  C   UNL     1       3.079   7.005  17.984  0.00  0.00    +0.000 A 
ATOM     21  C   UNL     1       4.218   7.394  17.245  0.00  0.00    +0.000 A 
ATOM     22  C   UNL     1       5.059   6.460  16.615  0.00  0.00    +0.000 A 
ATOM     23  C   UNL     1       4.782   5.102  16.723  0.00  0.00    +0.000 A 
ATOM     24 BR   UNL     1       5.884   3.841  15.844  0.00  0.00    +0.000 Br
ATOM     25  C   UNL     1       3.687   4.675  17.465  0.00  0.00    +0.000 A 
ATOM     26  C   UNL     1       2.850   5.619  18.089  0.00  0.00    +0.000 A 
ENDBRANCH  17  20
ENDBRANCH   1  14
TORSDOF 3
ENDMDL
MODEL 5
REMARK VINA RESULT:      -7.7      0.756      1.194
REMARK  Name = 
REMARK  4 active torsions:
REMARK  status: ('A' for Active; 'I' for Inactive)
REMARK    1  A    between atoms: C_1  and  C_2
REMARK    2  A    between atoms: C_7  and  C_8
REMARK    3  A    between atoms: C_8  and  C_10
REMARK    4  A    between atoms: C_13  and  C_14
REMARK                            x       y       z     vdW  Elec       q    Type
REMARK                         _______ _______ _______ _____ _____    ______ ____
ROOT
ATOM      1  C   UNL     1       0.671  11.610  19.216  0.00  0.00    +0.000 C 
ATOM      2  O   UNL     1       1.536  12.456  19.470  0.00  0.00    +0.000 OA
ENDROOT
BRANCH   1   9
ATOM      3  C   UNL     1      -7.350  12.498  19.036  0.00  0.00    +0.000 C 
ATOM      4  C   UNL     1      -5.865  12.463  19.256  0.00  0.00    +0.000 C 
ATOM      5  C   UNL     1      -5.031  11.965  18.325  0.00  0.00    +0.000 C 
ATOM      6  C   UNL     1      -3.561  11.896  18.617  0.00  0.00    +0.000 C 
ATOM      7  N   UNL     1      -2.877  11.258  17.738  0.00  0.00    +0.000 NA
ATOM      8  C   UNL     1      -1.464  11.016  17.992  0.00  0.00    +0.000 C 
ATOM      9  C   UNL     1      -0.756  12.077  18.813  0.00  0.00    +0.000 C 
ATOM     10  C   UNL     1      -1.617  12.397  20.070  0.00  0.00    +0.000 C 
ATOM     11  N   UNL     1      -3.067  12.467  19.789  0.00  0.00    +0.000 N 
ATOM     12  C   UNL     1      -3.989  12.948  20.725  0.00  0.00    +0.000 C 
ATOM     13  C   UNL     1      -5.322  12.956  20.515  0.00  0.00    +0.000 C 
ENDBRANCH   1   9
BRANCH   1  14
ATOM     14  C   UNL     1       1.128  10.147  19.251  0.00  0.00    +0.000 A 
ATOM     15  C   UNL     1       1.625   9.600  18.056  0.00  0.00    +0.000 A 
ATOM     16  C   UNL     1       2.082   8.265  17.968  0.00  0.00    +0.000 A 
ATOM     17  C   UNL     1       2.090   7.395  19.070  0.00  0.00    +0.000 A 
ATOM     18  C   UNL     1       1.629   7.958  20.275  0.00  0.00    +0.000 A 
ATOM     19  C   UNL     1       1.151   9.295  20.360  0.00  0.00    +0.000 A 
BRANCH  17  20
ATOM     20  C   UNL     1       2.542   5.972  18.949  0.00  0.00    +0.000 A 
ATOM     21  C   UNL     1       3.552   5.591  18.040  0.00  0.00    +0.000 A 
ATOM     22  C   UNL     1       3.938   4.250  17.864  0.00  0.00    +0.000 A 
ATOM     23  C   UNL     1       3.321   3.254  18.610  0.00  0.00    +0.000 A 
ATOM     24 BR   UNL     1       3.803   1.444  18.350  0.00  0.00    +0.000 Br
ATOM     25  C   UNL     1       2.340   3.589  19.538  0.00  0.00    +0.000 A 
ATOM     26  C   UNL     1       1.961   4.934  19.703  0.00  0.00    +0.000 A 
ENDBRANCH  17  20
ENDBRANCH   1  14
TORSDOF 3
ENDMDL
MODEL 6
REMARK VINA RESULT:      -7.7      0.708      1.490
REMARK  Name = 
REMARK  4 active torsions:
REMARK  status: ('A' for Active; 'I' for Inactive)
REMARK    1  A    between atoms: C_1  and  C_2
REMARK    2  A    between atoms: C_7  and  C_8
REMARK    3  A    between atoms: C_8  and  C_10
REMARK    4  A    between atoms: C_13  and  C_14
REMARK                            x       y       z     vdW  Elec       q    Type
REMARK                         _______ _______ _______ _____ _____    ______ ____
ROOT
ATOM      1  C   UNL     1       0.758  11.798  18.956  0.00  0.00    +0.000 C 
ATOM      2  O   UNL     1       1.682  12.603  18.791  0.00  0.00    +0.000 OA
ENDROOT
BRANCH   1   9
ATOM      3  C   UNL     1      -7.095  12.594  20.646  0.00  0.00    +0.000 C 
ATOM      4  C   UNL     1      -5.599  12.539  20.537  0.00  0.00    +0.000 C 
ATOM      5  C   UNL     1      -4.992  12.235  19.374  0.00  0.00    +0.000 C 
ATOM      6  C   UNL     1      -3.497  12.132  19.330  0.00  0.00    +0.000 C 
ATOM      7  N   UNL     1      -3.030  11.680  18.224  0.00  0.00    +0.000 NA
ATOM      8  C   UNL     1      -1.602  11.414  18.124  0.00  0.00    +0.000 C 
ATOM      9  C   UNL     1      -0.709  12.312  18.958  0.00  0.00    +0.000 C 
ATOM     10  C   UNL     1      -1.278  12.380  20.406  0.00  0.00    +0.000 C 
ATOM     11  N   UNL     1      -2.752  12.482  20.456  0.00  0.00    +0.000 N 
ATOM     12  C   UNL     1      -3.443  12.766  21.639  0.00  0.00    +0.000 C 
ATOM     13  C   UNL     1      -4.790  12.795  21.721  0.00  0.00    +0.000 C 
ENDBRANCH   1   9
BRANCH   1  14
ATOM     14  C   UNL     1       1.161  10.323  19.071  0.00  0.00    +0.000 A 
ATOM     15  C   UNL     1       1.717   9.719  17.930  0.00  0.00    +0.000 A 
ATOM     16  C   UNL     1       2.132   8.367  17.916  0.00  0.00    +0.000 A 
ATOM     17  C   UNL     1       2.037   7.536  19.045  0.00  0.00    +0.000 A 
ATOM     18  C   UNL     1       1.517   8.156  20.197  0.00  0.00    +0.000 A 
ATOM     19  C   UNL     1       1.081   9.510  20.206  0.00  0.00    +0.000 A 
BRANCH  17  20
ATOM     20  C   UNL     1       2.447   6.097  19.001  0.00  0.00    +0.000 A 
ATOM     21  C   UNL     1       2.308   5.253  20.124  0.00  0.00    +0.000 A 
ATOM     22  C   UNL     1       2.752   3.919  20.121  0.00  0.00    +0.000 A 
ATOM     23  C   UNL     1       3.342   3.393  18.978  0.00  0.00    +0.000 A 
ATOM     24 BR   UNL     1       3.981   1.613  18.979  0.00  0.00    +0.000 Br
ATOM     25  C   UNL     1       3.473   4.182  17.840  0.00  0.00    +0.000 A 
ATOM     26  C   UNL     1       3.027   5.517  17.856  0.00  0.00    +0.000 A 
ENDBRANCH  17  20
ENDBRANCH   1  14
TORSDOF 3
ENDMDL
MODEL 7
REMARK VINA RESULT:      -7.6      3.615      4.379
REMARK  Name = 
REMARK  4 active torsions:
REMARK  status: ('A' for Active; 'I' for Inactive)
REMARK    1  A    between atoms: C_1  and  C_2
REMARK    2  A    between atoms: C_7  and  C_8
REMARK    3  A    between atoms: C_8  and  C_10
REMARK    4  A    between atoms: C_13  and  C_14
REMARK                            x       y       z     vdW  Elec       q    Type
REMARK                         _______ _______ _______ _____ _____    ______ ____
ROOT
ATOM      1  C   UNL     1       0.104   9.074  21.578  0.00  0.00    +0.000 C 
ATOM      2  O   UNL     1      -0.755   8.336  22.075  0.00  0.00    +0.000 OA
ENDROOT
BRANCH   1   9
ATOM      3  C   UNL     1      -1.267  16.871  23.154  0.00  0.00    +0.000 C 
ATOM      4  C   UNL     1      -1.174  15.379  23.015  0.00  0.00    +0.000 C 
ATOM      5  C   UNL     1      -0.175  14.800  22.324  0.00  0.00    +0.000 C 
ATOM      6  C   UNL     1      -0.159  13.309  22.162  0.00  0.00    +0.000 C 
ATOM      7  N   UNL     1       0.737  12.874  21.353  0.00  0.00    +0.000 NA
ATOM      8  C   UNL     1       0.751  11.457  21.020  0.00  0.00    +0.000 C 
ATOM      9  C   UNL     1       0.265  10.524  22.113  0.00  0.00    +0.000 C 
ATOM     10  C   UNL     1      -1.081  11.067  22.676  0.00  0.00    +0.000 C 
ATOM     11  N   UNL     1      -1.103  12.537  22.838  0.00  0.00    +0.000 N 
ATOM     12  C   UNL     1      -2.128  13.200  23.521  0.00  0.00    +0.000 C 
ATOM     13  C   UNL     1      -2.202  14.543  23.621  0.00  0.00    +0.000 C 
ENDBRANCH   1   9
BRANCH   1  14
ATOM     14  C   UNL     1       0.999   8.439  20.506  0.00  0.00    +0.000 A 
ATOM     15  C   UNL     1       1.556   7.182  20.797  0.00  0.00    +0.000 A 
ATOM     16  C   UNL     1       2.392   6.496  19.885  0.00  0.00    +0.000 A 
ATOM     17  C   UNL     1       2.709   7.011  18.617  0.00  0.00    +0.000 A 
ATOM     18  C   UNL     1       2.117   8.252  18.314  0.00  0.00    +0.000 A 
ATOM     19  C   UNL     1       1.293   8.951  19.239  0.00  0.00    +0.000 A 
BRANCH  17  20
ATOM     20  C   UNL     1       3.626   6.288  17.680  0.00  0.00    +0.000 A 
ATOM     21  C   UNL     1       4.524   6.982  16.840  0.00  0.00    +0.000 A 
ATOM     22  C   UNL     1       5.340   6.322  15.905  0.00  0.00    +0.000 A 
ATOM     23  C   UNL     1       5.282   4.938  15.797  0.00  0.00    +0.000 A 
ATOM     24 BR   UNL     1       6.346   4.046  14.513  0.00  0.00    +0.000 Br
ATOM     25  C   UNL     1       4.432   4.213  16.625  0.00  0.00    +0.000 A 
ATOM     26  C   UNL     1       3.617   4.885  17.555  0.00  0.00    +0.000 A 
ENDBRANCH  17  20
ENDBRANCH   1  14
TORSDOF 3
ENDMDL
MODEL 8
REMARK VINA RESULT:      -7.6      2.497      3.415
REMARK  Name = 
REMARK  4 active torsions:
REMARK  status: ('A' for Active; 'I' for Inactive)
REMARK    1  A    between atoms: C_1  and  C_2
REMARK    2  A    between atoms: C_7  and  C_8
REMARK    3  A    between atoms: C_8  and  C_10
REMARK    4  A    between atoms: C_13  and  C_14
REMARK                            x       y       z     vdW  Elec       q    Type
REMARK                         _______ _______ _______ _____ _____    ______ ____
ROOT
ATOM      1  C   UNL     1       0.854  11.449  19.464  0.00  0.00    +0.000 C 
ATOM      2  O   UNL     1       0.742  12.208  18.494  0.00  0.00    +0.000 OA
ENDROOT
BRANCH   1   9
ATOM      3  C   UNL     1      -3.093  15.225  25.408  0.00  0.00    +0.000 C 
ATOM      4  C   UNL     1      -2.538  14.383  24.295  0.00  0.00    +0.000 C 
ATOM      5  C   UNL     1      -1.262  14.512  23.888  0.00  0.00    +0.000 C 
ATOM      6  C   UNL     1      -0.773  13.692  22.731  0.00  0.00    +0.000 C 
ATOM      7  N   UNL     1       0.401  14.006  22.319  0.00  0.00    +0.000 NA
ATOM      8  C   UNL     1       0.916  13.365  21.118  0.00  0.00    +0.000 C 
ATOM      9  C   UNL     1       0.432  11.948  20.875  0.00  0.00    +0.000 C 
ATOM     10  C   UNL     1      -1.115  11.910  21.043  0.00  0.00    +0.000 C 
ATOM     11  N   UNL     1      -1.604  12.716  22.182  0.00  0.00    +0.000 N 
ATOM     12  C   UNL     1      -2.926  12.648  22.635  0.00  0.00    +0.000 C 
ATOM     13  C   UNL     1      -3.410  13.426  23.626  0.00  0.00    +0.000 C 
ENDBRANCH   1   9
BRANCH   1  14
ATOM     14  C   UNL     1       1.342  10.028  19.155  0.00  0.00    +0.000 A 
ATOM     15  C   UNL     1       1.212   9.070  20.175  0.00  0.00    +0.000 A 
ATOM     16  C   UNL     1       1.620   7.726  20.005  0.00  0.00    +0.000 A 
ATOM     17  C   UNL     1       2.166   7.249  18.803  0.00  0.00    +0.000 A 
ATOM     18  C   UNL     1       2.258   8.203  17.772  0.00  0.00    +0.000 A 
ATOM     19  C   UNL     1       1.866   9.559  17.947  0.00  0.00    +0.000 A 
BRANCH  17  20
ATOM     20  C   UNL     1       2.628   5.832  18.654  0.00  0.00    +0.000 A 
ATOM     21  C   UNL     1       1.887   4.885  17.916  0.00  0.00    +0.000 A 
ATOM     22  C   UNL     1       2.270   3.535  17.827  0.00  0.00    +0.000 A 
ATOM     23  C   UNL     1       3.422   3.103  18.472  0.00  0.00    +0.000 A 
ATOM     24 BR   UNL     1       3.922   1.281  18.391  0.00  0.00    +0.000 Br
ATOM     25  C   UNL     1       4.198   4.009  19.187  0.00  0.00    +0.000 A 
ATOM     26  C   UNL     1       3.802   5.357  19.272  0.00  0.00    +0.000 A 
ENDBRANCH  17  20
ENDBRANCH   1  14
TORSDOF 3
ENDMDL
MODEL 9
REMARK VINA RESULT:      -7.6      1.411      2.077
REMARK  Name = 
REMARK  4 active torsions:
REMARK  status: ('A' for Active; 'I' for Inactive)
REMARK    1  A    between atoms: C_1  and  C_2
REMARK    2  A    between atoms: C_7  and  C_8
REMARK    3  A    between atoms: C_8  and  C_10
REMARK    4  A    between atoms: C_13  and  C_14
REMARK                            x       y       z     vdW  Elec       q    Type
REMARK                         _______ _______ _______ _____ _____    ______ ____
ROOT
ATOM      1  C   UNL     1       0.766  12.109  19.145  0.00  0.00    +0.000 C 
ATOM      2  O   UNL     1       1.549  12.850  18.539  0.00  0.00    +0.000 OA
ENDROOT
BRANCH   1   9
ATOM      3  C   UNL     1      -5.953  13.072  23.514  0.00  0.00    +0.000 C 
ATOM      4  C   UNL     1      -4.592  12.950  22.892  0.00  0.00    +0.000 C 
ATOM      5  C   UNL     1      -4.440  12.800  21.563  0.00  0.00    +0.000 C 
ATOM      6  C   UNL     1      -3.064  12.620  20.996  0.00  0.00    +0.000 C 
ATOM      7  N   UNL     1      -3.040  12.322  19.748  0.00  0.00    +0.000 NA
ATOM      8  C   UNL     1      -1.763  11.994  19.131  0.00  0.00    +0.000 C 
ATOM      9  C   UNL     1      -0.554  12.698  19.717  0.00  0.00    +0.000 C 
ATOM     10  C   UNL     1      -0.601  12.570  21.268  0.00  0.00    +0.000 C 
ATOM     11  N   UNL     1      -1.955  12.745  21.833  0.00  0.00    +0.000 N 
ATOM     12  C   UNL     1      -2.182  12.879  23.208  0.00  0.00    +0.000 C 
ATOM     13  C   UNL     1      -3.414  12.970  23.749  0.00  0.00    +0.000 C 
ENDBRANCH   1   9
BRANCH   1  14
ATOM     14  C   UNL     1       1.154  10.626  19.207  0.00  0.00    +0.000 A 
ATOM     15  C   UNL     1       1.764  10.074  18.068  0.00  0.00    +0.000 A 
ATOM     16  C   UNL     1       2.170   8.721  18.009  0.00  0.00    +0.000 A 
ATOM     17  C   UNL     1       2.012   7.837  19.089  0.00  0.00    +0.000 A 
ATOM     18  C   UNL     1       1.436   8.404  20.242  0.00  0.00    +0.000 A 
ATOM     19  C   UNL     1       1.009   9.759  20.295  0.00  0.00    +0.000 A 
BRANCH  17  20
ATOM     20  C   UNL     1       2.414   6.397  18.995  0.00  0.00    +0.000 A 
ATOM     21  C   UNL     1       3.078   5.886  17.859  0.00  0.00    +0.000 A 
ATOM     22  C   UNL     1       3.398   4.524  17.725  0.00  0.00    +0.000 A 
ATOM     23  C   UNL     1       3.067   3.636  18.742  0.00  0.00    +0.000 A 
ATOM     24 BR   UNL     1       3.457   1.796  18.553  0.00  0.00    +0.000 Br
ATOM     25  C   UNL     1       2.438   4.103  19.892  0.00  0.00    +0.000 A 
ATOM     26  C   UNL     1       2.119   5.468  20.012  0.00  0.00    +0.000 A 
ENDBRANCH  17  20
ENDBRANCH   1  14
TORSDOF 3
ENDMDL
