MODEL 1
REMARK VINA RESULT:      -7.4      0.000      0.000
REMARK  Name = 
REMARK  4 active torsions:
REMARK  status: ('A' for Active; 'I' for Inactive)
REMARK    1  A    between atoms: C_1  and  C_2
REMARK    2  A    between atoms: C_12  and  C_13
REMARK    3  A    between atoms: N_15  and  C_16
REMARK    4  A    between atoms: N_15  and  C_17
REMARK                            x       y       z     vdW  Elec       q    Type
REMARK                         _______ _______ _______ _____ _____    ______ ____
ROOT
ATOM      1  C   UNL     1       5.864   3.895  15.197  0.00  0.00    +0.000 C 
ATOM      2  C   UNL     1       5.171   4.220  16.480  0.00  0.00    +0.000 A 
ATOM      3  N   UNL     1       4.172   3.311  16.727  0.00  0.00    +0.000 NA
ATOM      4  C   UNL     1       3.271   3.531  17.705  0.00  0.00    +0.000 A 
ATOM      5  C   UNL     1       2.194   2.664  17.834  0.00  0.00    +0.000 A 
ATOM      6  C   UNL     1       1.199   2.905  18.776  0.00  0.00    +0.000 A 
ATOM      7  F   UNL     1       0.150   2.075  18.855  0.00  0.00    +0.000 F 
ATOM      8  C   UNL     1       1.265   4.008  19.612  0.00  0.00    +0.000 A 
ATOM      9  C   UNL     1       2.358   4.872  19.509  0.00  0.00    +0.000 A 
ATOM     10  C   UNL     1       3.362   4.637  18.550  0.00  0.00    +0.000 A 
ATOM     11  C   UNL     1       4.462   5.501  18.358  0.00  0.00    +0.000 A 
ATOM     12  C   UNL     1       5.388   5.318  17.311  0.00  0.00    +0.000 A 
ENDROOT
BRANCH  12  13
ATOM     13  C   UNL     1       6.318   6.495  17.136  0.00  0.00    +0.000 C 
ATOM     14  O   UNL     1       6.004   7.252  16.204  0.00  0.00    +0.000 OA
ATOM     15  N   UNL     1       7.390   6.839  17.966  0.00  0.00    +0.000 N 
ATOM     16  C   UNL     1       7.935   6.104  19.087  0.00  0.00    +0.000 C 
ATOM     17  C   UNL     1       8.007   8.151  17.773  0.00  0.00    +0.000 C 
ENDBRANCH  12  13
TORSDOF 1
ENDMDL
MODEL 2
REMARK VINA RESULT:      -7.4      3.459      5.821
REMARK  Name = 
REMARK  4 active torsions:
REMARK  status: ('A' for Active; 'I' for Inactive)
REMARK    1  A    between atoms: C_1  and  C_2
REMARK    2  A    between atoms: C_12  and  C_13
REMARK    3  A    between atoms: N_15  and  C_16
REMARK    4  A    between atoms: N_15  and  C_17
REMARK                            x       y       z     vdW  Elec       q    Type
REMARK                         _______ _______ _______ _____ _____    ______ ____
ROOT
ATOM      1  C   UNL     1       7.406   6.581  17.984  0.00  0.00    +0.000 C 
ATOM      2  C   UNL     1       6.880   5.542  17.048  0.00  0.00    +0.000 A 
ATOM      3  N   UNL     1       7.506   5.634  15.830  0.00  0.00    +0.000 NA
ATOM      4  C   UNL     1       7.041   4.951  14.766  0.00  0.00    +0.000 A 
ATOM      5  C   UNL     1       7.611   5.177  13.521  0.00  0.00    +0.000 A 
ATOM      6  C   UNL     1       7.104   4.554  12.385  0.00  0.00    +0.000 A 
ATOM      7  F   UNL     1       7.646   4.818  11.188  0.00  0.00    +0.000 F 
ATOM      8  C   UNL     1       6.025   3.689  12.472  0.00  0.00    +0.000 A 
ATOM      9  C   UNL     1       5.459   3.434  13.724  0.00  0.00    +0.000 A 
ATOM     10  C   UNL     1       5.965   4.070  14.875  0.00  0.00    +0.000 A 
ATOM     11  C   UNL     1       5.405   3.898  16.158  0.00  0.00    +0.000 A 
ATOM     12  C   UNL     1       5.843   4.638  17.275  0.00  0.00    +0.000 A 
ENDROOT
BRANCH  12  13
ATOM     13  C   UNL     1       4.937   4.486  18.474  0.00  0.00    +0.000 C 
ATOM     14  O   UNL     1       5.316   3.630  19.288  0.00  0.00    +0.000 OA
ATOM     15  N   UNL     1       3.818   5.270  18.775  0.00  0.00    +0.000 N 
ATOM     16  C   UNL     1       3.197   6.302  17.973  0.00  0.00    +0.000 C 
ATOM     17  C   UNL     1       3.226   5.129  20.106  0.00  0.00    +0.000 C 
ENDBRANCH  12  13
TORSDOF 1
ENDMDL
MODEL 3
REMARK VINA RESULT:      -7.2      3.254      5.656
REMARK  Name = 
REMARK  4 active torsions:
REMARK  status: ('A' for Active; 'I' for Inactive)
REMARK    1  A    between atoms: C_1  and  C_2
REMARK    2  A    between atoms: C_12  and  C_13
REMARK    3  A    between atoms: N_15  and  C_16
REMARK    4  A    between atoms: N_15  and  C_17
REMARK                            x       y       z     vdW  Elec       q    Type
REMARK                         _______ _______ _______ _____ _____    ______ ____
ROOT
ATOM      1  C   UNL     1       7.423   6.985  17.579  0.00  0.00    +0.000 C 
ATOM      2  C   UNL     1       6.727   5.948  16.758  0.00  0.00    +0.000 A 
ATOM      3  N   UNL     1       7.442   5.683  15.617  0.00  0.00    +0.000 NA
ATOM      4  C   UNL     1       6.901   4.952  14.623  0.00  0.00    +0.000 A 
ATOM      5  C   UNL     1       7.596   4.823  13.428  0.00  0.00    +0.000 A 
ATOM      6  C   UNL     1       7.034   4.146  12.350  0.00  0.00    +0.000 A 
ATOM      7  F   UNL     1       7.708   4.069  11.194  0.00  0.00    +0.000 F 
ATOM      8  C   UNL     1       5.773   3.579  12.447  0.00  0.00    +0.000 A 
ATOM      9  C   UNL     1       5.075   3.681  13.653  0.00  0.00    +0.000 A 
ATOM     10  C   UNL     1       5.637   4.373  14.744  0.00  0.00    +0.000 A 
ATOM     11  C   UNL     1       4.963   4.557  15.969  0.00  0.00    +0.000 A 
ATOM     12  C   UNL     1       5.488   5.359  17.003  0.00  0.00    +0.000 A 
ENDROOT
BRANCH  12  13
ATOM     13  C   UNL     1       4.489   5.627  18.104  0.00  0.00    +0.000 C 
ATOM     14  O   UNL     1       3.906   6.717  18.002  0.00  0.00    +0.000 OA
ATOM     15  N   UNL     1       4.113   4.741  19.120  0.00  0.00    +0.000 N 
ATOM     16  C   UNL     1       4.665   3.441  19.433  0.00  0.00    +0.000 C 
ATOM     17  C   UNL     1       2.950   5.094  19.935  0.00  0.00    +0.000 C 
ENDBRANCH  12  13
TORSDOF 1
ENDMDL
MODEL 4
REMARK VINA RESULT:      -7.0      1.812      2.868
REMARK  Name = 
REMARK  4 active torsions:
REMARK  status: ('A' for Active; 'I' for Inactive)
REMARK    1  A    between atoms: C_1  and  C_2
REMARK    2  A    between atoms: C_12  and  C_13
REMARK    3  A    between atoms: N_15  and  C_16
REMARK    4  A    between atoms: N_15  and  C_17
REMARK                            x       y       z     vdW  Elec       q    Type
REMARK                         _______ _______ _______ _____ _____    ______ ____
ROOT
ATOM      1  C   UNL     1       6.718   5.592  19.202  0.00  0.00    +0.000 C 
ATOM      2  C   UNL     1       5.299   5.330  18.814  0.00  0.00    +0.000 A 
ATOM      3  N   UNL     1       4.573   4.917  19.903  0.00  0.00    +0.000 NA
ATOM      4  C   UNL     1       3.334   4.410  19.750  0.00  0.00    +0.000 A 
ATOM      5  C   UNL     1       2.686   3.872  20.854  0.00  0.00    +0.000 A 
ATOM      6  C   UNL     1       1.442   3.265  20.719  0.00  0.00    +0.000 A 
ATOM      7  F   UNL     1       0.854   2.719  21.793  0.00  0.00    +0.000 F 
ATOM      8  C   UNL     1       0.817   3.192  19.485  0.00  0.00    +0.000 A 
ATOM      9  C   UNL     1       1.448   3.752  18.371  0.00  0.00    +0.000 A 
ATOM     10  C   UNL     1       2.713   4.360  18.502  0.00  0.00    +0.000 A 
ATOM     11  C   UNL     1       3.426   4.895  17.409  0.00  0.00    +0.000 A 
ATOM     12  C   UNL     1       4.742   5.385  17.537  0.00  0.00    +0.000 A 
ENDROOT
BRANCH  12  13
ATOM     13  C   UNL     1       5.400   5.661  16.205  0.00  0.00    +0.000 C 
ATOM     14  O   UNL     1       5.492   6.866  15.928  0.00  0.00    +0.000 OA
ATOM     15  N   UNL     1       5.979   4.715  15.352  0.00  0.00    +0.000 N 
ATOM     16  C   UNL     1       5.976   3.273  15.469  0.00  0.00    +0.000 C 
ATOM     17  C   UNL     1       6.786   5.209  14.236  0.00  0.00    +0.000 C 
ENDBRANCH  12  13
TORSDOF 1
ENDMDL
MODEL 5
REMARK VINA RESULT:      -6.9      3.360      5.944
REMARK  Name = 
REMARK  4 active torsions:
REMARK  status: ('A' for Active; 'I' for Inactive)
REMARK    1  A    between atoms: C_1  and  C_2
REMARK    2  A    between atoms: C_12  and  C_13
REMARK    3  A    between atoms: N_15  and  C_16
REMARK    4  A    between atoms: N_15  and  C_17
REMARK                            x       y       z     vdW  Elec       q    Type
REMARK                         _______ _______ _______ _____ _____    ______ ____
ROOT
ATOM      1  C   UNL     1       4.639   2.367  20.318  0.00  0.00    +0.000 C 
ATOM      2  C   UNL     1       4.787   3.407  19.254  0.00  0.00    +0.000 A 
ATOM      3  N   UNL     1       5.996   4.045  19.373  0.00  0.00    +0.000 NA
ATOM      4  C   UNL     1       6.254   5.164  18.669  0.00  0.00    +0.000 A 
ATOM      5  C   UNL     1       7.428   5.861  18.920  0.00  0.00    +0.000 A 
ATOM      6  C   UNL     1       7.690   7.065  18.273  0.00  0.00    +0.000 A 
ATOM      7  F   UNL     1       8.812   7.739  18.561  0.00  0.00    +0.000 F 
ATOM      8  C   UNL     1       6.791   7.590  17.359  0.00  0.00    +0.000 A 
ATOM      9  C   UNL     1       5.618   6.884  17.080  0.00  0.00    +0.000 A 
ATOM     10  C   UNL     1       5.344   5.670  17.739  0.00  0.00    +0.000 A 
ATOM     11  C   UNL     1       4.155   4.937  17.542  0.00  0.00    +0.000 A 
ATOM     12  C   UNL     1       3.842   3.792  18.303  0.00  0.00    +0.000 A 
ENDROOT
BRANCH  12  13
ATOM     13  C   UNL     1       2.418   3.328  18.111  0.00  0.00    +0.000 C 
ATOM     14  O   UNL     1       2.231   2.693  17.062  0.00  0.00    +0.000 OA
ATOM     15  N   UNL     1       1.369   3.461  19.028  0.00  0.00    +0.000 N 
ATOM     16  C   UNL     1       1.359   4.167  20.291  0.00  0.00    +0.000 C 
ATOM     17  C   UNL     1       0.134   2.724  18.761  0.00  0.00    +0.000 C 
ENDBRANCH  12  13
TORSDOF 1
ENDMDL
MODEL 6
REMARK VINA RESULT:      -6.8      1.344      1.546
REMARK  Name = 
REMARK  4 active torsions:
REMARK  status: ('A' for Active; 'I' for Inactive)
REMARK    1  A    between atoms: C_1  and  C_2
REMARK    2  A    between atoms: C_12  and  C_13
REMARK    3  A    between atoms: N_15  and  C_16
REMARK    4  A    between atoms: N_15  and  C_17
REMARK                            x       y       z     vdW  Elec       q    Type
REMARK                         _______ _______ _______ _____ _____    ______ ____
ROOT
ATOM      1  C   UNL     1       6.159   4.039  16.015  0.00  0.00    +0.000 C 
ATOM      2  C   UNL     1       5.412   4.011  17.309  0.00  0.00    +0.000 A 
ATOM      3  N   UNL     1       4.274   3.254  17.189  0.00  0.00    +0.000 NA
ATOM      4  C   UNL     1       3.334   3.269  18.154  0.00  0.00    +0.000 A 
ATOM      5  C   UNL     1       2.135   2.604  17.936  0.00  0.00    +0.000 A 
ATOM      6  C   UNL     1       1.109   2.666  18.874  0.00  0.00    +0.000 A 
ATOM      7  F   UNL     1      -0.054   2.048  18.623  0.00  0.00    +0.000 F 
ATOM      8  C   UNL     1       1.263   3.384  20.049  0.00  0.00    +0.000 A 
ATOM      9  C   UNL     1       2.475   4.036  20.290  0.00  0.00    +0.000 A 
ATOM     10  C   UNL     1       3.513   3.983  19.340  0.00  0.00    +0.000 A 
ATOM     11  C   UNL     1       4.739   4.663  19.499  0.00  0.00    +0.000 A 
ATOM     12  C   UNL     1       5.715   4.702  18.482  0.00  0.00    +0.000 A 
ENDROOT
BRANCH  12  13
ATOM     13  C   UNL     1       6.819   5.694  18.763  0.00  0.00    +0.000 C 
ATOM     14  O   UNL     1       7.641   5.309  19.608  0.00  0.00    +0.000 OA
ATOM     15  N   UNL     1       7.034   6.907  18.100  0.00  0.00    +0.000 N 
ATOM     16  C   UNL     1       6.206   7.551  17.104  0.00  0.00    +0.000 C 
ATOM     17  C   UNL     1       8.299   7.602  18.346  0.00  0.00    +0.000 C 
ENDBRANCH  12  13
TORSDOF 1
ENDMDL
MODEL 7
REMARK VINA RESULT:      -6.7      1.921      3.027
REMARK  Name = 
REMARK  4 active torsions:
REMARK  status: ('A' for Active; 'I' for Inactive)
REMARK    1  A    between atoms: C_1  and  C_2
REMARK    2  A    between atoms: C_12  and  C_13
REMARK    3  A    between atoms: N_15  and  C_16
REMARK    4  A    between atoms: N_15  and  C_17
REMARK                            x       y       z     vdW  Elec       q    Type
REMARK                         _______ _______ _______ _____ _____    ______ ____
ROOT
ATOM      1  C   UNL     1       7.852   4.868  18.725  0.00  0.00    +0.000 C 
ATOM      2  C   UNL     1       6.469   4.706  18.182  0.00  0.00    +0.000 A 
ATOM      3  N   UNL     1       5.635   4.193  19.144  0.00  0.00    +0.000 NA
ATOM      4  C   UNL     1       4.402   3.754  18.821  0.00  0.00    +0.000 A 
ATOM      5  C   UNL     1       3.641   3.113  19.789  0.00  0.00    +0.000 A 
ATOM      6  C   UNL     1       2.399   2.573  19.472  0.00  0.00    +0.000 A 
ATOM      7  F   UNL     1       1.701   1.925  20.414  0.00  0.00    +0.000 F 
ATOM      8  C   UNL     1       1.890   2.670  18.187  0.00  0.00    +0.000 A 
ATOM      9  C   UNL     1       2.636   3.335  17.210  0.00  0.00    +0.000 A 
ATOM     10  C   UNL     1       3.898   3.876  17.526  0.00  0.00    +0.000 A 
ATOM     11  C   UNL     1       4.723   4.511  16.574  0.00  0.00    +0.000 A 
ATOM     12  C   UNL     1       6.034   4.933  16.877  0.00  0.00    +0.000 A 
ENDROOT
BRANCH  12  13
ATOM     13  C   UNL     1       6.819   5.341  15.653  0.00  0.00    +0.000 C 
ATOM     14  O   UNL     1       7.664   6.224  15.866  0.00  0.00    +0.000 OA
ATOM     15  N   UNL     1       6.745   4.755  14.384  0.00  0.00    +0.000 N 
ATOM     16  C   UNL     1       5.835   3.733  13.914  0.00  0.00    +0.000 C 
ATOM     17  C   UNL     1       7.766   5.125  13.404  0.00  0.00    +0.000 C 
ENDBRANCH  12  13
TORSDOF 1
ENDMDL
MODEL 8
REMARK VINA RESULT:      -6.7      3.241      5.644
REMARK  Name = 
REMARK  4 active torsions:
REMARK  status: ('A' for Active; 'I' for Inactive)
REMARK    1  A    between atoms: C_1  and  C_2
REMARK    2  A    between atoms: C_12  and  C_13
REMARK    3  A    between atoms: N_15  and  C_16
REMARK    4  A    between atoms: N_15  and  C_17
REMARK                            x       y       z     vdW  Elec       q    Type
REMARK                         _______ _______ _______ _____ _____    ______ ____
ROOT
ATOM      1  C   UNL     1       7.432   5.845  18.925  0.00  0.00    +0.000 C 
ATOM      2  C   UNL     1       6.698   5.118  17.846  0.00  0.00    +0.000 A 
ATOM      3  N   UNL     1       7.440   5.100  16.691  0.00  0.00    +0.000 NA
ATOM      4  C   UNL     1       6.890   4.700  15.528  0.00  0.00    +0.000 A 
ATOM      5  C   UNL     1       7.624   4.829  14.357  0.00  0.00    +0.000 A 
ATOM      6  C   UNL     1       7.061   4.505  13.127  0.00  0.00    +0.000 A 
ATOM      7  F   UNL     1       7.777   4.675  12.007  0.00  0.00    +0.000 F 
ATOM      8  C   UNL     1       5.759   4.037  13.044  0.00  0.00    +0.000 A 
ATOM      9  C   UNL     1       5.019   3.879  14.218  0.00  0.00    +0.000 A 
ATOM     10  C   UNL     1       5.583   4.215  15.465  0.00  0.00    +0.000 A 
ATOM     11  C   UNL     1       4.871   4.130  16.680  0.00  0.00    +0.000 A 
ATOM     12  C   UNL     1       5.409   4.589  17.900  0.00  0.00    +0.000 A 
ENDROOT
BRANCH  12  13
ATOM     13  C   UNL     1       4.387   4.644  19.010  0.00  0.00    +0.000 C 
ATOM     14  O   UNL     1       3.916   5.774  19.208  0.00  0.00    +0.000 OA
ATOM     15  N   UNL     1       3.877   3.554  19.726  0.00  0.00    +0.000 N 
ATOM     16  C   UNL     1       4.285   2.167  19.669  0.00  0.00    +0.000 C 
ATOM     17  C   UNL     1       2.713   3.786  20.582  0.00  0.00    +0.000 C 
ENDBRANCH  12  13
TORSDOF 1
ENDMDL
MODEL 9
REMARK VINA RESULT:      -6.7      2.164      3.156
REMARK  Name = 
REMARK  4 active torsions:
REMARK  status: ('A' for Active; 'I' for Inactive)
REMARK    1  A    between atoms: C_1  and  C_2
REMARK    2  A    between atoms: C_12  and  C_13
REMARK    3  A    between atoms: N_15  and  C_16
REMARK    4  A    between atoms: N_15  and  C_17
REMARK                            x       y       z     vdW  Elec       q    Type
REMARK                         _______ _______ _______ _____ _____    ______ ____
ROOT
ATOM      1  C   UNL     1       6.424   5.433  19.050  0.00  0.00    +0.000 C 
ATOM      2  C   UNL     1       5.117   4.814  18.674  0.00  0.00    +0.000 A 
ATOM      3  N   UNL     1       4.316   4.679  19.781  0.00  0.00    +0.000 NA
ATOM      4  C   UNL     1       3.187   3.946  19.726  0.00  0.00    +0.000 A 
ATOM      5  C   UNL     1       2.478   3.713  20.896  0.00  0.00    +0.000 A 
ATOM      6  C   UNL     1       1.355   2.893  20.894  0.00  0.00    +0.000 A 
ATOM      7  F   UNL     1       0.709   2.653  22.044  0.00  0.00    +0.000 F 
ATOM      8  C   UNL     1       0.913   2.297  19.723  0.00  0.00    +0.000 A 
ATOM      9  C   UNL     1       1.604   2.544  18.534  0.00  0.00    +0.000 A 
ATOM     10  C   UNL     1       2.748   3.367  18.534  0.00  0.00    +0.000 A 
ATOM     11  C   UNL     1       3.520   3.613  17.380  0.00  0.00    +0.000 A 
ATOM     12  C   UNL     1       4.730   4.335  17.424  0.00  0.00    +0.000 A 
ENDROOT
BRANCH  12  13
ATOM     13  C   UNL     1       5.514   4.249  16.136  0.00  0.00    +0.000 C 
ATOM     14  O   UNL     1       5.929   3.110  15.872  0.00  0.00    +0.000 OA
ATOM     15  N   UNL     1       5.708   5.281  15.210  0.00  0.00    +0.000 N 
ATOM     16  C   UNL     1       5.328   6.672  15.318  0.00  0.00    +0.000 C 
ATOM     17  C   UNL     1       6.278   4.930  13.909  0.00  0.00    +0.000 C 
ENDBRANCH  12  13
TORSDOF 1
ENDMDL
