MODEL 1
REMARK VINA RESULT:      -8.2      0.000      0.000
REMARK  Name = 
REMARK  3 active torsions:
REMARK  status: ('A' for Active; 'I' for Inactive)
REMARK    1  A    between atoms: C_7  and  C_8
REMARK    2  A    between atoms: C_11  and  C_12
REMARK    3  A    between atoms: C_17  and  C_18
REMARK                            x       y       z     vdW  Elec       q    Type
REMARK                         _______ _______ _______ _____ _____    ______ ____
ROOT
ATOM      1  C   UNL     1       3.236   6.384  17.823  0.00  0.00    +0.000 A 
ATOM      2  C   UNL     1       4.385   7.110  17.420  0.00  0.00    +0.000 A 
ATOM      3  C   UNL     1       5.485   6.498  16.820  0.00  0.00    +0.000 A 
ATOM      4  C   UNL     1       5.477   5.126  16.582  0.00  0.00    +0.000 A 
ATOM      5  C   UNL     1       4.341   4.393  16.959  0.00  0.00    +0.000 A 
ATOM      6  C   UNL     1       3.209   4.993  17.575  0.00  0.00    +0.000 A 
ENDROOT
BRANCH   1  13
ATOM      7  O   UNL     1       0.369  10.306  17.975  0.00  0.00    +0.000 OA
ATOM      8  C   UNL     1       1.092   9.507  18.569  0.00  0.00    +0.000 C 
ATOM      9  C   UNL     1       1.250   9.555  20.061  0.00  0.00    +0.000 C 
ATOM     10  C   UNL     1       1.294   8.171  20.639  0.00  0.00    +0.000 C 
ATOM     11  O   UNL     1       0.677   7.882  21.663  0.00  0.00    +0.000 OA
ATOM     12  C   UNL     1       2.258   7.207  20.002  0.00  0.00    +0.000 C 
ATOM     13  C   UNL     1       2.100   7.180  18.473  0.00  0.00    +0.000 C 
ATOM     14  C   UNL     1       1.998   8.566  17.812  0.00  0.00    +0.000 C 
ENDBRANCH   1  13
BRANCH   4  15
ATOM     15  C   UNL     1       6.653   4.441  15.927  0.00  0.00    +0.000 C 
ATOM     16  F   UNL     1       7.656   4.141  16.797  0.00  0.00    +0.000 F 
ATOM     17  F   UNL     1       6.302   3.267  15.334  0.00  0.00    +0.000 F 
ATOM     18  F   UNL     1       7.218   5.202  14.952  0.00  0.00    +0.000 F 
ENDBRANCH   4  15
BRANCH   6  19
ATOM     19  C   UNL     1       2.069   4.038  17.892  0.00  0.00    +0.000 C 
ATOM     20  F   UNL     1       1.729   3.918  19.198  0.00  0.00    +0.000 F 
ATOM     21  F   UNL     1       0.920   4.396  17.249  0.00  0.00    +0.000 F 
ATOM     22  F   UNL     1       2.343   2.769  17.468  0.00  0.00    +0.000 F 
ENDBRANCH   6  19
TORSDOF 3
ENDMDL
MODEL 2
REMARK VINA RESULT:      -8.1      0.184      1.125
REMARK  Name = 
REMARK  3 active torsions:
REMARK  status: ('A' for Active; 'I' for Inactive)
REMARK    1  A    between atoms: C_7  and  C_8
REMARK    2  A    between atoms: C_11  and  C_12
REMARK    3  A    between atoms: C_17  and  C_18
REMARK                            x       y       z     vdW  Elec       q    Type
REMARK                         _______ _______ _______ _____ _____    ______ ____
ROOT
ATOM      1  C   UNL     1       3.302   6.397  17.714  0.00  0.00    +0.000 A 
ATOM      2  C   UNL     1       4.426   7.150  17.288  0.00  0.00    +0.000 A 
ATOM      3  C   UNL     1       5.530   6.563  16.671  0.00  0.00    +0.000 A 
ATOM      4  C   UNL     1       5.554   5.191  16.439  0.00  0.00    +0.000 A 
ATOM      5  C   UNL     1       4.443   4.431  16.839  0.00  0.00    +0.000 A 
ATOM      6  C   UNL     1       3.307   5.004  17.473  0.00  0.00    +0.000 A 
ENDROOT
BRANCH   1  13
ATOM      7  O   UNL     1       0.360  10.260  17.918  0.00  0.00    +0.000 OA
ATOM      8  C   UNL     1       1.105   9.473  18.500  0.00  0.00    +0.000 C 
ATOM      9  C   UNL     1       1.278   9.515  19.991  0.00  0.00    +0.000 C 
ATOM     10  C   UNL     1       1.355   8.130  20.560  0.00  0.00    +0.000 C 
ATOM     11  O   UNL     1       0.755   7.822  21.589  0.00  0.00    +0.000 OA
ATOM     12  C   UNL     1       2.331   7.189  19.908  0.00  0.00    +0.000 C 
ATOM     13  C   UNL     1       2.158   7.167  18.380  0.00  0.00    +0.000 C 
ATOM     14  C   UNL     1       2.022   8.554  17.728  0.00  0.00    +0.000 C 
ENDBRANCH   1  13
BRANCH   4  15
ATOM     15  C   UNL     1       6.735   4.533  15.767  0.00  0.00    +0.000 C 
ATOM     16  F   UNL     1       6.404   3.412  15.069  0.00  0.00    +0.000 F 
ATOM     17  F   UNL     1       7.354   5.361  14.882  0.00  0.00    +0.000 F 
ATOM     18  F   UNL     1       7.690   4.151  16.658  0.00  0.00    +0.000 F 
ENDBRANCH   4  15
BRANCH   6  19
ATOM     19  C   UNL     1       2.198   4.022  17.813  0.00  0.00    +0.000 C 
ATOM     20  F   UNL     1       0.943   4.381  17.449  0.00  0.00    +0.000 F 
ATOM     21  F   UNL     1       2.409   2.805  17.234  0.00  0.00    +0.000 F 
ATOM     22  F   UNL     1       2.134   3.780  19.156  0.00  0.00    +0.000 F 
ENDBRANCH   6  19
TORSDOF 3
ENDMDL
MODEL 3
REMARK VINA RESULT:      -7.5      3.699      6.457
REMARK  Name = 
REMARK  3 active torsions:
REMARK  status: ('A' for Active; 'I' for Inactive)
REMARK    1  A    between atoms: C_7  and  C_8
REMARK    2  A    between atoms: C_11  and  C_12
REMARK    3  A    between atoms: C_17  and  C_18
REMARK                            x       y       z     vdW  Elec       q    Type
REMARK                         _______ _______ _______ _____ _____    ______ ____
ROOT
ATOM      1  C   UNL     1       3.765   5.545  18.561  0.00  0.00    +0.000 A 
ATOM      2  C   UNL     1       3.554   6.918  18.277  0.00  0.00    +0.000 A 
ATOM      3  C   UNL     1       2.657   7.703  19.000  0.00  0.00    +0.000 A 
ATOM      4  C   UNL     1       1.938   7.150  20.055  0.00  0.00    +0.000 A 
ATOM      5  C   UNL     1       2.146   5.795  20.363  0.00  0.00    +0.000 A 
ATOM      6  C   UNL     1       3.052   4.973  19.638  0.00  0.00    +0.000 A 
ENDROOT
BRANCH   1  13
ATOM      7  O   UNL     1       8.311   4.070  17.675  0.00  0.00    +0.000 OA
ATOM      8  C   UNL     1       7.270   4.578  17.261  0.00  0.00    +0.000 C 
ATOM      9  C   UNL     1       7.091   4.925  15.811  0.00  0.00    +0.000 C 
ATOM     10  C   UNL     1       5.697   4.609  15.354  0.00  0.00    +0.000 C 
ATOM     11  O   UNL     1       5.483   4.063  14.273  0.00  0.00    +0.000 OA
ATOM     12  C   UNL     1       4.575   5.143  16.202  0.00  0.00    +0.000 C 
ATOM     13  C   UNL     1       4.778   4.799  17.687  0.00  0.00    +0.000 C 
ATOM     14  C   UNL     1       6.201   5.050  18.217  0.00  0.00    +0.000 C 
ENDBRANCH   1  13
BRANCH   4  15
ATOM     15  C   UNL     1       0.966   7.980  20.858  0.00  0.00    +0.000 C 
ATOM     16  F   UNL     1       1.498   8.475  22.008  0.00  0.00    +0.000 F 
ATOM     17  F   UNL     1       0.505   9.055  20.160  0.00  0.00    +0.000 F 
ATOM     18  F   UNL     1      -0.135   7.273  21.229  0.00  0.00    +0.000 F 
ENDBRANCH   4  15
BRANCH   6  19
ATOM     19  C   UNL     1       3.154   3.539  20.134  0.00  0.00    +0.000 C 
ATOM     20  F   UNL     1       2.533   2.598  19.383  0.00  0.00    +0.000 F 
ATOM     21  F   UNL     1       4.452   3.131  20.227  0.00  0.00    +0.000 F 
ATOM     22  F   UNL     1       2.637   3.403  21.391  0.00  0.00    +0.000 F 
ENDBRANCH   6  19
TORSDOF 3
ENDMDL
MODEL 4
REMARK VINA RESULT:      -7.5      3.678      6.407
REMARK  Name = 
REMARK  3 active torsions:
REMARK  status: ('A' for Active; 'I' for Inactive)
REMARK    1  A    between atoms: C_7  and  C_8
REMARK    2  A    between atoms: C_11  and  C_12
REMARK    3  A    between atoms: C_17  and  C_18
REMARK                            x       y       z     vdW  Elec       q    Type
REMARK                         _______ _______ _______ _____ _____    ______ ____
ROOT
ATOM      1  C   UNL     1       3.781   5.575  18.525  0.00  0.00    +0.000 A 
ATOM      2  C   UNL     1       3.566   6.944  18.223  0.00  0.00    +0.000 A 
ATOM      3  C   UNL     1       2.671   7.736  18.940  0.00  0.00    +0.000 A 
ATOM      4  C   UNL     1       1.958   7.196  20.007  0.00  0.00    +0.000 A 
ATOM      5  C   UNL     1       2.170   5.846  20.331  0.00  0.00    +0.000 A 
ATOM      6  C   UNL     1       3.074   5.016  19.613  0.00  0.00    +0.000 A 
ENDROOT
BRANCH   1  13
ATOM      7  O   UNL     1       8.317   4.059  17.659  0.00  0.00    +0.000 OA
ATOM      8  C   UNL     1       7.283   4.576  17.241  0.00  0.00    +0.000 C 
ATOM      9  C   UNL     1       7.113   4.923  15.790  0.00  0.00    +0.000 C 
ATOM     10  C   UNL     1       5.719   4.619  15.327  0.00  0.00    +0.000 C 
ATOM     11  O   UNL     1       5.504   4.074  14.245  0.00  0.00    +0.000 OA
ATOM     12  C   UNL     1       4.597   5.163  16.169  0.00  0.00    +0.000 C 
ATOM     13  C   UNL     1       4.791   4.819  17.656  0.00  0.00    +0.000 C 
ATOM     14  C   UNL     1       6.213   5.058  18.192  0.00  0.00    +0.000 C 
ENDBRANCH   1  13
BRANCH   4  15
ATOM     15  C   UNL     1       0.988   8.035  20.803  0.00  0.00    +0.000 C 
ATOM     16  F   UNL     1      -0.089   7.335  21.255  0.00  0.00    +0.000 F 
ATOM     17  F   UNL     1       1.567   8.591  21.902  0.00  0.00    +0.000 F 
ATOM     18  F   UNL     1       0.484   9.070  20.078  0.00  0.00    +0.000 F 
ENDBRANCH   4  15
BRANCH   6  19
ATOM     19  C   UNL     1       3.180   3.589  20.127  0.00  0.00    +0.000 C 
ATOM     20  F   UNL     1       2.669   3.353  21.359  0.00  0.00    +0.000 F 
ATOM     21  F   UNL     1       2.549   2.708  19.298  0.00  0.00    +0.000 F 
ATOM     22  F   UNL     1       4.479   3.170  20.183  0.00  0.00    +0.000 F 
ENDBRANCH   6  19
TORSDOF 3
ENDMDL
MODEL 5
REMARK VINA RESULT:      -7.5      3.070      4.740
REMARK  Name = 
REMARK  3 active torsions:
REMARK  status: ('A' for Active; 'I' for Inactive)
REMARK    1  A    between atoms: C_7  and  C_8
REMARK    2  A    between atoms: C_11  and  C_12
REMARK    3  A    between atoms: C_17  and  C_18
REMARK                            x       y       z     vdW  Elec       q    Type
REMARK                         _______ _______ _______ _____ _____    ______ ____
ROOT
ATOM      1  C   UNL     1       3.794   5.285  18.869  0.00  0.00    +0.000 A 
ATOM      2  C   UNL     1       5.072   4.694  19.037  0.00  0.00    +0.000 A 
ATOM      3  C   UNL     1       6.246   5.316  18.613  0.00  0.00    +0.000 A 
ATOM      4  C   UNL     1       6.194   6.571  18.013  0.00  0.00    +0.000 A 
ATOM      5  C   UNL     1       4.939   7.180  17.854  0.00  0.00    +0.000 A 
ATOM      6  C   UNL     1       3.728   6.565  18.273  0.00  0.00    +0.000 A 
ENDROOT
BRANCH   1  13
ATOM      7  O   UNL     1       1.538   2.811  22.392  0.00  0.00    +0.000 OA
ATOM      8  C   UNL     1       1.878   2.888  21.213  0.00  0.00    +0.000 C 
ATOM      9  C   UNL     1       1.438   1.868  20.203  0.00  0.00    +0.000 C 
ATOM     10  C   UNL     1       1.101   2.521  18.895  0.00  0.00    +0.000 C 
ATOM     11  O   UNL     1       0.103   2.198  18.253  0.00  0.00    +0.000 OA
ATOM     12  C   UNL     1       2.129   3.463  18.330  0.00  0.00    +0.000 C 
ATOM     13  C   UNL     1       2.587   4.492  19.377  0.00  0.00    +0.000 C 
ATOM     14  C   UNL     1       2.903   3.902  20.763  0.00  0.00    +0.000 C 
ENDBRANCH   1  13
BRANCH   4  15
ATOM     15  C   UNL     1       7.451   7.269  17.552  0.00  0.00    +0.000 C 
ATOM     16  F   UNL     1       7.277   8.598  17.317  0.00  0.00    +0.000 F 
ATOM     17  F   UNL     1       8.458   7.174  18.464  0.00  0.00    +0.000 F 
ATOM     18  F   UNL     1       7.939   6.745  16.396  0.00  0.00    +0.000 F 
ENDBRANCH   4  15
BRANCH   6  19
ATOM     19  C   UNL     1       2.473   7.388  18.033  0.00  0.00    +0.000 C 
ATOM     20  F   UNL     1       2.613   8.485  17.249  0.00  0.00    +0.000 F 
ATOM     21  F   UNL     1       1.489   6.647  17.446  0.00  0.00    +0.000 F 
ATOM     22  F   UNL     1       1.937   7.843  19.204  0.00  0.00    +0.000 F 
ENDBRANCH   6  19
TORSDOF 3
ENDMDL
MODEL 6
REMARK VINA RESULT:      -7.4      3.862      6.314
REMARK  Name = 
REMARK  3 active torsions:
REMARK  status: ('A' for Active; 'I' for Inactive)
REMARK    1  A    between atoms: C_7  and  C_8
REMARK    2  A    between atoms: C_11  and  C_12
REMARK    3  A    between atoms: C_17  and  C_18
REMARK                            x       y       z     vdW  Elec       q    Type
REMARK                         _______ _______ _______ _____ _____    ______ ____
ROOT
ATOM      1  C   UNL     1       4.054   4.582  18.220  0.00  0.00    +0.000 A 
ATOM      2  C   UNL     1       4.261   3.242  18.634  0.00  0.00    +0.000 A 
ATOM      3  C   UNL     1       3.583   2.679  19.714  0.00  0.00    +0.000 A 
ATOM      4  C   UNL     1       2.650   3.431  20.423  0.00  0.00    +0.000 A 
ATOM      5  C   UNL     1       2.419   4.755  20.017  0.00  0.00    +0.000 A 
ATOM      6  C   UNL     1       3.100   5.354  18.922  0.00  0.00    +0.000 A 
ENDROOT
BRANCH   1  13
ATOM      7  O   UNL     1       5.640   4.006  13.662  0.00  0.00    +0.000 OA
ATOM      8  C   UNL     1       5.887   4.282  14.835  0.00  0.00    +0.000 C 
ATOM      9  C   UNL     1       7.250   4.745  15.261  0.00  0.00    +0.000 C 
ATOM     10  C   UNL     1       7.150   5.835  16.286  0.00  0.00    +0.000 C 
ATOM     11  O   UNL     1       7.866   6.834  16.236  0.00  0.00    +0.000 OA
ATOM     12  C   UNL     1       6.255   5.567  17.466  0.00  0.00    +0.000 C 
ATOM     13  C   UNL     1       4.867   5.075  17.020  0.00  0.00    +0.000 C 
ATOM     14  C   UNL     1       4.889   3.989  15.930  0.00  0.00    +0.000 C 
ENDBRANCH   1  13
BRANCH   4  15
ATOM     15  C   UNL     1       1.897   2.842  21.591  0.00  0.00    +0.000 C 
ATOM     16  F   UNL     1       2.279   1.571  21.895  0.00  0.00    +0.000 F 
ATOM     17  F   UNL     1       2.060   3.570  22.731  0.00  0.00    +0.000 F 
ATOM     18  F   UNL     1       0.556   2.786  21.368  0.00  0.00    +0.000 F 
ENDBRANCH   4  15
BRANCH   6  19
ATOM     19  C   UNL     1       2.700   6.790  18.624  0.00  0.00    +0.000 C 
ATOM     20  F   UNL     1       3.675   7.600  18.145  0.00  0.00    +0.000 F 
ATOM     21  F   UNL     1       1.693   6.850  17.705  0.00  0.00    +0.000 F 
ATOM     22  F   UNL     1       2.216   7.418  19.736  0.00  0.00    +0.000 F 
ENDBRANCH   6  19
TORSDOF 3
ENDMDL
MODEL 7
REMARK VINA RESULT:      -7.4      3.069      4.717
REMARK  Name = 
REMARK  3 active torsions:
REMARK  status: ('A' for Active; 'I' for Inactive)
REMARK    1  A    between atoms: C_7  and  C_8
REMARK    2  A    between atoms: C_11  and  C_12
REMARK    3  A    between atoms: C_17  and  C_18
REMARK                            x       y       z     vdW  Elec       q    Type
REMARK                         _______ _______ _______ _____ _____    ______ ____
ROOT
ATOM      1  C   UNL     1       3.787   5.286  18.870  0.00  0.00    +0.000 A 
ATOM      2  C   UNL     1       5.063   4.686  19.018  0.00  0.00    +0.000 A 
ATOM      3  C   UNL     1       6.236   5.308  18.592  0.00  0.00    +0.000 A 
ATOM      4  C   UNL     1       6.186   6.570  18.008  0.00  0.00    +0.000 A 
ATOM      5  C   UNL     1       4.932   7.187  17.867  0.00  0.00    +0.000 A 
ATOM      6  C   UNL     1       3.722   6.573  18.290  0.00  0.00    +0.000 A 
ENDROOT
BRANCH   1  13
ATOM      7  O   UNL     1       1.539   2.803  22.392  0.00  0.00    +0.000 OA
ATOM      8  C   UNL     1       1.875   2.884  21.212  0.00  0.00    +0.000 C 
ATOM      9  C   UNL     1       1.431   1.867  20.200  0.00  0.00    +0.000 C 
ATOM     10  C   UNL     1       1.091   2.524  18.895  0.00  0.00    +0.000 C 
ATOM     11  O   UNL     1       0.090   2.204  18.255  0.00  0.00    +0.000 OA
ATOM     12  C   UNL     1       2.118   3.467  18.330  0.00  0.00    +0.000 C 
ATOM     13  C   UNL     1       2.580   4.492  19.379  0.00  0.00    +0.000 C 
ATOM     14  C   UNL     1       2.900   3.898  20.762  0.00  0.00    +0.000 C 
ENDBRANCH   1  13
BRANCH   4  15
ATOM     15  C   UNL     1       7.442   7.267  17.544  0.00  0.00    +0.000 C 
ATOM     16  F   UNL     1       7.949   6.755  16.388  0.00  0.00    +0.000 F 
ATOM     17  F   UNL     1       7.243   8.594  17.315  0.00  0.00    +0.000 F 
ATOM     18  F   UNL     1       8.445   7.189  18.459  0.00  0.00    +0.000 F 
ENDBRANCH   4  15
BRANCH   6  19
ATOM     19  C   UNL     1       2.469   7.406  18.071  0.00  0.00    +0.000 C 
ATOM     20  F   UNL     1       1.894   7.931  19.180  0.00  0.00    +0.000 F 
ATOM     21  F   UNL     1       2.709   8.468  17.250  0.00  0.00    +0.000 F 
ATOM     22  F   UNL     1       1.485   6.684  17.456  0.00  0.00    +0.000 F 
ENDBRANCH   6  19
TORSDOF 3
ENDMDL
MODEL 8
REMARK VINA RESULT:      -7.4      3.715      6.352
REMARK  Name = 
REMARK  3 active torsions:
REMARK  status: ('A' for Active; 'I' for Inactive)
REMARK    1  A    between atoms: C_7  and  C_8
REMARK    2  A    between atoms: C_11  and  C_12
REMARK    3  A    between atoms: C_17  and  C_18
REMARK                            x       y       z     vdW  Elec       q    Type
REMARK                         _______ _______ _______ _____ _____    ______ ____
ROOT
ATOM      1  C   UNL     1       3.732   6.355  18.082  0.00  0.00    +0.000 A 
ATOM      2  C   UNL     1       3.746   7.602  17.406  0.00  0.00    +0.000 A 
ATOM      3  C   UNL     1       2.844   8.623  17.700  0.00  0.00    +0.000 A 
ATOM      4  C   UNL     1       1.892   8.448  18.701  0.00  0.00    +0.000 A 
ATOM      5  C   UNL     1       1.874   7.226  19.393  0.00  0.00    +0.000 A 
ATOM      6  C   UNL     1       2.780   6.168  19.109  0.00  0.00    +0.000 A 
ENDROOT
BRANCH   1  13
ATOM      7  O   UNL     1       8.157   4.390  18.511  0.00  0.00    +0.000 OA
ATOM      8  C   UNL     1       7.262   4.820  17.784  0.00  0.00    +0.000 C 
ATOM      9  C   UNL     1       7.359   4.733  16.288  0.00  0.00    +0.000 C 
ATOM     10  C   UNL     1       6.030   4.388  15.685  0.00  0.00    +0.000 C 
ATOM     11  O   UNL     1       5.929   3.561  14.780  0.00  0.00    +0.000 OA
ATOM     12  C   UNL     1       4.856   5.221  16.124  0.00  0.00    +0.000 C 
ATOM     13  C   UNL     1       4.777   5.320  17.657  0.00  0.00    +0.000 C 
ATOM     14  C   UNL     1       6.116   5.623  18.352  0.00  0.00    +0.000 C 
ENDBRANCH   1  13
BRANCH   4  15
ATOM     15  C   UNL     1       0.909   9.541  19.044  0.00  0.00    +0.000 C 
ATOM     16  F   UNL     1       0.268   9.341  20.228  0.00  0.00    +0.000 F 
ATOM     17  F   UNL     1       1.505  10.762  19.137  0.00  0.00    +0.000 F 
ATOM     18  F   UNL     1      -0.069   9.670  18.107  0.00  0.00    +0.000 F 
ENDBRANCH   4  15
BRANCH   6  19
ATOM     19  C   UNL     1       2.615   4.932  19.978  0.00  0.00    +0.000 C 
ATOM     20  F   UNL     1       3.747   4.243  20.265  0.00  0.00    +0.000 F 
ATOM     21  F   UNL     1       2.060   5.238  21.186  0.00  0.00    +0.000 F 
ATOM     22  F   UNL     1       1.769   4.024  19.407  0.00  0.00    +0.000 F 
ENDBRANCH   6  19
TORSDOF 3
ENDMDL
MODEL 9
REMARK VINA RESULT:      -7.4      3.708      6.482
REMARK  Name = 
REMARK  3 active torsions:
REMARK  status: ('A' for Active; 'I' for Inactive)
REMARK    1  A    between atoms: C_7  and  C_8
REMARK    2  A    between atoms: C_11  and  C_12
REMARK    3  A    between atoms: C_17  and  C_18
REMARK                            x       y       z     vdW  Elec       q    Type
REMARK                         _______ _______ _______ _____ _____    ______ ____
ROOT
ATOM      1  C   UNL     1       3.379   5.809  19.014  0.00  0.00    +0.000 A 
ATOM      2  C   UNL     1       3.196   7.181  18.706  0.00  0.00    +0.000 A 
ATOM      3  C   UNL     1       2.274   7.983  19.377  0.00  0.00    +0.000 A 
ATOM      4  C   UNL     1       1.500   7.448  20.403  0.00  0.00    +0.000 A 
ATOM      5  C   UNL     1       1.679   6.096  20.735  0.00  0.00    +0.000 A 
ATOM      6  C   UNL     1       2.609   5.256  20.063  0.00  0.00    +0.000 A 
ENDROOT
BRANCH   1  13
ATOM      7  O   UNL     1       7.958   4.332  18.325  0.00  0.00    +0.000 OA
ATOM      8  C   UNL     1       6.930   4.822  17.862  0.00  0.00    +0.000 C 
ATOM      9  C   UNL     1       6.797   5.125  16.397  0.00  0.00    +0.000 C 
ATOM     10  C   UNL     1       5.421   4.789  15.903  0.00  0.00    +0.000 C 
ATOM     11  O   UNL     1       5.246   4.210  14.832  0.00  0.00    +0.000 OA
ATOM     12  C   UNL     1       4.269   5.341  16.696  0.00  0.00    +0.000 C 
ATOM     13  C   UNL     1       4.423   5.043  18.197  0.00  0.00    +0.000 C 
ATOM     14  C   UNL     1       5.826   5.317  18.767  0.00  0.00    +0.000 C 
ENDBRANCH   1  13
BRANCH   4  15
ATOM     15  C   UNL     1       0.500   8.298  21.150  0.00  0.00    +0.000 C 
ATOM     16  F   UNL     1       0.131   9.420  20.473  0.00  0.00    +0.000 F 
ATOM     17  F   UNL     1      -0.651   7.623  21.421  0.00  0.00    +0.000 F 
ATOM     18  F   UNL     1       0.977   8.725  22.350  0.00  0.00    +0.000 F 
ENDBRANCH   4  15
BRANCH   6  19
ATOM     19  C   UNL     1       2.671   3.827  20.578  0.00  0.00    +0.000 C 
ATOM     20  F   UNL     1       3.863   3.194  20.452  0.00  0.00    +0.000 F 
ATOM     21  F   UNL     1       2.361   3.757  21.904  0.00  0.00    +0.000 F 
ATOM     22  F   UNL     1       1.763   3.025  19.948  0.00  0.00    +0.000 F 
ENDBRANCH   6  19
TORSDOF 3
ENDMDL
