MODEL 1
REMARK VINA RESULT:      -8.6      0.000      0.000
REMARK  Name = 
REMARK  10 active torsions:
REMARK  status: ('A' for Active; 'I' for Inactive)
REMARK    1  A    between atoms: C_1  and  O_2
REMARK    2  A    between atoms: O_2  and  C_3
REMARK    3  A    between atoms: C_7  and  C_8
REMARK    4  A    between atoms: C_8  and  N_9
REMARK    5  A    between atoms: C_13  and  C_14
REMARK    6  A    between atoms: C_14  and  O_15
REMARK    7  A    between atoms: O_15  and  C_16
REMARK    8  A    between atoms: C_16  and  C_17
REMARK    9  A    between atoms: C_16  and  C_24
REMARK   10  A    between atoms: C_32  and  O_33
REMARK                            x       y       z     vdW  Elec       q    Type
REMARK                         _______ _______ _______ _____ _____    ______ ____
ROOT
ATOM      1  N   UNL     1       0.003  10.966  20.132  0.00  0.00    +0.000 NA
ATOM      2  C   UNL     1      -0.142  10.286  21.416  0.00  0.00    +0.000 C 
ATOM      3  C   UNL     1       0.980   9.316  21.781  0.00  0.00    +0.000 C 
ATOM      4  C   UNL     1       1.260   8.353  20.642  0.00  0.00    +0.000 C 
ATOM      5  C   UNL     1       1.658   9.137  19.396  0.00  0.00    +0.000 C 
ATOM      6  C   UNL     1       0.616  10.211  19.035  0.00  0.00    +0.000 C 
ENDROOT
BRANCH   1   7
ATOM      7  C   UNL     1      -1.207  11.694  19.679  0.00  0.00    +0.000 C 
BRANCH   7  12
ATOM      8  C   UNL     1      -2.886  10.884  16.277  0.00  0.00    +0.000 A 
ATOM      9  C   UNL     1      -3.649   9.764  16.642  0.00  0.00    +0.000 A 
ATOM     10  C   UNL     1      -3.617   9.279  17.944  0.00  0.00    +0.000 A 
ATOM     11  C   UNL     1      -2.826   9.912  18.905  0.00  0.00    +0.000 A 
ATOM     12  C   UNL     1      -2.050  11.043  18.583  0.00  0.00    +0.000 A 
ATOM     13  C   UNL     1      -2.083  11.509  17.247  0.00  0.00    +0.000 A 
BRANCH   8  15
ATOM     14  C   UNL     1      -3.213  10.165  14.014  0.00  0.00    +0.000 C 
ATOM     15  O   UNL     1      -3.052  11.215  14.957  0.00  0.00    +0.000 OA
ENDBRANCH   8  15
BRANCH  13  16
ATOM     16  O   UNL     1      -1.319  12.586  16.874  0.00  0.00    +0.000 OA
ATOM     17  H   UNL     1      -0.426  12.302  16.641  0.00  0.00    +0.000 HD
ENDBRANCH  13  16
ENDBRANCH   7  12
ENDBRANCH   1   7
BRANCH   5  18
ATOM     18  C   UNL     1       1.840   8.176  18.209  0.00  0.00    +0.000 C 
BRANCH  18  19
ATOM     19  O   UNL     1       2.944   7.316  18.481  0.00  0.00    +0.000 OA
BRANCH  19  20
ATOM     20  C   UNL     1       2.840   6.005  17.909  0.00  0.00    +0.000 C 
BRANCH  20  21
ATOM     21  C   UNL     1       4.190   5.565  17.348  0.00  0.00    +0.000 A 
ATOM     22  C   UNL     1       5.314   6.405  17.435  0.00  0.00    +0.000 A 
ATOM     23  C   UNL     1       6.541   6.005  16.904  0.00  0.00    +0.000 A 
ATOM     24  C   UNL     1       6.645   4.767  16.285  0.00  0.00    +0.000 A 
ATOM     25  F   UNL     1       7.823   4.381  15.773  0.00  0.00    +0.000 F 
ATOM     26  C   UNL     1       5.548   3.919  16.184  0.00  0.00    +0.000 A 
ATOM     27  C   UNL     1       4.319   4.316  16.716  0.00  0.00    +0.000 A 
ENDBRANCH  20  21
BRANCH  20  28
ATOM     28  C   UNL     1       2.312   5.036  18.969  0.00  0.00    +0.000 A 
ATOM     29  C   UNL     1       1.363   4.043  18.655  0.00  0.00    +0.000 A 
ATOM     30  C   UNL     1       0.894   3.164  19.634  0.00  0.00    +0.000 A 
ATOM     31  C   UNL     1       1.367   3.273  20.934  0.00  0.00    +0.000 A 
ATOM     32  F   UNL     1       0.919   2.427  21.871  0.00  0.00    +0.000 F 
ATOM     33  C   UNL     1       2.301   4.243  21.275  0.00  0.00    +0.000 A 
ATOM     34  C   UNL     1       2.774   5.120  20.297  0.00  0.00    +0.000 A 
ENDBRANCH  20  28
ENDBRANCH  19  20
ENDBRANCH  18  19
ENDBRANCH   5  18
TORSDOF 9
ENDMDL
MODEL 2
REMARK VINA RESULT:      -8.4      1.290      1.848
REMARK  Name = 
REMARK  10 active torsions:
REMARK  status: ('A' for Active; 'I' for Inactive)
REMARK    1  A    between atoms: C_1  and  O_2
REMARK    2  A    between atoms: O_2  and  C_3
REMARK    3  A    between atoms: C_7  and  C_8
REMARK    4  A    between atoms: C_8  and  N_9
REMARK    5  A    between atoms: C_13  and  C_14
REMARK    6  A    between atoms: C_14  and  O_15
REMARK    7  A    between atoms: O_15  and  C_16
REMARK    8  A    between atoms: C_16  and  C_17
REMARK    9  A    between atoms: C_16  and  C_24
REMARK   10  A    between atoms: C_32  and  O_33
REMARK                            x       y       z     vdW  Elec       q    Type
REMARK                         _______ _______ _______ _____ _____    ______ ____
ROOT
ATOM      1  N   UNL     1       0.128  11.561  19.138  0.00  0.00    +0.000 NA
ATOM      2  C   UNL     1      -0.411  11.066  20.402  0.00  0.00    +0.000 C 
ATOM      3  C   UNL     1       0.460  10.050  21.139  0.00  0.00    +0.000 C 
ATOM      4  C   UNL     1       0.893   8.929  20.213  0.00  0.00    +0.000 C 
ATOM      5  C   UNL     1       1.679   9.508  19.041  0.00  0.00    +0.000 C 
ATOM      6  C   UNL     1       0.896  10.620  18.318  0.00  0.00    +0.000 C 
ENDROOT
BRANCH   1   7
ATOM      7  C   UNL     1      -0.835  12.334  18.317  0.00  0.00    +0.000 C 
BRANCH   7  12
ATOM      8  C   UNL     1      -4.462  11.112  17.685  0.00  0.00    +0.000 A 
ATOM      9  C   UNL     1      -4.224  10.141  16.699  0.00  0.00    +0.000 A 
ATOM     10  C   UNL     1      -2.934   9.894  16.246  0.00  0.00    +0.000 A 
ATOM     11  C   UNL     1      -1.859  10.609  16.777  0.00  0.00    +0.000 A 
ATOM     12  C   UNL     1      -2.052  11.587  17.772  0.00  0.00    +0.000 A 
ATOM     13  C   UNL     1      -3.376  11.837  18.207  0.00  0.00    +0.000 A 
BRANCH   8  15
ATOM     14  C   UNL     1      -6.368  10.184  18.802  0.00  0.00    +0.000 C 
ATOM     15  O   UNL     1      -5.791  11.208  18.006  0.00  0.00    +0.000 OA
ENDBRANCH   8  15
BRANCH  13  16
ATOM     16  O   UNL     1      -3.621  12.802  19.150  0.00  0.00    +0.000 OA
ATOM     17  H   UNL     1      -4.229  13.468  18.802  0.00  0.00    +0.000 HD
ENDBRANCH  13  16
ENDBRANCH   7  12
ENDBRANCH   1   7
BRANCH   5  18
ATOM     18  C   UNL     1       2.030   8.393  18.044  0.00  0.00    +0.000 C 
BRANCH  18  19
ATOM     19  O   UNL     1       2.679   7.337  18.747  0.00  0.00    +0.000 OA
BRANCH  19  20
ATOM     20  C   UNL     1       2.562   6.044  18.135  0.00  0.00    +0.000 C 
BRANCH  20  21
ATOM     21  C   UNL     1       3.867   5.669  17.439  0.00  0.00    +0.000 A 
ATOM     22  C   UNL     1       4.892   6.616  17.273  0.00  0.00    +0.000 A 
ATOM     23  C   UNL     1       6.076   6.272  16.619  0.00  0.00    +0.000 A 
ATOM     24  C   UNL     1       6.235   4.982  16.130  0.00  0.00    +0.000 A 
ATOM     25  F   UNL     1       7.372   4.650  15.501  0.00  0.00    +0.000 F 
ATOM     26  C   UNL     1       5.235   4.028  16.280  0.00  0.00    +0.000 A 
ATOM     27  C   UNL     1       4.050   4.369  16.934  0.00  0.00    +0.000 A 
ENDBRANCH  20  21
BRANCH  20  28
ATOM     28  C   UNL     1       2.159   5.020  19.198  0.00  0.00    +0.000 A 
ATOM     29  C   UNL     1       2.654   5.088  20.515  0.00  0.00    +0.000 A 
ATOM     30  C   UNL     1       2.273   4.148  21.474  0.00  0.00    +0.000 A 
ATOM     31  C   UNL     1       1.396   3.131  21.125  0.00  0.00    +0.000 A 
ATOM     32  F   UNL     1       1.028   2.231  22.046  0.00  0.00    +0.000 F 
ATOM     33  C   UNL     1       0.893   3.035  19.833  0.00  0.00    +0.000 A 
ATOM     34  C   UNL     1       1.269   3.977  18.874  0.00  0.00    +0.000 A 
ENDBRANCH  20  28
ENDBRANCH  19  20
ENDBRANCH  18  19
ENDBRANCH   5  18
TORSDOF 9
ENDMDL
MODEL 3
REMARK VINA RESULT:      -8.3      1.539      1.994
REMARK  Name = 
REMARK  10 active torsions:
REMARK  status: ('A' for Active; 'I' for Inactive)
REMARK    1  A    between atoms: C_1  and  O_2
REMARK    2  A    between atoms: O_2  and  C_3
REMARK    3  A    between atoms: C_7  and  C_8
REMARK    4  A    between atoms: C_8  and  N_9
REMARK    5  A    between atoms: C_13  and  C_14
REMARK    6  A    between atoms: C_14  and  O_15
REMARK    7  A    between atoms: O_15  and  C_16
REMARK    8  A    between atoms: C_16  and  C_17
REMARK    9  A    between atoms: C_16  and  C_24
REMARK   10  A    between atoms: C_32  and  O_33
REMARK                            x       y       z     vdW  Elec       q    Type
REMARK                         _______ _______ _______ _____ _____    ______ ____
ROOT
ATOM      1  N   UNL     1       0.272  11.227  20.352  0.00  0.00    +0.000 NA
ATOM      2  C   UNL     1      -0.354  10.463  21.428  0.00  0.00    +0.000 C 
ATOM      3  C   UNL     1       0.383   9.194  21.852  0.00  0.00    +0.000 C 
ATOM      4  C   UNL     1       0.724   8.333  20.649  0.00  0.00    +0.000 C 
ATOM      5  C   UNL     1       1.601   9.125  19.685  0.00  0.00    +0.000 C 
ATOM      6  C   UNL     1       0.962  10.473  19.302  0.00  0.00    +0.000 C 
ENDROOT
BRANCH   1   7
ATOM      7  C   UNL     1      -0.580  12.298  19.780  0.00  0.00    +0.000 C 
BRANCH   7  12
ATOM      8  C   UNL     1      -4.259  11.706  18.703  0.00  0.00    +0.000 A 
ATOM      9  C   UNL     1      -4.052  11.017  17.496  0.00  0.00    +0.000 A 
ATOM     10  C   UNL     1      -2.765  10.759  17.040  0.00  0.00    +0.000 A 
ATOM     11  C   UNL     1      -1.662  11.180  17.787  0.00  0.00    +0.000 A 
ATOM     12  C   UNL     1      -1.825  11.867  19.006  0.00  0.00    +0.000 A 
ATOM     13  C   UNL     1      -3.144  12.136  19.443  0.00  0.00    +0.000 A 
BRANCH   8  15
ATOM     14  C   UNL     1      -6.251  13.024  18.517  0.00  0.00    +0.000 C 
ATOM     15  O   UNL     1      -5.590  11.859  18.988  0.00  0.00    +0.000 OA
ENDBRANCH   8  15
BRANCH  13  16
ATOM     16  O   UNL     1      -3.356  12.831  20.607  0.00  0.00    +0.000 OA
ATOM     17  H   UNL     1      -2.806  12.476  21.317  0.00  0.00    +0.000 HD
ENDBRANCH  13  16
ENDBRANCH   7  12
ENDBRANCH   1   7
BRANCH   5  18
ATOM     18  C   UNL     1       1.863   8.299  18.416  0.00  0.00    +0.000 C 
BRANCH  18  19
ATOM     19  O   UNL     1       2.880   7.340  18.695  0.00  0.00    +0.000 OA
BRANCH  19  20
ATOM     20  C   UNL     1       2.696   6.066  18.062  0.00  0.00    +0.000 C 
BRANCH  20  21
ATOM     21  C   UNL     1       3.987   5.624  17.379  0.00  0.00    +0.000 A 
ATOM     22  C   UNL     1       4.129   4.316  16.884  0.00  0.00    +0.000 A 
ATOM     23  C   UNL     1       5.318   3.912  16.277  0.00  0.00    +0.000 A 
ATOM     24  C   UNL     1       6.368   4.814  16.167  0.00  0.00    +0.000 A 
ATOM     25  F   UNL     1       7.513   4.427  15.585  0.00  0.00    +0.000 F 
ATOM     26  C   UNL     1       6.254   6.112  16.651  0.00  0.00    +0.000 A 
ATOM     27  C   UNL     1       5.065   6.520  17.257  0.00  0.00    +0.000 A 
ENDBRANCH  20  21
BRANCH  20  28
ATOM     28  C   UNL     1       2.218   5.052  19.104  0.00  0.00    +0.000 A 
ATOM     29  C   UNL     1       1.342   4.002  18.766  0.00  0.00    +0.000 A 
ATOM     30  C   UNL     1       0.918   3.084  19.728  0.00  0.00    +0.000 A 
ATOM     31  C   UNL     1       1.365   3.209  21.036  0.00  0.00    +0.000 A 
ATOM     32  F   UNL     1       0.960   2.325  21.959  0.00  0.00    +0.000 F 
ATOM     33  C   UNL     1       2.226   4.236  21.402  0.00  0.00    +0.000 A 
ATOM     34  C   UNL     1       2.654   5.153  20.439  0.00  0.00    +0.000 A 
ENDBRANCH  20  28
ENDBRANCH  19  20
ENDBRANCH  18  19
ENDBRANCH   5  18
TORSDOF 9
ENDMDL
MODEL 4
REMARK VINA RESULT:      -8.3      1.385      2.176
REMARK  Name = 
REMARK  10 active torsions:
REMARK  status: ('A' for Active; 'I' for Inactive)
REMARK    1  A    between atoms: C_1  and  O_2
REMARK    2  A    between atoms: O_2  and  C_3
REMARK    3  A    between atoms: C_7  and  C_8
REMARK    4  A    between atoms: C_8  and  N_9
REMARK    5  A    between atoms: C_13  and  C_14
REMARK    6  A    between atoms: C_14  and  O_15
REMARK    7  A    between atoms: O_15  and  C_16
REMARK    8  A    between atoms: C_16  and  C_17
REMARK    9  A    between atoms: C_16  and  C_24
REMARK   10  A    between atoms: C_32  and  O_33
REMARK                            x       y       z     vdW  Elec       q    Type
REMARK                         _______ _______ _______ _____ _____    ______ ____
ROOT
ATOM      1  N   UNL     1       0.535  11.572  19.388  0.00  0.00    +0.000 NA
ATOM      2  C   UNL     1       0.031  11.130  20.686  0.00  0.00    +0.000 C 
ATOM      3  C   UNL     1       0.798   9.980  21.337  0.00  0.00    +0.000 C 
ATOM      4  C   UNL     1       0.987   8.830  20.364  0.00  0.00    +0.000 C 
ATOM      5  C   UNL     1       1.754   9.317  19.139  0.00  0.00    +0.000 C 
ATOM      6  C   UNL     1       1.088  10.549  18.496  0.00  0.00    +0.000 C 
ENDROOT
BRANCH   1   7
ATOM      7  C   UNL     1      -0.366  12.497  18.659  0.00  0.00    +0.000 C 
BRANCH   7  12
ATOM      8  C   UNL     1      -4.134  11.599  18.442  0.00  0.00    +0.000 A 
ATOM      9  C   UNL     1      -4.611  12.276  19.576  0.00  0.00    +0.000 A 
ATOM     10  C   UNL     1      -3.744  12.994  20.390  0.00  0.00    +0.000 A 
ATOM     11  C   UNL     1      -2.383  13.052  20.080  0.00  0.00    +0.000 A 
ATOM     12  C   UNL     1      -1.863  12.393  18.949  0.00  0.00    +0.000 A 
ATOM     13  C   UNL     1      -2.761  11.653  18.143  0.00  0.00    +0.000 A 
BRANCH   8  15
ATOM     14  C   UNL     1      -6.462  11.062  18.260  0.00  0.00    +0.000 C 
ATOM     15  O   UNL     1      -5.136  10.956  17.764  0.00  0.00    +0.000 OA
ENDBRANCH   8  15
BRANCH  13  16
ATOM     16  O   UNL     1      -2.299  10.966  17.048  0.00  0.00    +0.000 OA
ATOM     17  H   UNL     1      -2.815  10.160  16.914  0.00  0.00    +0.000 HD
ENDBRANCH  13  16
ENDBRANCH   7  12
ENDBRANCH   1   7
BRANCH   5  18
ATOM     18  C   UNL     1       1.856   8.187  18.102  0.00  0.00    +0.000 C 
BRANCH  18  19
ATOM     19  O   UNL     1       2.814   7.234  18.557  0.00  0.00    +0.000 OA
BRANCH  19  20
ATOM     20  C   UNL     1       2.681   5.926  17.981  0.00  0.00    +0.000 C 
BRANCH  20  21
ATOM     21  C   UNL     1       3.989   5.506  17.318  0.00  0.00    +0.000 A 
ATOM     22  C   UNL     1       4.204   4.172  16.930  0.00  0.00    +0.000 A 
ATOM     23  C   UNL     1       5.409   3.790  16.341  0.00  0.00    +0.000 A 
ATOM     24  C   UNL     1       6.402   4.740  16.141  0.00  0.00    +0.000 A 
ATOM     25  F   UNL     1       7.562   4.374  15.576  0.00  0.00    +0.000 F 
ATOM     26  C   UNL     1       6.216   6.064  16.518  0.00  0.00    +0.000 A 
ATOM     27  C   UNL     1       5.010   6.450  17.106  0.00  0.00    +0.000 A 
ENDBRANCH  20  21
BRANCH  20  28
ATOM     28  C   UNL     1       2.242   4.942  19.068  0.00  0.00    +0.000 A 
ATOM     29  C   UNL     1       2.721   5.039  20.389  0.00  0.00    +0.000 A 
ATOM     30  C   UNL     1       2.307   4.134  21.370  0.00  0.00    +0.000 A 
ATOM     31  C   UNL     1       1.414   3.126  21.036  0.00  0.00    +0.000 A 
ATOM     32  F   UNL     1       1.015   2.261  21.978  0.00  0.00    +0.000 F 
ATOM     33  C   UNL     1       0.927   3.002  19.741  0.00  0.00    +0.000 A 
ATOM     34  C   UNL     1       1.337   3.908  18.760  0.00  0.00    +0.000 A 
ENDBRANCH  20  28
ENDBRANCH  19  20
ENDBRANCH  18  19
ENDBRANCH   5  18
TORSDOF 9
ENDMDL
MODEL 5
REMARK VINA RESULT:      -8.2      1.545      4.311
REMARK  Name = 
REMARK  10 active torsions:
REMARK  status: ('A' for Active; 'I' for Inactive)
REMARK    1  A    between atoms: C_1  and  O_2
REMARK    2  A    between atoms: O_2  and  C_3
REMARK    3  A    between atoms: C_7  and  C_8
REMARK    4  A    between atoms: C_8  and  N_9
REMARK    5  A    between atoms: C_13  and  C_14
REMARK    6  A    between atoms: C_14  and  O_15
REMARK    7  A    between atoms: O_15  and  C_16
REMARK    8  A    between atoms: C_16  and  C_17
REMARK    9  A    between atoms: C_16  and  C_24
REMARK   10  A    between atoms: C_32  and  O_33
REMARK                            x       y       z     vdW  Elec       q    Type
REMARK                         _______ _______ _______ _____ _____    ______ ____
ROOT
ATOM      1  N   UNL     1       0.637  11.071  19.604  0.00  0.00    +0.000 NA
ATOM      2  C   UNL     1       0.143  10.611  20.899  0.00  0.00    +0.000 C 
ATOM      3  C   UNL     1       0.933   9.473  21.542  0.00  0.00    +0.000 C 
ATOM      4  C   UNL     1       1.142   8.333  20.561  0.00  0.00    +0.000 C 
ATOM      5  C   UNL     1       1.898   8.842  19.339  0.00  0.00    +0.000 C 
ATOM      6  C   UNL     1       1.209  10.065  18.705  0.00  0.00    +0.000 C 
ENDROOT
BRANCH   1   7
ATOM      7  C   UNL     1      -0.283  11.984  18.882  0.00  0.00    +0.000 C 
BRANCH   7  12
ATOM      8  C   UNL     1      -4.108  11.448  18.525  0.00  0.00    +0.000 A 
ATOM      9  C   UNL     1      -4.119  10.322  17.686  0.00  0.00    +0.000 A 
ATOM     10  C   UNL     1      -2.930   9.757  17.243  0.00  0.00    +0.000 A 
ATOM     11  C   UNL     1      -1.707  10.306  17.637  0.00  0.00    +0.000 A 
ATOM     12  C   UNL     1      -1.650  11.431  18.482  0.00  0.00    +0.000 A 
ATOM     13  C   UNL     1      -2.874  12.002  18.908  0.00  0.00    +0.000 A 
BRANCH   8  15
ATOM     14  C   UNL     1      -6.465  11.354  18.105  0.00  0.00    +0.000 C 
ATOM     15  O   UNL     1      -5.373  11.855  18.861  0.00  0.00    +0.000 OA
ENDBRANCH   8  15
BRANCH  13  16
ATOM     16  O   UNL     1      -2.873  13.118  19.706  0.00  0.00    +0.000 OA
ATOM     17  H   UNL     1      -2.949  12.868  20.636  0.00  0.00    +0.000 HD
ENDBRANCH  13  16
ENDBRANCH   7  12
ENDBRANCH   1   7
BRANCH   5  18
ATOM     18  C   UNL     1       2.021   7.721  18.295  0.00  0.00    +0.000 C 
BRANCH  18  19
ATOM     19  O   UNL     1       3.395   7.565  17.950  0.00  0.00    +0.000 OA
BRANCH  19  20
ATOM     20  C   UNL     1       4.015   6.380  18.469  0.00  0.00    +0.000 C 
BRANCH  20  21
ATOM     21  C   UNL     1       2.956   5.340  18.822  0.00  0.00    +0.000 A 
ATOM     22  C   UNL     1       2.621   5.079  20.163  0.00  0.00    +0.000 A 
ATOM     23  C   UNL     1       1.665   4.114  20.480  0.00  0.00    +0.000 A 
ATOM     24  C   UNL     1       1.044   3.408  19.458  0.00  0.00    +0.000 A 
ATOM     25  F   UNL     1       0.125   2.479  19.762  0.00  0.00    +0.000 F 
ATOM     26  C   UNL     1       1.359   3.645  18.125  0.00  0.00    +0.000 A 
ATOM     27  C   UNL     1       2.314   4.611  17.805  0.00  0.00    +0.000 A 
ENDBRANCH  20  21
BRANCH  20  28
ATOM     28  C   UNL     1       5.024   5.852  17.447  0.00  0.00    +0.000 A 
ATOM     29  C   UNL     1       6.081   4.999  17.823  0.00  0.00    +0.000 A 
ATOM     30  C   UNL     1       6.991   4.524  16.877  0.00  0.00    +0.000 A 
ATOM     31  C   UNL     1       6.853   4.899  15.548  0.00  0.00    +0.000 A 
ATOM     32  F   UNL     1       7.725   4.440  14.640  0.00  0.00    +0.000 F 
ATOM     33  C   UNL     1       5.824   5.741  15.146  0.00  0.00    +0.000 A 
ATOM     34  C   UNL     1       4.911   6.215  16.091  0.00  0.00    +0.000 A 
ENDBRANCH  20  28
ENDBRANCH  19  20
ENDBRANCH  18  19
ENDBRANCH   5  18
TORSDOF 9
ENDMDL
MODEL 6
REMARK VINA RESULT:      -8.1      1.785      2.448
REMARK  Name = 
REMARK  10 active torsions:
REMARK  status: ('A' for Active; 'I' for Inactive)
REMARK    1  A    between atoms: C_1  and  O_2
REMARK    2  A    between atoms: O_2  and  C_3
REMARK    3  A    between atoms: C_7  and  C_8
REMARK    4  A    between atoms: C_8  and  N_9
REMARK    5  A    between atoms: C_13  and  C_14
REMARK    6  A    between atoms: C_14  and  O_15
REMARK    7  A    between atoms: O_15  and  C_16
REMARK    8  A    between atoms: C_16  and  C_17
REMARK    9  A    between atoms: C_16  and  C_24
REMARK   10  A    between atoms: C_32  and  O_33
REMARK                            x       y       z     vdW  Elec       q    Type
REMARK                         _______ _______ _______ _____ _____    ______ ____
ROOT
ATOM      1  N   UNL     1      -0.558  10.502  18.490  0.00  0.00    +0.000 NA
ATOM      2  C   UNL     1      -0.891  10.015  19.827  0.00  0.00    +0.000 C 
ATOM      3  C   UNL     1       0.294   9.573  20.683  0.00  0.00    +0.000 C 
ATOM      4  C   UNL     1       1.191   8.614  19.921  0.00  0.00    +0.000 C 
ATOM      5  C   UNL     1       1.709   9.293  18.658  0.00  0.00    +0.000 C 
ATOM      6  C   UNL     1       0.563   9.860  17.799  0.00  0.00    +0.000 C 
ENDROOT
BRANCH   1   7
ATOM      7  C   UNL     1      -1.723  10.676  17.589  0.00  0.00    +0.000 C 
BRANCH   7  12
ATOM      8  C   UNL     1      -4.404  12.573  19.654  0.00  0.00    +0.000 A 
ATOM      9  C   UNL     1      -5.537  11.803  19.348  0.00  0.00    +0.000 A 
ATOM     10  C   UNL     1      -5.442  10.710  18.495  0.00  0.00    +0.000 A 
ATOM     11  C   UNL     1      -4.208  10.364  17.939  0.00  0.00    +0.000 A 
ATOM     12  C   UNL     1      -3.045  11.106  18.225  0.00  0.00    +0.000 A 
ATOM     13  C   UNL     1      -3.168  12.226  19.081  0.00  0.00    +0.000 A 
BRANCH   8  15
ATOM     14  C   UNL     1      -5.779  14.459  20.195  0.00  0.00    +0.000 C 
ATOM     15  O   UNL     1      -4.694  13.601  20.513  0.00  0.00    +0.000 OA
ENDBRANCH   8  15
BRANCH  13  16
ATOM     16  O   UNL     1      -2.071  13.000  19.365  0.00  0.00    +0.000 OA
ATOM     17  H   UNL     1      -2.324  13.756  19.911  0.00  0.00    +0.000 HD
ENDBRANCH  13  16
ENDBRANCH   7  12
ENDBRANCH   1   7
BRANCH   5  18
ATOM     18  C   UNL     1       2.531   8.295  17.827  0.00  0.00    +0.000 C 
BRANCH  18  19
ATOM     19  O   UNL     1       2.937   7.220  18.671  0.00  0.00    +0.000 OA
BRANCH  19  20
ATOM     20  C   UNL     1       2.811   5.915  18.087  0.00  0.00    +0.000 C 
BRANCH  20  21
ATOM     21  C   UNL     1       4.146   5.469  17.500  0.00  0.00    +0.000 A 
ATOM     22  C   UNL     1       5.347   6.089  17.888  0.00  0.00    +0.000 A 
ATOM     23  C   UNL     1       6.563   5.689  17.334  0.00  0.00    +0.000 A 
ATOM     24  C   UNL     1       6.580   4.670  16.390  0.00  0.00    +0.000 A 
ATOM     25  F   UNL     1       7.748   4.285  15.856  0.00  0.00    +0.000 F 
ATOM     26  C   UNL     1       5.407   4.043  15.988  0.00  0.00    +0.000 A 
ATOM     27  C   UNL     1       4.189   4.440  16.542  0.00  0.00    +0.000 A 
ENDBRANCH  20  21
BRANCH  20  28
ATOM     28  C   UNL     1       2.291   4.941  19.146  0.00  0.00    +0.000 A 
ATOM     29  C   UNL     1       2.663   5.052  20.500  0.00  0.00    +0.000 A 
ATOM     30  C   UNL     1       2.176   4.156  21.454  0.00  0.00    +0.000 A 
ATOM     31  C   UNL     1       1.315   3.141  21.062  0.00  0.00    +0.000 A 
ATOM     32  F   UNL     1       0.845   2.284  21.978  0.00  0.00    +0.000 F 
ATOM     33  C   UNL     1       0.931   3.003  19.734  0.00  0.00    +0.000 A 
ATOM     34  C   UNL     1       1.415   3.901  18.779  0.00  0.00    +0.000 A 
ENDBRANCH  20  28
ENDBRANCH  19  20
ENDBRANCH  18  19
ENDBRANCH   5  18
TORSDOF 9
ENDMDL
MODEL 7
REMARK VINA RESULT:      -8.1      3.844      8.639
REMARK  Name = 
REMARK  10 active torsions:
REMARK  status: ('A' for Active; 'I' for Inactive)
REMARK    1  A    between atoms: C_1  and  O_2
REMARK    2  A    between atoms: O_2  and  C_3
REMARK    3  A    between atoms: C_7  and  C_8
REMARK    4  A    between atoms: C_8  and  N_9
REMARK    5  A    between atoms: C_13  and  C_14
REMARK    6  A    between atoms: C_14  and  O_15
REMARK    7  A    between atoms: O_15  and  C_16
REMARK    8  A    between atoms: C_16  and  C_17
REMARK    9  A    between atoms: C_16  and  C_24
REMARK   10  A    between atoms: C_32  and  O_33
REMARK                            x       y       z     vdW  Elec       q    Type
REMARK                         _______ _______ _______ _____ _____    ______ ____
ROOT
ATOM      1  N   UNL     1       2.974   4.955  18.108  0.00  0.00    +0.000 NA
ATOM      2  C   UNL     1       2.744   4.156  19.309  0.00  0.00    +0.000 C 
ATOM      3  C   UNL     1       1.610   4.634  20.214  0.00  0.00    +0.000 C 
ATOM      4  C   UNL     1       1.742   6.116  20.518  0.00  0.00    +0.000 C 
ATOM      5  C   UNL     1       1.715   6.909  19.216  0.00  0.00    +0.000 C 
ATOM      6  C   UNL     1       2.767   6.403  18.212  0.00  0.00    +0.000 C 
ENDROOT
BRANCH   1   7
ATOM      7  C   UNL     1       4.230   4.638  17.387  0.00  0.00    +0.000 C 
BRANCH   7  12
ATOM      8  C   UNL     1       7.233   7.084  17.594  0.00  0.00    +0.000 A 
ATOM      9  C   UNL     1       7.856   6.607  18.758  0.00  0.00    +0.000 A 
ATOM     10  C   UNL     1       7.320   5.535  19.460  0.00  0.00    +0.000 A 
ATOM     11  C   UNL     1       6.154   4.916  19.004  0.00  0.00    +0.000 A 
ATOM     12  C   UNL     1       5.501   5.358  17.837  0.00  0.00    +0.000 A 
ATOM     13  C   UNL     1       6.053   6.463  17.148  0.00  0.00    +0.000 A 
BRANCH   8  15
ATOM     14  C   UNL     1       8.297   9.211  17.887  0.00  0.00    +0.000 C 
ATOM     15  O   UNL     1       7.911   8.139  17.040  0.00  0.00    +0.000 OA
ENDBRANCH   8  15
BRANCH  13  16
ATOM     16  O   UNL     1       5.437   6.953  16.024  0.00  0.00    +0.000 OA
ATOM     17  H   UNL     1       5.823   7.802  15.770  0.00  0.00    +0.000 HD
ENDBRANCH  13  16
ENDBRANCH   7  12
ENDBRANCH   1   7
BRANCH   5  18
ATOM     18  C   UNL     1       1.954   8.400  19.506  0.00  0.00    +0.000 C 
BRANCH  18  19
ATOM     19  O   UNL     1       1.103   9.173  18.664  0.00  0.00    +0.000 OA
BRANCH  19  20
ATOM     20  C   UNL     1       0.377  10.213  19.335  0.00  0.00    +0.000 C 
BRANCH  20  21
ATOM     21  C   UNL     1       1.223  11.479  19.418  0.00  0.00    +0.000 A 
ATOM     22  C   UNL     1       1.312  12.209  20.617  0.00  0.00    +0.000 A 
ATOM     23  C   UNL     1       2.072  13.377  20.682  0.00  0.00    +0.000 A 
ATOM     24  C   UNL     1       2.743  13.817  19.549  0.00  0.00    +0.000 A 
ATOM     25  F   UNL     1       3.474  14.940  19.609  0.00  0.00    +0.000 F 
ATOM     26  C   UNL     1       2.669  13.116  18.351  0.00  0.00    +0.000 A 
ATOM     27  C   UNL     1       1.911  11.946  18.283  0.00  0.00    +0.000 A 
ENDBRANCH  20  21
BRANCH  20  28
ATOM     28  C   UNL     1      -0.948  10.450  18.606  0.00  0.00    +0.000 A 
ATOM     29  C   UNL     1      -1.277   9.754  17.426  0.00  0.00    +0.000 A 
ATOM     30  C   UNL     1      -2.491   9.981  16.775  0.00  0.00    +0.000 A 
ATOM     31  C   UNL     1      -3.385  10.904  17.297  0.00  0.00    +0.000 A 
ATOM     32  F   UNL     1      -4.552  11.118  16.674  0.00  0.00    +0.000 F 
ATOM     33  C   UNL     1      -3.089  11.608  18.458  0.00  0.00    +0.000 A 
ATOM     34  C   UNL     1      -1.876  11.381  19.112  0.00  0.00    +0.000 A 
ENDBRANCH  20  28
ENDBRANCH  19  20
ENDBRANCH  18  19
ENDBRANCH   5  18
TORSDOF 9
ENDMDL
MODEL 8
REMARK VINA RESULT:      -8.0      2.371      3.995
REMARK  Name = 
REMARK  10 active torsions:
REMARK  status: ('A' for Active; 'I' for Inactive)
REMARK    1  A    between atoms: C_1  and  O_2
REMARK    2  A    between atoms: O_2  and  C_3
REMARK    3  A    between atoms: C_7  and  C_8
REMARK    4  A    between atoms: C_8  and  N_9
REMARK    5  A    between atoms: C_13  and  C_14
REMARK    6  A    between atoms: C_14  and  O_15
REMARK    7  A    between atoms: O_15  and  C_16
REMARK    8  A    between atoms: C_16  and  C_17
REMARK    9  A    between atoms: C_16  and  C_24
REMARK   10  A    between atoms: C_32  and  O_33
REMARK                            x       y       z     vdW  Elec       q    Type
REMARK                         _______ _______ _______ _____ _____    ______ ____
ROOT
ATOM      1  N   UNL     1      -0.064  10.034  20.590  0.00  0.00    +0.000 NA
ATOM      2  C   UNL     1      -0.876  10.845  19.688  0.00  0.00    +0.000 C 
ATOM      3  C   UNL     1      -1.072  10.278  18.283  0.00  0.00    +0.000 C 
ATOM      4  C   UNL     1       0.256   9.876  17.667  0.00  0.00    +0.000 C 
ATOM      5  C   UNL     1       0.930   8.827  18.544  0.00  0.00    +0.000 C 
ATOM      6  C   UNL     1       1.060   9.296  20.005  0.00  0.00    +0.000 C 
ENDROOT
BRANCH   1   7
ATOM      7  C   UNL     1       0.331  10.715  21.847  0.00  0.00    +0.000 C 
BRANCH   7  12
ATOM      8  C   UNL     1      -1.323  14.047  22.949  0.00  0.00    +0.000 A 
ATOM      9  C   UNL     1      -2.506  13.553  23.523  0.00  0.00    +0.000 A 
ATOM     10  C   UNL     1      -2.766  12.189  23.546  0.00  0.00    +0.000 A 
ATOM     11  C   UNL     1      -1.843  11.293  23.002  0.00  0.00    +0.000 A 
ATOM     12  C   UNL     1      -0.642  11.744  22.422  0.00  0.00    +0.000 A 
ATOM     13  C   UNL     1      -0.405  13.139  22.392  0.00  0.00    +0.000 A 
BRANCH   8  15
ATOM     14  C   UNL     1      -2.376  16.178  22.645  0.00  0.00    +0.000 C 
ATOM     15  O   UNL     1      -1.242  15.413  23.025  0.00  0.00    +0.000 OA
ENDBRANCH   8  15
BRANCH  13  16
ATOM     16  O   UNL     1       0.736  13.632  21.810  0.00  0.00    +0.000 OA
ATOM     17  H   UNL     1       0.816  14.581  21.975  0.00  0.00    +0.000 HD
ENDBRANCH  13  16
ENDBRANCH   7  12
ENDBRANCH   1   7
BRANCH   5  18
ATOM     18  C   UNL     1       2.322   8.493  17.984  0.00  0.00    +0.000 C 
BRANCH  18  19
ATOM     19  O   UNL     1       2.858   7.392  18.714  0.00  0.00    +0.000 OA
BRANCH  19  20
ATOM     20  C   UNL     1       2.705   6.115  18.078  0.00  0.00    +0.000 C 
BRANCH  20  21
ATOM     21  C   UNL     1       4.014   5.694  17.417  0.00  0.00    +0.000 A 
ATOM     22  C   UNL     1       4.172   4.399  16.893  0.00  0.00    +0.000 A 
ATOM     23  C   UNL     1       5.377   4.013  16.307  0.00  0.00    +0.000 A 
ATOM     24  C   UNL     1       6.427   4.921  16.245  0.00  0.00    +0.000 A 
ATOM     25  F   UNL     1       7.587   4.551  15.684  0.00  0.00    +0.000 F 
ATOM     26  C   UNL     1       6.297   6.206  16.759  0.00  0.00    +0.000 A 
ATOM     27  C   UNL     1       5.091   6.595  17.345  0.00  0.00    +0.000 A 
ENDBRANCH  20  21
BRANCH  20  28
ATOM     28  C   UNL     1       2.224   5.094  19.111  0.00  0.00    +0.000 A 
ATOM     29  C   UNL     1       1.334   4.058  18.768  0.00  0.00    +0.000 A 
ATOM     30  C   UNL     1       0.909   3.132  19.723  0.00  0.00    +0.000 A 
ATOM     31  C   UNL     1       1.368   3.236  21.028  0.00  0.00    +0.000 A 
ATOM     32  F   UNL     1       0.962   2.345  21.943  0.00  0.00    +0.000 F 
ATOM     33  C   UNL     1       2.244   4.249  21.399  0.00  0.00    +0.000 A 
ATOM     34  C   UNL     1       2.673   5.173  20.444  0.00  0.00    +0.000 A 
ENDBRANCH  20  28
ENDBRANCH  19  20
ENDBRANCH  18  19
ENDBRANCH   5  18
TORSDOF 9
ENDMDL
MODEL 9
REMARK VINA RESULT:      -8.0      3.805      8.757
REMARK  Name = 
REMARK  10 active torsions:
REMARK  status: ('A' for Active; 'I' for Inactive)
REMARK    1  A    between atoms: C_1  and  O_2
REMARK    2  A    between atoms: O_2  and  C_3
REMARK    3  A    between atoms: C_7  and  C_8
REMARK    4  A    between atoms: C_8  and  N_9
REMARK    5  A    between atoms: C_13  and  C_14
REMARK    6  A    between atoms: C_14  and  O_15
REMARK    7  A    between atoms: O_15  and  C_16
REMARK    8  A    between atoms: C_16  and  C_17
REMARK    9  A    between atoms: C_16  and  C_24
REMARK   10  A    between atoms: C_32  and  O_33
REMARK                            x       y       z     vdW  Elec       q    Type
REMARK                         _______ _______ _______ _____ _____    ______ ____
ROOT
ATOM      1  N   UNL     1       2.207   4.696  18.336  0.00  0.00    +0.000 NA
ATOM      2  C   UNL     1       2.301   4.537  19.785  0.00  0.00    +0.000 C 
ATOM      3  C   UNL     1       1.694   5.666  20.615  0.00  0.00    +0.000 C 
ATOM      4  C   UNL     1       2.197   7.019  20.146  0.00  0.00    +0.000 C 
ATOM      5  C   UNL     1       1.831   7.220  18.679  0.00  0.00    +0.000 C 
ATOM      6  C   UNL     1       2.321   6.055  17.799  0.00  0.00    +0.000 C 
ENDROOT
BRANCH   1   7
ATOM      7  C   UNL     1       3.023   3.735  17.555  0.00  0.00    +0.000 C 
BRANCH   7  12
ATOM      8  C   UNL     1       6.799   4.613  17.686  0.00  0.00    +0.000 A 
ATOM      9  C   UNL     1       7.009   4.982  16.347  0.00  0.00    +0.000 A 
ATOM     10  C   UNL     1       5.968   4.941  15.429  0.00  0.00    +0.000 A 
ATOM     11  C   UNL     1       4.694   4.536  15.836  0.00  0.00    +0.000 A 
ATOM     12  C   UNL     1       4.438   4.164  17.170  0.00  0.00    +0.000 A 
ATOM     13  C   UNL     1       5.517   4.196  18.085  0.00  0.00    +0.000 A 
BRANCH   8  15
ATOM     14  C   UNL     1       8.017   5.773  19.392  0.00  0.00    +0.000 C 
ATOM     15  O   UNL     1       7.939   4.724  18.438  0.00  0.00    +0.000 OA
ENDBRANCH   8  15
BRANCH  13  16
ATOM     16  O   UNL     1       5.327   3.812  19.388  0.00  0.00    +0.000 OA
ATOM     17  H   UNL     1       5.693   2.930  19.537  0.00  0.00    +0.000 HD
ENDBRANCH  13  16
ENDBRANCH   7  12
ENDBRANCH   1   7
BRANCH   5  18
ATOM     18  C   UNL     1       2.428   8.540  18.167  0.00  0.00    +0.000 C 
BRANCH  18  19
ATOM     19  O   UNL     1       1.370   9.371  17.697  0.00  0.00    +0.000 OA
BRANCH  19  20
ATOM     20  C   UNL     1       0.673  10.096  18.721  0.00  0.00    +0.000 C 
BRANCH  20  21
ATOM     21  C   UNL     1       1.410  11.392  19.045  0.00  0.00    +0.000 A 
ATOM     22  C   UNL     1       1.384  11.931  20.344  0.00  0.00    +0.000 A 
ATOM     23  C   UNL     1       2.044  13.126  20.629  0.00  0.00    +0.000 A 
ATOM     24  C   UNL     1       2.730  13.785  19.618  0.00  0.00    +0.000 A 
ATOM     25  F   UNL     1       3.364  14.934  19.891  0.00  0.00    +0.000 F 
ATOM     26  C   UNL     1       2.769  13.274  18.325  0.00  0.00    +0.000 A 
ATOM     27  C   UNL     1       2.111  12.078  18.037  0.00  0.00    +0.000 A 
ENDBRANCH  20  21
BRANCH  20  28
ATOM     28  C   UNL     1      -0.766  10.348  18.267  0.00  0.00    +0.000 A 
ATOM     29  C   UNL     1      -1.315   9.689  17.149  0.00  0.00    +0.000 A 
ATOM     30  C   UNL     1      -2.631   9.929  16.750  0.00  0.00    +0.000 A 
ATOM     31  C   UNL     1      -3.409  10.829  17.464  0.00  0.00    +0.000 A 
ATOM     32  F   UNL     1      -4.673  11.055  17.083  0.00  0.00    +0.000 F 
ATOM     33  C   UNL     1      -2.896  11.497  18.569  0.00  0.00    +0.000 A 
ATOM     34  C   UNL     1      -1.580  11.256  18.972  0.00  0.00    +0.000 A 
ENDBRANCH  20  28
ENDBRANCH  19  20
ENDBRANCH  18  19
ENDBRANCH   5  18
TORSDOF 9
ENDMDL
