MODEL 1
REMARK VINA RESULT:      -5.9      0.000      0.000
REMARK  Name = 
REMARK  12 active torsions:
REMARK  status: ('A' for Active; 'I' for Inactive)
REMARK    1  A    between atoms: C_1  and  O_2
REMARK    2  A    between atoms: O_2  and  C_3
REMARK    3  A    between atoms: C_6  and  C_7
REMARK    4  A    between atoms: C_15  and  C_16
REMARK    5  A    between atoms: C_20  and  N_21
REMARK    6  A    between atoms: N_21  and  C_22
REMARK    7  A    between atoms: N_21  and  C_23
REMARK    8  A    between atoms: C_23  and  C_24
REMARK    9  A    between atoms: C_24  and  C_25
REMARK   10  A    between atoms: C_25  and  C_26
REMARK   11  A    between atoms: C_26  and  C_27
REMARK   12  A    between atoms: C_26  and  C_28
REMARK                            x       y       z     vdW  Elec       q    Type
REMARK                         _______ _______ _______ _____ _____    ______ ____
ROOT
ATOM      1  C   UNL     1       7.759  13.853  26.103  0.00  0.00    +0.000 C 
ATOM      2  C   UNL     1       8.057  12.374  25.756  0.00  0.00    +0.000 C 
ATOM      3  C   UNL     1       7.833  11.915  24.279  0.00  0.00    +0.000 C 
ATOM      4  C   UNL     1       8.104  12.971  23.136  0.00  0.00    +0.000 C 
ATOM      5  C   UNL     1       6.788  13.099  22.308  0.00  0.00    +0.000 C 
ATOM      6  C   UNL     1       8.451  14.305  23.849  0.00  0.00    +0.000 C 
ATOM      7  C   UNL     1       8.857  15.454  22.953  0.00  0.00    +0.000 C 
ATOM      8  C   UNL     1      10.108  15.011  22.216  0.00  0.00    +0.000 C 
ATOM      9  C   UNL     1       9.763  13.818  21.305  0.00  0.00    +0.000 C 
ATOM     10  C   UNL     1       9.326  12.594  22.166  0.00  0.00    +0.000 C 
ATOM     11  C   UNL     1       9.064  11.361  21.284  0.00  0.00    +0.000 C 
ATOM     12  C   UNL     1       9.961  11.169  20.060  0.00  0.00    +0.000 C 
ATOM     13  C   UNL     1      10.634  12.381  19.351  0.00  0.00    +0.000 C 
ATOM     14  C   UNL     1      11.976  11.757  18.809  0.00  0.00    +0.000 C 
ATOM     15  C   UNL     1      10.937  13.525  20.344  0.00  0.00    +0.000 C 
ATOM     16  C   UNL     1      11.220  14.762  19.460  0.00  0.00    +0.000 C 
ATOM     17  C   UNL     1      10.945  14.359  18.022  0.00  0.00    +0.000 C 
ATOM     18  C   UNL     1       9.958  13.151  18.108  0.00  0.00    +0.000 C 
ATOM     19  C   UNL     1       7.390  14.664  24.875  0.00  0.00    +0.000 C 
ENDROOT
BRANCH   1  21
ATOM     20  C   UNL     1       5.473  13.594  26.669  0.00  0.00    +0.000 C 
ATOM     21  O   UNL     1       6.758  14.030  27.100  0.00  0.00    +0.000 OA
ENDBRANCH   1  21
BRANCH  18  22
ATOM     22  N   UNL     1       8.553  13.661  18.182  0.00  0.00    +0.000 NA
ATOM     23  C   UNL     1       7.652  12.916  17.298  0.00  0.00    +0.000 C 
BRANCH  22  24
ATOM     24  C   UNL     1       8.449  15.097  17.793  0.00  0.00    +0.000 C 
BRANCH  24  25
ATOM     25  C   UNL     1       8.000  16.064  18.905  0.00  0.00    +0.000 C 
BRANCH  25  26
ATOM     26  C   UNL     1       6.863  15.507  19.770  0.00  0.00    +0.000 C 
BRANCH  26  27
ATOM     27  C   UNL     1       5.500  15.500  19.049  0.00  0.00    +0.000 C 
ATOM     28  C   UNL     1       4.415  14.816  19.883  0.00  0.00    +0.000 C 
ATOM     29  C   UNL     1       5.072  16.935  18.733  0.00  0.00    +0.000 C 
ENDBRANCH  26  27
ENDBRANCH  25  26
ENDBRANCH  24  25
ENDBRANCH  22  24
ENDBRANCH  18  22
TORSDOF 6
ENDMDL
MODEL 2
REMARK VINA RESULT:      -5.5      8.661     12.074
REMARK  Name = 
REMARK  12 active torsions:
REMARK  status: ('A' for Active; 'I' for Inactive)
REMARK    1  A    between atoms: C_1  and  O_2
REMARK    2  A    between atoms: O_2  and  C_3
REMARK    3  A    between atoms: C_6  and  C_7
REMARK    4  A    between atoms: C_15  and  C_16
REMARK    5  A    between atoms: C_20  and  N_21
REMARK    6  A    between atoms: N_21  and  C_22
REMARK    7  A    between atoms: N_21  and  C_23
REMARK    8  A    between atoms: C_23  and  C_24
REMARK    9  A    between atoms: C_24  and  C_25
REMARK   10  A    between atoms: C_25  and  C_26
REMARK   11  A    between atoms: C_26  and  C_27
REMARK   12  A    between atoms: C_26  and  C_28
REMARK                            x       y       z     vdW  Elec       q    Type
REMARK                         _______ _______ _______ _____ _____    ______ ____
ROOT
ATOM      1  C   UNL     1       0.177   9.513  20.115  0.00  0.00    +0.000 C 
ATOM      2  C   UNL     1      -0.215   9.319  21.600  0.00  0.00    +0.000 C 
ATOM      3  C   UNL     1      -0.480  10.600  22.455  0.00  0.00    +0.000 C 
ATOM      4  C   UNL     1      -1.107  11.851  21.723  0.00  0.00    +0.000 C 
ATOM      5  C   UNL     1      -0.129  13.047  21.940  0.00  0.00    +0.000 C 
ATOM      6  C   UNL     1      -1.207  11.472  20.222  0.00  0.00    +0.000 C 
ATOM      7  C   UNL     1      -1.883  12.484  19.322  0.00  0.00    +0.000 C 
ATOM      8  C   UNL     1      -3.304  12.640  19.832  0.00  0.00    +0.000 C 
ATOM      9  C   UNL     1      -3.270  13.238  21.251  0.00  0.00    +0.000 C 
ATOM     10  C   UNL     1      -2.576  12.246  22.234  0.00  0.00    +0.000 C 
ATOM     11  C   UNL     1      -2.612  12.781  23.676  0.00  0.00    +0.000 C 
ATOM     12  C   UNL     1      -3.856  13.560  24.107  0.00  0.00    +0.000 C 
ATOM     13  C   UNL     1      -4.724  14.336  23.074  0.00  0.00    +0.000 C 
ATOM     14  C   UNL     1      -6.168  14.236  23.697  0.00  0.00    +0.000 C 
ATOM     15  C   UNL     1      -4.691  13.663  21.684  0.00  0.00    +0.000 C 
ATOM     16  C   UNL     1      -5.246  14.727  20.708  0.00  0.00    +0.000 C 
ATOM     17  C   UNL     1      -5.450  16.004  21.503  0.00  0.00    +0.000 C 
ATOM     18  C   UNL     1      -4.487  15.892  22.728  0.00  0.00    +0.000 C 
ATOM     19  C   UNL     1       0.128  10.972  19.698  0.00  0.00    +0.000 C 
ENDROOT
BRANCH   1  21
ATOM     20  C   UNL     1       1.739   9.102  18.381  0.00  0.00    +0.000 C 
ATOM     21  O   UNL     1       1.445   8.969  19.769  0.00  0.00    +0.000 OA
ENDBRANCH   1  21
BRANCH  18  22
ATOM     22  N   UNL     1      -3.133  16.404  22.345  0.00  0.00    +0.000 NA
ATOM     23  C   UNL     1      -2.411  16.957  23.494  0.00  0.00    +0.000 C 
BRANCH  22  24
ATOM     24  C   UNL     1      -3.205  17.484  21.320  0.00  0.00    +0.000 C 
BRANCH  24  25
ATOM     25  C   UNL     1      -2.457  17.210  20.001  0.00  0.00    +0.000 C 
BRANCH  25  26
ATOM     26  C   UNL     1      -1.354  16.154  20.137  0.00  0.00    +0.000 C 
BRANCH  26  27
ATOM     27  C   UNL     1      -0.577  15.915  18.827  0.00  0.00    +0.000 C 
ATOM     28  C   UNL     1      -0.398  17.206  18.025  0.00  0.00    +0.000 C 
ATOM     29  C   UNL     1       0.795  15.314  19.139  0.00  0.00    +0.000 C 
ENDBRANCH  26  27
ENDBRANCH  25  26
ENDBRANCH  24  25
ENDBRANCH  22  24
ENDBRANCH  18  22
TORSDOF 6
ENDMDL
MODEL 3
REMARK VINA RESULT:      -5.5      8.480     11.578
REMARK  Name = 
REMARK  12 active torsions:
REMARK  status: ('A' for Active; 'I' for Inactive)
REMARK    1  A    between atoms: C_1  and  O_2
REMARK    2  A    between atoms: O_2  and  C_3
REMARK    3  A    between atoms: C_6  and  C_7
REMARK    4  A    between atoms: C_15  and  C_16
REMARK    5  A    between atoms: C_20  and  N_21
REMARK    6  A    between atoms: N_21  and  C_22
REMARK    7  A    between atoms: N_21  and  C_23
REMARK    8  A    between atoms: C_23  and  C_24
REMARK    9  A    between atoms: C_24  and  C_25
REMARK   10  A    between atoms: C_25  and  C_26
REMARK   11  A    between atoms: C_26  and  C_27
REMARK   12  A    between atoms: C_26  and  C_28
REMARK                            x       y       z     vdW  Elec       q    Type
REMARK                         _______ _______ _______ _____ _____    ______ ____
ROOT
ATOM      1  C   UNL     1       1.165   9.550  18.648  0.00  0.00    +0.000 C 
ATOM      2  C   UNL     1       0.984   9.089  20.116  0.00  0.00    +0.000 C 
ATOM      3  C   UNL     1       0.696  10.185  21.191  0.00  0.00    +0.000 C 
ATOM      4  C   UNL     1      -0.145  11.445  20.744  0.00  0.00    +0.000 C 
ATOM      5  C   UNL     1       0.721  12.707  21.047  0.00  0.00    +0.000 C 
ATOM      6  C   UNL     1      -0.392  11.286  19.220  0.00  0.00    +0.000 C 
ATOM      7  C   UNL     1      -1.277  12.329  18.575  0.00  0.00    +0.000 C 
ATOM      8  C   UNL     1      -2.631  12.231  19.252  0.00  0.00    +0.000 C 
ATOM      9  C   UNL     1      -2.484  12.610  20.737  0.00  0.00    +0.000 C 
ATOM     10  C   UNL     1      -1.572  11.576  21.466  0.00  0.00    +0.000 C 
ATOM     11  C   UNL     1      -1.483  11.881  22.972  0.00  0.00    +0.000 C 
ATOM     12  C   UNL     1      -2.739  12.427  23.654  0.00  0.00    +0.000 C 
ATOM     13  C   UNL     1      -3.805  13.236  22.859  0.00  0.00    +0.000 C 
ATOM     14  C   UNL     1      -5.142  12.867  23.608  0.00  0.00    +0.000 C 
ATOM     15  C   UNL     1      -3.876  12.788  21.383  0.00  0.00    +0.000 C 
ATOM     16  C   UNL     1      -4.657  13.909  20.658  0.00  0.00    +0.000 C 
ATOM     17  C   UNL     1      -4.893  15.018  21.668  0.00  0.00    +0.000 C 
ATOM     18  C   UNL     1      -3.778  14.843  22.748  0.00  0.00    +0.000 C 
ATOM     19  C   UNL     1       0.912  11.037  18.483  0.00  0.00    +0.000 C 
ENDROOT
BRANCH   1  21
ATOM     20  C   UNL     1       2.663   7.819  18.035  0.00  0.00    +0.000 C 
ATOM     21  O   UNL     1       2.431   9.224  18.085  0.00  0.00    +0.000 OA
ENDBRANCH   1  21
BRANCH  18  22
ATOM     22  N   UNL     1      -2.544  15.570  22.311  0.00  0.00    +0.000 NA
ATOM     23  C   UNL     1      -1.606  15.773  23.419  0.00  0.00    +0.000 C 
BRANCH  22  24
ATOM     24  C   UNL     1      -2.848  16.917  21.750  0.00  0.00    +0.000 C 
BRANCH  24  25
ATOM     25  C   UNL     1      -2.443  17.140  20.280  0.00  0.00    +0.000 C 
BRANCH  25  26
ATOM     26  C   UNL     1      -0.932  17.028  20.044  0.00  0.00    +0.000 C 
BRANCH  26  27
ATOM     27  C   UNL     1      -0.576  16.411  18.676  0.00  0.00    +0.000 C 
ATOM     28  C   UNL     1      -0.436  17.477  17.587  0.00  0.00    +0.000 C 
ATOM     29  C   UNL     1       0.729  15.621  18.787  0.00  0.00    +0.000 C 
ENDBRANCH  26  27
ENDBRANCH  25  26
ENDBRANCH  24  25
ENDBRANCH  22  24
ENDBRANCH  18  22
TORSDOF 6
ENDMDL
MODEL 4
REMARK VINA RESULT:      -5.4      1.054      1.524
REMARK  Name = 
REMARK  12 active torsions:
REMARK  status: ('A' for Active; 'I' for Inactive)
REMARK    1  A    between atoms: C_1  and  O_2
REMARK    2  A    between atoms: O_2  and  C_3
REMARK    3  A    between atoms: C_6  and  C_7
REMARK    4  A    between atoms: C_15  and  C_16
REMARK    5  A    between atoms: C_20  and  N_21
REMARK    6  A    between atoms: N_21  and  C_22
REMARK    7  A    between atoms: N_21  and  C_23
REMARK    8  A    between atoms: C_23  and  C_24
REMARK    9  A    between atoms: C_24  and  C_25
REMARK   10  A    between atoms: C_25  and  C_26
REMARK   11  A    between atoms: C_26  and  C_27
REMARK   12  A    between atoms: C_26  and  C_28
REMARK                            x       y       z     vdW  Elec       q    Type
REMARK                         _______ _______ _______ _____ _____    ______ ____
ROOT
ATOM      1  C   UNL     1       7.134  13.738  26.172  0.00  0.00    +0.000 C 
ATOM      2  C   UNL     1       7.516  12.281  25.815  0.00  0.00    +0.000 C 
ATOM      3  C   UNL     1       7.442  11.857  24.313  0.00  0.00    +0.000 C 
ATOM      4  C   UNL     1       7.775  12.953  23.227  0.00  0.00    +0.000 C 
ATOM      5  C   UNL     1       6.534  13.059  22.287  0.00  0.00    +0.000 C 
ATOM      6  C   UNL     1       8.007  14.278  24.001  0.00  0.00    +0.000 C 
ATOM      7  C   UNL     1       8.449  15.465  23.175  0.00  0.00    +0.000 C 
ATOM      8  C   UNL     1       9.776  15.086  22.543  0.00  0.00    +0.000 C 
ATOM      9  C   UNL     1       9.558  13.909  21.575  0.00  0.00    +0.000 C 
ATOM     10  C   UNL     1       9.091  12.647  22.362  0.00  0.00    +0.000 C 
ATOM     11  C   UNL     1       8.955  11.431  21.429  0.00  0.00    +0.000 C 
ATOM     12  C   UNL     1       9.965  11.305  20.286  0.00  0.00    +0.000 C 
ATOM     13  C   UNL     1      10.653  12.559  19.672  0.00  0.00    +0.000 C 
ATOM     14  C   UNL     1      12.060  11.997  19.238  0.00  0.00    +0.000 C 
ATOM     15  C   UNL     1      10.823  13.684  20.717  0.00  0.00    +0.000 C 
ATOM     16  C   UNL     1      11.138  14.954  19.893  0.00  0.00    +0.000 C 
ATOM     17  C   UNL     1      11.008  14.584  18.427  0.00  0.00    +0.000 C 
ATOM     18  C   UNL     1      10.063  13.340  18.392  0.00  0.00    +0.000 C 
ATOM     19  C   UNL     1       6.847  14.571  24.936  0.00  0.00    +0.000 C 
ENDROOT
BRANCH   1  21
ATOM     20  C   UNL     1       5.537  12.585  27.489  0.00  0.00    +0.000 C 
ATOM     21  O   UNL     1       6.042  13.852  27.078  0.00  0.00    +0.000 OA
ENDBRANCH   1  21
BRANCH  18  22
ATOM     22  N   UNL     1       8.639  13.799  18.352  0.00  0.00    +0.000 NA
ATOM     23  C   UNL     1       7.810  12.941  17.500  0.00  0.00    +0.000 C 
BRANCH  22  24
ATOM     24  C   UNL     1       8.505  15.188  17.827  0.00  0.00    +0.000 C 
BRANCH  24  25
ATOM     25  C   UNL     1       7.401  16.048  18.472  0.00  0.00    +0.000 C 
BRANCH  25  26
ATOM     26  C   UNL     1       7.897  17.421  18.940  0.00  0.00    +0.000 C 
BRANCH  26  27
ATOM     27  C   UNL     1       7.872  17.584  20.474  0.00  0.00    +0.000 C 
ATOM     28  C   UNL     1       8.881  18.631  20.954  0.00  0.00    +0.000 C 
ATOM     29  C   UNL     1       6.467  17.982  20.931  0.00  0.00    +0.000 C 
ENDBRANCH  26  27
ENDBRANCH  25  26
ENDBRANCH  24  25
ENDBRANCH  22  24
ENDBRANCH  18  22
TORSDOF 6
ENDMDL
MODEL 5
REMARK VINA RESULT:      -5.3      9.266     12.422
REMARK  Name = 
REMARK  12 active torsions:
REMARK  status: ('A' for Active; 'I' for Inactive)
REMARK    1  A    between atoms: C_1  and  O_2
REMARK    2  A    between atoms: O_2  and  C_3
REMARK    3  A    between atoms: C_6  and  C_7
REMARK    4  A    between atoms: C_15  and  C_16
REMARK    5  A    between atoms: C_20  and  N_21
REMARK    6  A    between atoms: N_21  and  C_22
REMARK    7  A    between atoms: N_21  and  C_23
REMARK    8  A    between atoms: C_23  and  C_24
REMARK    9  A    between atoms: C_24  and  C_25
REMARK   10  A    between atoms: C_25  and  C_26
REMARK   11  A    between atoms: C_26  and  C_27
REMARK   12  A    between atoms: C_26  and  C_28
REMARK                            x       y       z     vdW  Elec       q    Type
REMARK                         _______ _______ _______ _____ _____    ______ ____
ROOT
ATOM      1  C   UNL     1       0.056   9.652  20.850  0.00  0.00    +0.000 C 
ATOM      2  C   UNL     1      -0.545   9.424  22.259  0.00  0.00    +0.000 C 
ATOM      3  C   UNL     1      -0.982  10.683  23.074  0.00  0.00    +0.000 C 
ATOM      4  C   UNL     1      -1.540  11.920  22.267  0.00  0.00    +0.000 C 
ATOM      5  C   UNL     1      -0.651  13.148  22.636  0.00  0.00    +0.000 C 
ATOM      6  C   UNL     1      -1.401  11.558  20.765  0.00  0.00    +0.000 C 
ATOM      7  C   UNL     1      -1.973  12.556  19.782  0.00  0.00    +0.000 C 
ATOM      8  C   UNL     1      -3.459  12.654  20.076  0.00  0.00    +0.000 C 
ATOM      9  C   UNL     1      -3.659  13.235  21.488  0.00  0.00    +0.000 C 
ATOM     10  C   UNL     1      -3.082  12.256  22.556  0.00  0.00    +0.000 C 
ATOM     11  C   UNL     1      -3.352  12.770  23.981  0.00  0.00    +0.000 C 
ATOM     12  C   UNL     1      -4.675  13.497  24.228  0.00  0.00    +0.000 C 
ATOM     13  C   UNL     1      -5.408  14.255  23.083  0.00  0.00    +0.000 C 
ATOM     14  C   UNL     1      -6.924  14.095  23.483  0.00  0.00    +0.000 C 
ATOM     15  C   UNL     1      -5.144  13.602  21.708  0.00  0.00    +0.000 C 
ATOM     16  C   UNL     1      -5.587  14.658  20.669  0.00  0.00    +0.000 C 
ATOM     17  C   UNL     1      -5.955  15.917  21.434  0.00  0.00    +0.000 C 
ATOM     18  C   UNL     1      -5.181  15.823  22.788  0.00  0.00    +0.000 C 
ATOM     19  C   UNL     1       0.014  11.113  20.442  0.00  0.00    +0.000 C 
ENDROOT
BRANCH   1  21
ATOM     20  C   UNL     1       1.458   7.742  20.825  0.00  0.00    +0.000 C 
ATOM     21  O   UNL     1       1.381   9.158  20.692  0.00  0.00    +0.000 OA
ENDBRANCH   1  21
BRANCH  18  22
ATOM     22  N   UNL     1      -3.806  16.389  22.615  0.00  0.00    +0.000 NA
ATOM     23  C   UNL     1      -3.152  16.643  23.902  0.00  0.00    +0.000 C 
BRANCH  22  24
ATOM     24  C   UNL     1      -3.814  17.682  21.872  0.00  0.00    +0.000 C 
BRANCH  24  25
ATOM     25  C   UNL     1      -2.575  17.965  21.001  0.00  0.00    +0.000 C 
BRANCH  25  26
ATOM     26  C   UNL     1      -2.340  16.905  19.918  0.00  0.00    +0.000 C 
BRANCH  26  27
ATOM     27  C   UNL     1      -1.125  16.001  20.208  0.00  0.00    +0.000 C 
ATOM     28  C   UNL     1      -0.295  15.738  18.950  0.00  0.00    +0.000 C 
ATOM     29  C   UNL     1      -0.241  16.646  21.277  0.00  0.00    +0.000 C 
ENDBRANCH  26  27
ENDBRANCH  25  26
ENDBRANCH  24  25
ENDBRANCH  22  24
ENDBRANCH  18  22
TORSDOF 6
ENDMDL
MODEL 6
REMARK VINA RESULT:      -5.3      8.249     11.435
REMARK  Name = 
REMARK  12 active torsions:
REMARK  status: ('A' for Active; 'I' for Inactive)
REMARK    1  A    between atoms: C_1  and  O_2
REMARK    2  A    between atoms: O_2  and  C_3
REMARK    3  A    between atoms: C_6  and  C_7
REMARK    4  A    between atoms: C_15  and  C_16
REMARK    5  A    between atoms: C_20  and  N_21
REMARK    6  A    between atoms: N_21  and  C_22
REMARK    7  A    between atoms: N_21  and  C_23
REMARK    8  A    between atoms: C_23  and  C_24
REMARK    9  A    between atoms: C_24  and  C_25
REMARK   10  A    between atoms: C_25  and  C_26
REMARK   11  A    between atoms: C_26  and  C_27
REMARK   12  A    between atoms: C_26  and  C_28
REMARK                            x       y       z     vdW  Elec       q    Type
REMARK                         _______ _______ _______ _____ _____    ______ ____
ROOT
ATOM      1  C   UNL     1      -5.481  15.166  22.762  0.00  0.00    +0.000 C 
ATOM      2  C   UNL     1      -4.109  15.810  23.078  0.00  0.00    +0.000 C 
ATOM      3  C   UNL     1      -2.886  14.858  23.271  0.00  0.00    +0.000 C 
ATOM      4  C   UNL     1      -2.855  13.526  22.423  0.00  0.00    +0.000 C 
ATOM      5  C   UNL     1      -2.745  12.341  23.432  0.00  0.00    +0.000 C 
ATOM      6  C   UNL     1      -4.195  13.476  21.642  0.00  0.00    +0.000 C 
ATOM      7  C   UNL     1      -4.357  12.331  20.667  0.00  0.00    +0.000 C 
ATOM      8  C   UNL     1      -3.252  12.478  19.636  0.00  0.00    +0.000 C 
ATOM      9  C   UNL     1      -1.887  12.302  20.327  0.00  0.00    +0.000 C 
ATOM     10  C   UNL     1      -1.657  13.450  21.358  0.00  0.00    +0.000 C 
ATOM     11  C   UNL     1      -0.261  13.349  21.996  0.00  0.00    +0.000 C 
ATOM     12  C   UNL     1       0.885  12.861  21.108  0.00  0.00    +0.000 C 
ATOM     13  C   UNL     1       0.624  11.923  19.893  0.00  0.00    +0.000 C 
ATOM     14  C   UNL     1       1.758  12.349  18.884  0.00  0.00    +0.000 C 
ATOM     15  C   UNL     1      -0.768  12.171  19.271  0.00  0.00    +0.000 C 
ATOM     16  C   UNL     1      -1.031  10.942  18.370  0.00  0.00    +0.000 C 
ATOM     17  C   UNL     1       0.113   9.969  18.590  0.00  0.00    +0.000 C 
ATOM     18  C   UNL     1       0.692  10.317  19.999  0.00  0.00    +0.000 C 
ATOM     19  C   UNL     1      -5.376  13.663  22.578  0.00  0.00    +0.000 C 
ENDROOT
BRANCH   1  21
ATOM     20  C   UNL     1      -7.244  14.297  24.085  0.00  0.00    +0.000 C 
ATOM     21  O   UNL     1      -6.496  15.452  23.718  0.00  0.00    +0.000 OA
ENDBRANCH   1  21
BRANCH  18  22
ATOM     22  N   UNL     1      -0.075   9.575  21.049  0.00  0.00    +0.000 NA
ATOM     23  C   UNL     1       0.227  10.065  22.397  0.00  0.00    +0.000 C 
BRANCH  22  24
ATOM     24  C   UNL     1       0.222   8.114  21.043  0.00  0.00    +0.000 C 
BRANCH  24  25
ATOM     25  C   UNL     1       1.680   7.726  20.732  0.00  0.00    +0.000 C 
BRANCH  25  26
ATOM     26  C   UNL     1       1.845   6.254  20.335  0.00  0.00    +0.000 C 
BRANCH  26  27
ATOM     27  C   UNL     1       2.692   6.060  19.061  0.00  0.00    +0.000 C 
ATOM     28  C   UNL     1       2.175   4.905  18.200  0.00  0.00    +0.000 C 
ATOM     29  C   UNL     1       2.694   7.349  18.238  0.00  0.00    +0.000 C 
ENDBRANCH  26  27
ENDBRANCH  25  26
ENDBRANCH  24  25
ENDBRANCH  22  24
ENDBRANCH  18  22
TORSDOF 6
ENDMDL
MODEL 7
REMARK VINA RESULT:      -5.2      8.604     11.202
REMARK  Name = 
REMARK  12 active torsions:
REMARK  status: ('A' for Active; 'I' for Inactive)
REMARK    1  A    between atoms: C_1  and  O_2
REMARK    2  A    between atoms: O_2  and  C_3
REMARK    3  A    between atoms: C_6  and  C_7
REMARK    4  A    between atoms: C_15  and  C_16
REMARK    5  A    between atoms: C_20  and  N_21
REMARK    6  A    between atoms: N_21  and  C_22
REMARK    7  A    between atoms: N_21  and  C_23
REMARK    8  A    between atoms: C_23  and  C_24
REMARK    9  A    between atoms: C_24  and  C_25
REMARK   10  A    between atoms: C_25  and  C_26
REMARK   11  A    between atoms: C_26  and  C_27
REMARK   12  A    between atoms: C_26  and  C_28
REMARK                            x       y       z     vdW  Elec       q    Type
REMARK                         _______ _______ _______ _____ _____    ______ ____
ROOT
ATOM      1  C   UNL     1       4.013   4.405  19.764  0.00  0.00    +0.000 C 
ATOM      2  C   UNL     1       4.708   5.445  18.852  0.00  0.00    +0.000 C 
ATOM      3  C   UNL     1       3.799   6.405  18.020  0.00  0.00    +0.000 C 
ATOM      4  C   UNL     1       2.422   6.842  18.656  0.00  0.00    +0.000 C 
ATOM      5  C   UNL     1       1.300   6.430  17.653  0.00  0.00    +0.000 C 
ATOM      6  C   UNL     1       2.293   6.065  19.993  0.00  0.00    +0.000 C 
ATOM      7  C   UNL     1       1.090   6.400  20.847  0.00  0.00    +0.000 C 
ATOM      8  C   UNL     1       1.204   7.871  21.203  0.00  0.00    +0.000 C 
ATOM      9  C   UNL     1       1.103   8.712  19.917  0.00  0.00    +0.000 C 
ATOM     10  C   UNL     1       2.314   8.410  18.982  0.00  0.00    +0.000 C 
ATOM     11  C   UNL     1       2.284   9.306  17.731  0.00  0.00    +0.000 C 
ATOM     12  C   UNL     1       1.774  10.738  17.904  0.00  0.00    +0.000 C 
ATOM     13  C   UNL     1       0.761  11.107  19.027  0.00  0.00    +0.000 C 
ATOM     14  C   UNL     1       1.155  12.594  19.367  0.00  0.00    +0.000 C 
ATOM     15  C   UNL     1       0.938  10.207  20.271  0.00  0.00    +0.000 C 
ATOM     16  C   UNL     1      -0.348  10.415  21.105  0.00  0.00    +0.000 C 
ATOM     17  C   UNL     1      -1.278  11.294  20.287  0.00  0.00    +0.000 C 
ATOM     18  C   UNL     1      -0.834  11.101  18.801  0.00  0.00    +0.000 C 
ATOM     19  C   UNL     1       2.505   4.577  19.778  0.00  0.00    +0.000 C 
ENDROOT
BRANCH   1  21
ATOM     20  C   UNL     1       3.733   2.615  18.238  0.00  0.00    +0.000 C 
ATOM     21  O   UNL     1       4.329   3.052  19.456  0.00  0.00    +0.000 OA
ENDBRANCH   1  21
BRANCH  18  22
ATOM     22  N   UNL     1      -1.532   9.909  18.224  0.00  0.00    +0.000 NA
ATOM     23  C   UNL     1      -1.136   9.661  16.836  0.00  0.00    +0.000 C 
BRANCH  22  24
ATOM     24  C   UNL     1      -3.015  10.063  18.230  0.00  0.00    +0.000 C 
BRANCH  24  25
ATOM     25  C   UNL     1      -3.629  10.707  16.972  0.00  0.00    +0.000 C 
BRANCH  25  26
ATOM     26  C   UNL     1      -4.870  11.557  17.270  0.00  0.00    +0.000 C 
BRANCH  26  27
ATOM     27  C   UNL     1      -5.391  11.386  18.712  0.00  0.00    +0.000 C 
ATOM     28  C   UNL     1      -5.421  12.715  19.470  0.00  0.00    +0.000 C 
ATOM     29  C   UNL     1      -6.795  10.780  18.688  0.00  0.00    +0.000 C 
ENDBRANCH  26  27
ENDBRANCH  25  26
ENDBRANCH  24  25
ENDBRANCH  22  24
ENDBRANCH  18  22
TORSDOF 6
ENDMDL
MODEL 8
REMARK VINA RESULT:      -5.2      6.839     11.108
REMARK  Name = 
REMARK  12 active torsions:
REMARK  status: ('A' for Active; 'I' for Inactive)
REMARK    1  A    between atoms: C_1  and  O_2
REMARK    2  A    between atoms: O_2  and  C_3
REMARK    3  A    between atoms: C_6  and  C_7
REMARK    4  A    between atoms: C_15  and  C_16
REMARK    5  A    between atoms: C_20  and  N_21
REMARK    6  A    between atoms: N_21  and  C_22
REMARK    7  A    between atoms: N_21  and  C_23
REMARK    8  A    between atoms: C_23  and  C_24
REMARK    9  A    between atoms: C_24  and  C_25
REMARK   10  A    between atoms: C_25  and  C_26
REMARK   11  A    between atoms: C_26  and  C_27
REMARK   12  A    between atoms: C_26  and  C_28
REMARK                            x       y       z     vdW  Elec       q    Type
REMARK                         _______ _______ _______ _____ _____    ______ ____
ROOT
ATOM      1  C   UNL     1       3.471  16.674  19.554  0.00  0.00    +0.000 C 
ATOM      2  C   UNL     1       2.768  17.756  20.411  0.00  0.00    +0.000 C 
ATOM      3  C   UNL     1       1.209  17.711  20.502  0.00  0.00    +0.000 C 
ATOM      4  C   UNL     1       0.514  16.294  20.457  0.00  0.00    +0.000 C 
ATOM      5  C   UNL     1      -0.492  16.313  19.265  0.00  0.00    +0.000 C 
ATOM      6  C   UNL     1       1.647  15.261  20.219  0.00  0.00    +0.000 C 
ATOM      7  C   UNL     1       1.238  13.805  20.244  0.00  0.00    +0.000 C 
ATOM      8  C   UNL     1       0.678  13.533  21.628  0.00  0.00    +0.000 C 
ATOM      9  C   UNL     1      -0.598  14.371  21.832  0.00  0.00    +0.000 C 
ATOM     10  C   UNL     1      -0.249  15.891  21.810  0.00  0.00    +0.000 C 
ATOM     11  C   UNL     1      -1.493  16.748  22.103  0.00  0.00    +0.000 C 
ATOM     12  C   UNL     1      -2.505  16.197  23.110  0.00  0.00    +0.000 C 
ATOM     13  C   UNL     1      -2.666  14.666  23.341  0.00  0.00    +0.000 C 
ATOM     14  C   UNL     1      -3.079  14.592  24.860  0.00  0.00    +0.000 C 
ATOM     15  C   UNL     1      -1.337  13.913  23.109  0.00  0.00    +0.000 C 
ATOM     16  C   UNL     1      -1.735  12.423  22.985  0.00  0.00    +0.000 C 
ATOM     17  C   UNL     1      -3.252  12.359  23.005  0.00  0.00    +0.000 C 
ATOM     18  C   UNL     1      -3.735  13.769  22.536  0.00  0.00    +0.000 C 
ATOM     19  C   UNL     1       2.490  15.648  19.017  0.00  0.00    +0.000 C 
ENDROOT
BRANCH   1  21
ATOM     20  C   UNL     1       5.642  16.975  18.654  0.00  0.00    +0.000 C 
ATOM     21  O   UNL     1       4.245  17.191  18.478  0.00  0.00    +0.000 OA
ENDBRANCH   1  21
BRANCH  18  22
ATOM     22  N   UNL     1      -3.805  13.799  21.041  0.00  0.00    +0.000 NA
ATOM     23  C   UNL     1      -4.826  14.733  20.559  0.00  0.00    +0.000 C 
BRANCH  22  24
ATOM     24  C   UNL     1      -4.133  12.464  20.462  0.00  0.00    +0.000 C 
BRANCH  24  25
ATOM     25  C   UNL     1      -3.432  12.118  19.134  0.00  0.00    +0.000 C 
BRANCH  25  26
ATOM     26  C   UNL     1      -1.911  12.303  19.184  0.00  0.00    +0.000 C 
BRANCH  26  27
ATOM     27  C   UNL     1      -1.133  11.026  18.807  0.00  0.00    +0.000 C 
ATOM     28  C   UNL     1      -0.635  10.273  20.044  0.00  0.00    +0.000 C 
ATOM     29  C   UNL     1      -2.022  10.103  17.972  0.00  0.00    +0.000 C 
ENDBRANCH  26  27
ENDBRANCH  25  26
ENDBRANCH  24  25
ENDBRANCH  22  24
ENDBRANCH  18  22
TORSDOF 6
ENDMDL
MODEL 9
REMARK VINA RESULT:      -5.1      8.289     11.155
REMARK  Name = 
REMARK  12 active torsions:
REMARK  status: ('A' for Active; 'I' for Inactive)
REMARK    1  A    between atoms: C_1  and  O_2
REMARK    2  A    between atoms: O_2  and  C_3
REMARK    3  A    between atoms: C_6  and  C_7
REMARK    4  A    between atoms: C_15  and  C_16
REMARK    5  A    between atoms: C_20  and  N_21
REMARK    6  A    between atoms: N_21  and  C_22
REMARK    7  A    between atoms: N_21  and  C_23
REMARK    8  A    between atoms: C_23  and  C_24
REMARK    9  A    between atoms: C_24  and  C_25
REMARK   10  A    between atoms: C_25  and  C_26
REMARK   11  A    between atoms: C_26  and  C_27
REMARK   12  A    between atoms: C_26  and  C_28
REMARK                            x       y       z     vdW  Elec       q    Type
REMARK                         _______ _______ _______ _____ _____    ______ ____
ROOT
ATOM      1  C   UNL     1       1.499   9.106  18.286  0.00  0.00    +0.000 C 
ATOM      2  C   UNL     1       1.223   8.569  19.713  0.00  0.00    +0.000 C 
ATOM      3  C   UNL     1       1.045   9.614  20.860  0.00  0.00    +0.000 C 
ATOM      4  C   UNL     1       0.380  10.998  20.493  0.00  0.00    +0.000 C 
ATOM      5  C   UNL     1       1.389  12.116  20.902  0.00  0.00    +0.000 C 
ATOM      6  C   UNL     1       0.156  10.980  18.957  0.00  0.00    +0.000 C 
ATOM      7  C   UNL     1      -0.574  12.169  18.375  0.00  0.00    +0.000 C 
ATOM      8  C   UNL     1      -1.948  12.196  19.020  0.00  0.00    +0.000 C 
ATOM      9  C   UNL     1      -1.793  12.447  20.531  0.00  0.00    +0.000 C 
ATOM     10  C   UNL     1      -1.038  11.257  21.198  0.00  0.00    +0.000 C 
ATOM     11  C   UNL     1      -0.952  11.441  22.723  0.00  0.00    +0.000 C 
ATOM     12  C   UNL     1      -2.147  12.092  23.422  0.00  0.00    +0.000 C 
ATOM     13  C   UNL     1      -3.083  13.084  22.670  0.00  0.00    +0.000 C 
ATOM     14  C   UNL     1      -4.474  12.834  23.366  0.00  0.00    +0.000 C 
ATOM     15  C   UNL     1      -3.169  12.753  21.163  0.00  0.00    +0.000 C 
ATOM     16  C   UNL     1      -3.785  14.012  20.510  0.00  0.00    +0.000 C 
ATOM     17  C   UNL     1      -3.907  15.068  21.594  0.00  0.00    +0.000 C 
ATOM     18  C   UNL     1      -2.852  14.678  22.678  0.00  0.00    +0.000 C 
ATOM     19  C   UNL     1       1.438  10.621  18.226  0.00  0.00    +0.000 C 
ENDROOT
BRANCH   1  21
ATOM     20  C   UNL     1       3.047   7.323  18.086  0.00  0.00    +0.000 C 
ATOM     21  O   UNL     1       2.728   8.663  17.723  0.00  0.00    +0.000 OA
ENDBRANCH   1  21
BRANCH  18  22
ATOM     22  N   UNL     1      -1.526  15.272  22.317  0.00  0.00    +0.000 NA
ATOM     23  C   UNL     1      -0.887  15.923  23.464  0.00  0.00    +0.000 C 
BRANCH  22  24
ATOM     24  C   UNL     1      -1.638  16.301  21.243  0.00  0.00    +0.000 C 
BRANCH  24  25
ATOM     25  C   UNL     1      -0.435  16.409  20.287  0.00  0.00    +0.000 C 
BRANCH  25  26
ATOM     26  C   UNL     1      -0.841  16.594  18.820  0.00  0.00    +0.000 C 
BRANCH  26  27
ATOM     27  C   UNL     1      -0.870  18.073  18.381  0.00  0.00    +0.000 C 
ATOM     28  C   UNL     1      -0.332  18.258  16.961  0.00  0.00    +0.000 C 
ATOM     29  C   UNL     1      -2.300  18.610  18.460  0.00  0.00    +0.000 C 
ENDBRANCH  26  27
ENDBRANCH  25  26
ENDBRANCH  24  25
ENDBRANCH  22  24
ENDBRANCH  18  22
TORSDOF 6
ENDMDL
