MODEL 1
REMARK VINA RESULT:      -8.5      0.000      0.000
REMARK  Name = 
REMARK  6 active torsions:
REMARK  status: ('A' for Active; 'I' for Inactive)
REMARK    1  A    between atoms: C_1  and  O_2
REMARK    2  A    between atoms: O_2  and  C_3
REMARK    3  A    between atoms: C_8  and  C_9
REMARK    4  A    between atoms: N_15  and  N_16
REMARK    5  A    between atoms: N_16  and  C_17
REMARK    6  A    between atoms: C_20  and  N_21
REMARK                            x       y       z     vdW  Elec       q    Type
REMARK                         _______ _______ _______ _____ _____    ______ ____
ROOT
ATOM      1  C   UNL     1       4.196   3.674  18.640  0.00  0.00    +0.000 C 
ATOM      2  N   UNL     1       3.981   2.447  19.043  0.00  0.00    +0.000 NA
ATOM      3  N   UNL     1       3.121   2.495  20.134  0.00  0.00    +0.000 N 
ATOM      4  C   UNL     1       2.778   3.758  20.553  0.00  0.00    +0.000 C 
ATOM      5  O   UNL     1       2.160   4.141  21.521  0.00  0.00    +0.000 OA
ATOM      6  C   UNL     1       3.394   4.612  19.487  0.00  0.00    +0.000 C 
ATOM      7  N   UNL     1       3.238   5.872  19.247  0.00  0.00    +0.000 NA
ATOM      8  H   UNL     1       2.881   1.643  20.628  0.00  0.00    +0.000 HD
ENDROOT
BRANCH   1  14
ATOM      9  C   UNL     1       6.389   4.687  17.893  0.00  0.00    +0.000 A 
ATOM     10  C   UNL     1       7.204   5.107  16.838  0.00  0.00    +0.000 A 
ATOM     11  C   UNL     1       6.756   4.943  15.539  0.00  0.00    +0.000 A 
ATOM     12  N   UNL     1       5.571   4.391  15.226  0.00  0.00    +0.000 NA
ATOM     13  C   UNL     1       4.801   3.973  16.260  0.00  0.00    +0.000 A 
ATOM     14  C   UNL     1       5.155   4.086  17.602  0.00  0.00    +0.000 A 
BRANCH   9  16
ATOM     15  C   UNL     1       7.846   5.680  19.482  0.00  0.00    +0.000 C 
ATOM     16  O   UNL     1       6.778   4.778  19.204  0.00  0.00    +0.000 OA
ENDBRANCH   9  16
ENDBRANCH   1  14
BRANCH   7  17
ATOM     17  N   UNL     1       2.565   6.609  20.163  0.00  0.00    +0.000 N 
ATOM     18  H   UNL     1       2.243   6.218  21.053  0.00  0.00    +0.000 HD
BRANCH  17  19
ATOM     19  C   UNL     1       1.939   7.804  19.768  0.00  0.00    +0.000 A 
ATOM     20  C   UNL     1       2.056   8.320  18.476  0.00  0.00    +0.000 A 
ATOM     21  C   UNL     1       1.442   9.529  18.118  0.00  0.00    +0.000 A 
ATOM     22  C   UNL     1       0.736  10.300  19.048  0.00  0.00    +0.000 A 
ATOM     23  C   UNL     1       0.657   9.791  20.352  0.00  0.00    +0.000 A 
ATOM     24  C   UNL     1       1.236   8.561  20.706  0.00  0.00    +0.000 A 
BRANCH  22  25
ATOM     25  N   UNL     1       0.109  11.487  18.717  0.00  0.00    +0.000 N 
ATOM     26  C   UNL     1       0.669  12.802  19.063  0.00  0.00    +0.000 C 
ATOM     27  C   UNL     1      -0.166  13.489  20.152  0.00  0.00    +0.000 C 
ATOM     28  O   UNL     1      -1.551  13.574  19.774  0.00  0.00    +0.000 OA
ATOM     29  C   UNL     1      -2.087  12.257  19.569  0.00  0.00    +0.000 C 
ATOM     30  C   UNL     1      -1.341  11.500  18.452  0.00  0.00    +0.000 C 
ENDBRANCH  22  25
ENDBRANCH  17  19
ENDBRANCH   7  17
TORSDOF 5
ENDMDL
MODEL 2
REMARK VINA RESULT:      -8.5      0.560      1.061
REMARK  Name = 
REMARK  6 active torsions:
REMARK  status: ('A' for Active; 'I' for Inactive)
REMARK    1  A    between atoms: C_1  and  O_2
REMARK    2  A    between atoms: O_2  and  C_3
REMARK    3  A    between atoms: C_8  and  C_9
REMARK    4  A    between atoms: N_15  and  N_16
REMARK    5  A    between atoms: N_16  and  C_17
REMARK    6  A    between atoms: C_20  and  N_21
REMARK                            x       y       z     vdW  Elec       q    Type
REMARK                         _______ _______ _______ _____ _____    ______ ____
ROOT
ATOM      1  C   UNL     1       4.112   3.561  17.887  0.00  0.00    +0.000 C 
ATOM      2  N   UNL     1       3.696   2.329  18.043  0.00  0.00    +0.000 NA
ATOM      3  N   UNL     1       2.780   2.310  19.088  0.00  0.00    +0.000 N 
ATOM      4  C   UNL     1       2.595   3.514  19.724  0.00  0.00    +0.000 C 
ATOM      5  O   UNL     1       1.975   3.806  20.722  0.00  0.00    +0.000 OA
ATOM      6  C   UNL     1       3.398   4.441  18.865  0.00  0.00    +0.000 C 
ATOM      7  N   UNL     1       3.441   5.733  18.861  0.00  0.00    +0.000 NA
ATOM      8  H   UNL     1       2.387   1.430  19.402  0.00  0.00    +0.000 HD
ENDROOT
BRANCH   1  14
ATOM      9  C   UNL     1       6.420   4.493  17.443  0.00  0.00    +0.000 A 
ATOM     10  C   UNL     1       7.355   4.953  16.511  0.00  0.00    +0.000 A 
ATOM     11  C   UNL     1       7.025   4.935  15.167  0.00  0.00    +0.000 A 
ATOM     12  N   UNL     1       5.848   4.490  14.697  0.00  0.00    +0.000 NA
ATOM     13  C   UNL     1       4.959   4.032  15.612  0.00  0.00    +0.000 A 
ATOM     14  C   UNL     1       5.188   4.001  16.986  0.00  0.00    +0.000 A 
BRANCH   9  16
ATOM     15  C   UNL     1       7.282   5.604  19.355  0.00  0.00    +0.000 C 
ATOM     16  O   UNL     1       6.685   4.441  18.786  0.00  0.00    +0.000 OA
ENDBRANCH   9  16
ENDBRANCH   1  14
BRANCH   7  17
ATOM     17  N   UNL     1       2.821   6.387  19.873  0.00  0.00    +0.000 N 
ATOM     18  H   UNL     1       2.552   5.920  20.744  0.00  0.00    +0.000 HD
BRANCH  17  19
ATOM     19  C   UNL     1       2.170   7.606  19.616  0.00  0.00    +0.000 A 
ATOM     20  C   UNL     1       1.405   8.264  20.583  0.00  0.00    +0.000 A 
ATOM     21  C   UNL     1       0.745   9.466  20.291  0.00  0.00    +0.000 A 
ATOM     22  C   UNL     1       0.771  10.029  19.011  0.00  0.00    +0.000 A 
ATOM     23  C   UNL     1       1.511   9.339  18.038  0.00  0.00    +0.000 A 
ATOM     24  C   UNL     1       2.208   8.157  18.336  0.00  0.00    +0.000 A 
BRANCH  22  25
ATOM     25  N   UNL     1       0.141  11.220  18.701  0.00  0.00    +0.000 N 
ATOM     26  C   UNL     1       0.697  12.530  19.070  0.00  0.00    +0.000 C 
ATOM     27  C   UNL     1      -0.141  13.195  20.171  0.00  0.00    +0.000 C 
ATOM     28  O   UNL     1      -1.525  13.284  19.793  0.00  0.00    +0.000 OA
ATOM     29  C   UNL     1      -2.058  11.968  19.565  0.00  0.00    +0.000 C 
ATOM     30  C   UNL     1      -1.309  11.234  18.435  0.00  0.00    +0.000 C 
ENDBRANCH  22  25
ENDBRANCH  17  19
ENDBRANCH   7  17
TORSDOF 5
ENDMDL
MODEL 3
REMARK VINA RESULT:      -8.4      0.789      1.272
REMARK  Name = 
REMARK  6 active torsions:
REMARK  status: ('A' for Active; 'I' for Inactive)
REMARK    1  A    between atoms: C_1  and  O_2
REMARK    2  A    between atoms: O_2  and  C_3
REMARK    3  A    between atoms: C_8  and  C_9
REMARK    4  A    between atoms: N_15  and  N_16
REMARK    5  A    between atoms: N_16  and  C_17
REMARK    6  A    between atoms: C_20  and  N_21
REMARK                            x       y       z     vdW  Elec       q    Type
REMARK                         _______ _______ _______ _____ _____    ______ ____
ROOT
ATOM      1  C   UNL     1       4.061   3.570  18.118  0.00  0.00    +0.000 C 
ATOM      2  N   UNL     1       3.696   2.317  18.223  0.00  0.00    +0.000 NA
ATOM      3  N   UNL     1       2.827   2.210  19.303  0.00  0.00    +0.000 N 
ATOM      4  C   UNL     1       2.628   3.371  20.010  0.00  0.00    +0.000 C 
ATOM      5  O   UNL     1       2.042   3.586  21.047  0.00  0.00    +0.000 OA
ATOM      6  C   UNL     1       3.360   4.371  19.170  0.00  0.00    +0.000 C 
ATOM      7  N   UNL     1       3.358   5.662  19.235  0.00  0.00    +0.000 NA
ATOM      8  H   UNL     1       2.479   1.300  19.584  0.00  0.00    +0.000 HD
ENDROOT
BRANCH   1  14
ATOM      9  C   UNL     1       6.309   4.622  17.630  0.00  0.00    +0.000 A 
ATOM     10  C   UNL     1       7.186   5.163  16.686  0.00  0.00    +0.000 A 
ATOM     11  C   UNL     1       6.805   5.191  15.356  0.00  0.00    +0.000 A 
ATOM     12  N   UNL     1       5.630   4.716  14.910  0.00  0.00    +0.000 NA
ATOM     13  C   UNL     1       4.798   4.179  15.836  0.00  0.00    +0.000 A 
ATOM     14  C   UNL     1       5.082   4.097  17.197  0.00  0.00    +0.000 A 
BRANCH   9  16
ATOM     15  C   UNL     1       7.407   5.586  19.501  0.00  0.00    +0.000 C 
ATOM     16  O   UNL     1       6.629   4.522  18.959  0.00  0.00    +0.000 OA
ENDBRANCH   9  16
ENDBRANCH   1  14
BRANCH   7  17
ATOM     17  N   UNL     1       2.760   6.238  20.305  0.00  0.00    +0.000 N 
ATOM     18  H   UNL     1       2.570   5.723  21.170  0.00  0.00    +0.000 HD
BRANCH  17  19
ATOM     19  C   UNL     1       2.026   7.425  20.135  0.00  0.00    +0.000 A 
ATOM     20  C   UNL     1       2.072   8.171  18.956  0.00  0.00    +0.000 A 
ATOM     21  C   UNL     1       1.349   9.366  18.825  0.00  0.00    +0.000 A 
ATOM     22  C   UNL     1       0.601   9.894  19.882  0.00  0.00    +0.000 A 
ATOM     23  C   UNL     1       0.593   9.155  21.074  0.00  0.00    +0.000 A 
ATOM     24  C   UNL     1       1.281   7.937  21.198  0.00  0.00    +0.000 A 
BRANCH  22  25
ATOM     25  N   UNL     1      -0.132  11.062  19.774  0.00  0.00    +0.000 N 
ATOM     26  C   UNL     1      -1.451  11.112  19.127  0.00  0.00    +0.000 C 
ATOM     27  C   UNL     1      -1.384  11.870  17.794  0.00  0.00    +0.000 C 
ATOM     28  O   UNL     1      -0.816  13.179  17.964  0.00  0.00    +0.000 OA
ATOM     29  C   UNL     1       0.521  13.072  18.481  0.00  0.00    +0.000 C 
ATOM     30  C   UNL     1       0.553  12.365  19.850  0.00  0.00    +0.000 C 
ENDBRANCH  22  25
ENDBRANCH  17  19
ENDBRANCH   7  17
TORSDOF 5
ENDMDL
MODEL 4
REMARK VINA RESULT:      -8.1      0.885      1.625
REMARK  Name = 
REMARK  6 active torsions:
REMARK  status: ('A' for Active; 'I' for Inactive)
REMARK    1  A    between atoms: C_1  and  O_2
REMARK    2  A    between atoms: O_2  and  C_3
REMARK    3  A    between atoms: C_8  and  C_9
REMARK    4  A    between atoms: N_15  and  N_16
REMARK    5  A    between atoms: N_16  and  C_17
REMARK    6  A    between atoms: C_20  and  N_21
REMARK                            x       y       z     vdW  Elec       q    Type
REMARK                         _______ _______ _______ _____ _____    ______ ____
ROOT
ATOM      1  C   UNL     1       4.155   3.707  18.990  0.00  0.00    +0.000 C 
ATOM      2  N   UNL     1       4.177   2.439  19.318  0.00  0.00    +0.000 NA
ATOM      3  N   UNL     1       3.377   2.269  20.442  0.00  0.00    +0.000 N 
ATOM      4  C   UNL     1       2.842   3.424  20.958  0.00  0.00    +0.000 C 
ATOM      5  O   UNL     1       2.215   3.633  21.973  0.00  0.00    +0.000 OA
ATOM      6  C   UNL     1       3.245   4.436  19.930  0.00  0.00    +0.000 C 
ATOM      7  N   UNL     1       2.860   5.661  19.782  0.00  0.00    +0.000 NA
ATOM      8  H   UNL     1       3.314   1.360  20.885  0.00  0.00    +0.000 HD
ENDROOT
BRANCH   1  14
ATOM      9  C   UNL     1       6.150   5.058  18.224  0.00  0.00    +0.000 A 
ATOM     10  C   UNL     1       6.825   5.687  17.174  0.00  0.00    +0.000 A 
ATOM     11  C   UNL     1       6.297   5.610  15.897  0.00  0.00    +0.000 A 
ATOM     12  N   UNL     1       5.163   4.953  15.601  0.00  0.00    +0.000 NA
ATOM     13  C   UNL     1       4.531   4.334  16.627  0.00  0.00    +0.000 A 
ATOM     14  C   UNL     1       4.975   4.344  17.947  0.00  0.00    +0.000 A 
BRANCH   9  16
ATOM     15  C   UNL     1       7.895   5.677  19.709  0.00  0.00    +0.000 C 
ATOM     16  O   UNL     1       6.629   5.054  19.508  0.00  0.00    +0.000 OA
ENDBRANCH   9  16
ENDBRANCH   1  14
BRANCH   7  17
ATOM     17  N   UNL     1       2.116   6.211  20.771  0.00  0.00    +0.000 N 
ATOM     18  H   UNL     1       1.636   5.644  21.476  0.00  0.00    +0.000 HD
BRANCH  17  19
ATOM     19  C   UNL     1       1.649   7.530  20.638  0.00  0.00    +0.000 A 
ATOM     20  C   UNL     1       0.980   8.194  21.668  0.00  0.00    +0.000 A 
ATOM     21  C   UNL     1       0.501   9.502  21.498  0.00  0.00    +0.000 A 
ATOM     22  C   UNL     1       0.616  10.176  20.277  0.00  0.00    +0.000 A 
ATOM     23  C   UNL     1       1.256   9.483  19.238  0.00  0.00    +0.000 A 
ATOM     24  C   UNL     1       1.774   8.190  19.416  0.00  0.00    +0.000 A 
BRANCH  22  25
ATOM     25  N   UNL     1       0.166  11.469  20.088  0.00  0.00    +0.000 N 
ATOM     26  C   UNL     1      -1.200  11.774  19.639  0.00  0.00    +0.000 C 
ATOM     27  C   UNL     1      -1.202  12.320  18.205  0.00  0.00    +0.000 C 
ATOM     28  O   UNL     1      -0.326  13.453  18.075  0.00  0.00    +0.000 OA
ATOM     29  C   UNL     1       1.021  13.073  18.404  0.00  0.00    +0.000 C 
ATOM     30  C   UNL     1       1.135  12.554  19.850  0.00  0.00    +0.000 C 
ENDBRANCH  22  25
ENDBRANCH  17  19
ENDBRANCH   7  17
TORSDOF 5
ENDMDL
MODEL 5
REMARK VINA RESULT:      -8.0      1.020      1.688
REMARK  Name = 
REMARK  6 active torsions:
REMARK  status: ('A' for Active; 'I' for Inactive)
REMARK    1  A    between atoms: C_1  and  O_2
REMARK    2  A    between atoms: O_2  and  C_3
REMARK    3  A    between atoms: C_8  and  C_9
REMARK    4  A    between atoms: N_15  and  N_16
REMARK    5  A    between atoms: N_16  and  C_17
REMARK    6  A    between atoms: C_20  and  N_21
REMARK                            x       y       z     vdW  Elec       q    Type
REMARK                         _______ _______ _______ _____ _____    ______ ____
ROOT
ATOM      1  C   UNL     1       3.673   3.770  17.647  0.00  0.00    +0.000 C 
ATOM      2  N   UNL     1       3.069   2.615  17.523  0.00  0.00    +0.000 NA
ATOM      3  N   UNL     1       2.114   2.517  18.528  0.00  0.00    +0.000 N 
ATOM      4  C   UNL     1       2.084   3.570  19.410  0.00  0.00    +0.000 C 
ATOM      5  O   UNL     1       1.469   3.734  20.441  0.00  0.00    +0.000 OA
ATOM      6  C   UNL     1       3.056   4.521  18.785  0.00  0.00    +0.000 C 
ATOM      7  N   UNL     1       3.294   5.761  19.065  0.00  0.00    +0.000 NA
ATOM      8  H   UNL     1       1.578   1.663  18.636  0.00  0.00    +0.000 HD
ENDROOT
BRANCH   1  14
ATOM      9  C   UNL     1       6.069   4.559  17.469  0.00  0.00    +0.000 A 
ATOM     10  C   UNL     1       7.103   5.041  16.662  0.00  0.00    +0.000 A 
ATOM     11  C   UNL     1       6.877   5.196  15.305  0.00  0.00    +0.000 A 
ATOM     12  N   UNL     1       5.710   4.900  14.709  0.00  0.00    +0.000 NA
ATOM     13  C   UNL     1       4.724   4.417  15.503  0.00  0.00    +0.000 A 
ATOM     14  C   UNL     1       4.844   4.219  16.876  0.00  0.00    +0.000 A 
BRANCH   9  16
ATOM     15  C   UNL     1       6.870   5.378  19.548  0.00  0.00    +0.000 C 
ATOM     16  O   UNL     1       6.227   4.340  18.813  0.00  0.00    +0.000 OA
ENDBRANCH   9  16
ENDBRANCH   1  14
BRANCH   7  17
ATOM     17  N   UNL     1       2.734   6.271  20.188  0.00  0.00    +0.000 N 
ATOM     18  H   UNL     1       2.537   5.697  21.013  0.00  0.00    +0.000 HD
BRANCH  17  19
ATOM     19  C   UNL     1       2.041   7.493  20.125  0.00  0.00    +0.000 A 
ATOM     20  C   UNL     1       1.271   7.972  21.188  0.00  0.00    +0.000 A 
ATOM     21  C   UNL     1       0.569   9.182  21.087  0.00  0.00    +0.000 A 
ATOM     22  C   UNL     1       0.559   9.932  19.907  0.00  0.00    +0.000 A 
ATOM     23  C   UNL     1       1.306   9.422  18.834  0.00  0.00    +0.000 A 
ATOM     24  C   UNL     1       2.043   8.232  18.942  0.00  0.00    +0.000 A 
BRANCH  22  25
ATOM     25  N   UNL     1      -0.112  11.135  19.787  0.00  0.00    +0.000 N 
ATOM     26  C   UNL     1      -1.447  11.240  19.180  0.00  0.00    +0.000 C 
ATOM     27  C   UNL     1      -1.382  11.955  17.823  0.00  0.00    +0.000 C 
ATOM     28  O   UNL     1      -0.739  13.236  17.938  0.00  0.00    +0.000 OA
ATOM     29  C   UNL     1       0.606  13.070  18.416  0.00  0.00    +0.000 C 
ATOM     30  C   UNL     1       0.644  12.400  19.803  0.00  0.00    +0.000 C 
ENDBRANCH  22  25
ENDBRANCH  17  19
ENDBRANCH   7  17
TORSDOF 5
ENDMDL
MODEL 6
REMARK VINA RESULT:      -8.0      1.600      2.283
REMARK  Name = 
REMARK  6 active torsions:
REMARK  status: ('A' for Active; 'I' for Inactive)
REMARK    1  A    between atoms: C_1  and  O_2
REMARK    2  A    between atoms: O_2  and  C_3
REMARK    3  A    between atoms: C_8  and  C_9
REMARK    4  A    between atoms: N_15  and  N_16
REMARK    5  A    between atoms: N_16  and  C_17
REMARK    6  A    between atoms: C_20  and  N_21
REMARK                            x       y       z     vdW  Elec       q    Type
REMARK                         _______ _______ _______ _____ _____    ______ ____
ROOT
ATOM      1  C   UNL     1       3.695   4.001  18.290  0.00  0.00    +0.000 C 
ATOM      2  N   UNL     1       3.067   2.954  17.817  0.00  0.00    +0.000 NA
ATOM      3  N   UNL     1       1.802   2.912  18.393  0.00  0.00    +0.000 N 
ATOM      4  C   UNL     1       1.554   3.887  19.328  0.00  0.00    +0.000 C 
ATOM      5  O   UNL     1       0.621   4.055  20.082  0.00  0.00    +0.000 OA
ATOM      6  C   UNL     1       2.779   4.740  19.215  0.00  0.00    +0.000 C 
ATOM      7  N   UNL     1       3.020   5.909  19.713  0.00  0.00    +0.000 NA
ATOM      8  H   UNL     1       1.182   2.135  18.196  0.00  0.00    +0.000 HD
ENDROOT
BRANCH   1  14
ATOM      9  C   UNL     1       5.692   4.345  16.777  0.00  0.00    +0.000 A 
ATOM     10  C   UNL     1       7.058   4.614  16.657  0.00  0.00    +0.000 A 
ATOM     11  C   UNL     1       7.799   4.840  17.804  0.00  0.00    +0.000 A 
ATOM     12  N   UNL     1       7.275   4.824  19.041  0.00  0.00    +0.000 NA
ATOM     13  C   UNL     1       5.946   4.578  19.138  0.00  0.00    +0.000 A 
ATOM     14  C   UNL     1       5.107   4.341  18.052  0.00  0.00    +0.000 A 
BRANCH   9  16
ATOM     15  C   UNL     1       5.503   4.282  14.411  0.00  0.00    +0.000 C 
ATOM     16  O   UNL     1       4.882   4.150  15.688  0.00  0.00    +0.000 OA
ENDBRANCH   9  16
ENDBRANCH   1  14
BRANCH   7  17
ATOM     17  N   UNL     1       2.138   6.403  20.614  0.00  0.00    +0.000 N 
ATOM     18  H   UNL     1       1.601   5.800  21.244  0.00  0.00    +0.000 HD
BRANCH  17  19
ATOM     19  C   UNL     1       1.633   7.705  20.450  0.00  0.00    +0.000 A 
ATOM     20  C   UNL     1       1.708   8.389  19.234  0.00  0.00    +0.000 A 
ATOM     21  C   UNL     1       1.219   9.698  19.107  0.00  0.00    +0.000 A 
ATOM     22  C   UNL     1       0.691  10.397  20.197  0.00  0.00    +0.000 A 
ATOM     23  C   UNL     1       0.657   9.713  21.422  0.00  0.00    +0.000 A 
ATOM     24  C   UNL     1       1.107   8.388  21.546  0.00  0.00    +0.000 A 
BRANCH  22  25
ATOM     25  N   UNL     1       0.190  11.681  20.095  0.00  0.00    +0.000 N 
ATOM     26  C   UNL     1      -1.170  11.964  19.614  0.00  0.00    +0.000 C 
ATOM     27  C   UNL     1      -1.138  12.629  18.230  0.00  0.00    +0.000 C 
ATOM     28  O   UNL     1      -0.311  13.805  18.234  0.00  0.00    +0.000 OA
ATOM     29  C   UNL     1       1.038  13.456  18.588  0.00  0.00    +0.000 C 
ATOM     30  C   UNL     1       1.117  12.823  19.991  0.00  0.00    +0.000 C 
ENDBRANCH  22  25
ENDBRANCH  17  19
ENDBRANCH   7  17
TORSDOF 5
ENDMDL
MODEL 7
REMARK VINA RESULT:      -7.9      1.569      2.065
REMARK  Name = 
REMARK  6 active torsions:
REMARK  status: ('A' for Active; 'I' for Inactive)
REMARK    1  A    between atoms: C_1  and  O_2
REMARK    2  A    between atoms: O_2  and  C_3
REMARK    3  A    between atoms: C_8  and  C_9
REMARK    4  A    between atoms: N_15  and  N_16
REMARK    5  A    between atoms: N_16  and  C_17
REMARK    6  A    between atoms: C_20  and  N_21
REMARK                            x       y       z     vdW  Elec       q    Type
REMARK                         _______ _______ _______ _____ _____    ______ ____
ROOT
ATOM      1  C   UNL     1       3.721   4.043  18.332  0.00  0.00    +0.000 C 
ATOM      2  N   UNL     1       3.084   2.998  17.865  0.00  0.00    +0.000 NA
ATOM      3  N   UNL     1       1.818   2.973  18.438  0.00  0.00    +0.000 N 
ATOM      4  C   UNL     1       1.577   3.958  19.365  0.00  0.00    +0.000 C 
ATOM      5  O   UNL     1       0.644   4.142  20.115  0.00  0.00    +0.000 OA
ATOM      6  C   UNL     1       2.810   4.799  19.248  0.00  0.00    +0.000 C 
ATOM      7  N   UNL     1       3.061   5.969  19.736  0.00  0.00    +0.000 NA
ATOM      8  H   UNL     1       1.190   2.200  18.246  0.00  0.00    +0.000 HD
ENDROOT
BRANCH   1  14
ATOM      9  C   UNL     1       5.739   4.301  16.829  0.00  0.00    +0.000 A 
ATOM     10  C   UNL     1       7.107   4.561  16.713  0.00  0.00    +0.000 A 
ATOM     11  C   UNL     1       7.833   4.847  17.856  0.00  0.00    +0.000 A 
ATOM     12  N   UNL     1       7.293   4.898  19.085  0.00  0.00    +0.000 NA
ATOM     13  C   UNL     1       5.962   4.661  19.177  0.00  0.00    +0.000 A 
ATOM     14  C   UNL     1       5.137   4.367  18.094  0.00  0.00    +0.000 A 
BRANCH   9  16
ATOM     15  C   UNL     1       5.497   4.375  14.468  0.00  0.00    +0.000 C 
ATOM     16  O   UNL     1       4.944   4.049  15.741  0.00  0.00    +0.000 OA
ENDBRANCH   9  16
ENDBRANCH   1  14
BRANCH   7  17
ATOM     17  N   UNL     1       2.182   6.480  20.631  0.00  0.00    +0.000 N 
ATOM     18  H   UNL     1       1.717   5.900  21.336  0.00  0.00    +0.000 HD
BRANCH  17  19
ATOM     19  C   UNL     1       1.576   7.722  20.378  0.00  0.00    +0.000 A 
ATOM     20  C   UNL     1       1.738   8.401  19.168  0.00  0.00    +0.000 A 
ATOM     21  C   UNL     1       1.142   9.653  18.953  0.00  0.00    +0.000 A 
ATOM     22  C   UNL     1       0.412  10.303  19.953  0.00  0.00    +0.000 A 
ATOM     23  C   UNL     1       0.288   9.628  21.177  0.00  0.00    +0.000 A 
ATOM     24  C   UNL     1       0.848   8.357  21.384  0.00  0.00    +0.000 A 
BRANCH  22  25
ATOM     25  N   UNL     1      -0.197  11.529  19.762  0.00  0.00    +0.000 N 
ATOM     26  C   UNL     1      -0.441  12.473  20.863  0.00  0.00    +0.000 C 
ATOM     27  C   UNL     1      -1.939  12.577  21.180  0.00  0.00    +0.000 C 
ATOM     28  O   UNL     1      -2.700  12.909  20.006  0.00  0.00    +0.000 OA
ATOM     29  C   UNL     1      -2.528  11.892  19.005  0.00  0.00    +0.000 C 
ATOM     30  C   UNL     1      -1.054  11.746  18.582  0.00  0.00    +0.000 C 
ENDBRANCH  22  25
ENDBRANCH  17  19
ENDBRANCH   7  17
TORSDOF 5
ENDMDL
MODEL 8
REMARK VINA RESULT:      -7.9      1.461      2.129
REMARK  Name = 
REMARK  6 active torsions:
REMARK  status: ('A' for Active; 'I' for Inactive)
REMARK    1  A    between atoms: C_1  and  O_2
REMARK    2  A    between atoms: O_2  and  C_3
REMARK    3  A    between atoms: C_8  and  C_9
REMARK    4  A    between atoms: N_15  and  N_16
REMARK    5  A    between atoms: N_16  and  C_17
REMARK    6  A    between atoms: C_20  and  N_21
REMARK                            x       y       z     vdW  Elec       q    Type
REMARK                         _______ _______ _______ _____ _____    ______ ____
ROOT
ATOM      1  C   UNL     1       3.763   4.084  18.384  0.00  0.00    +0.000 C 
ATOM      2  N   UNL     1       3.137   2.975  18.077  0.00  0.00    +0.000 NA
ATOM      3  N   UNL     1       1.872   3.019  18.653  0.00  0.00    +0.000 N 
ATOM      4  C   UNL     1       1.621   4.126  19.428  0.00  0.00    +0.000 C 
ATOM      5  O   UNL     1       0.688   4.405  20.147  0.00  0.00    +0.000 OA
ATOM      6  C   UNL     1       2.845   4.954  19.185  0.00  0.00    +0.000 C 
ATOM      7  N   UNL     1       3.083   6.186  19.497  0.00  0.00    +0.000 NA
ATOM      8  H   UNL     1       1.253   2.220  18.577  0.00  0.00    +0.000 HD
ENDROOT
BRANCH   1  14
ATOM      9  C   UNL     1       5.717   4.359  16.803  0.00  0.00    +0.000 A 
ATOM     10  C   UNL     1       7.085   4.594  16.637  0.00  0.00    +0.000 A 
ATOM     11  C   UNL     1       7.867   4.816  17.756  0.00  0.00    +0.000 A 
ATOM     12  N   UNL     1       7.384   4.828  19.010  0.00  0.00    +0.000 NA
ATOM     13  C   UNL     1       6.052   4.617  19.152  0.00  0.00    +0.000 A 
ATOM     14  C   UNL     1       5.174   4.386  18.096  0.00  0.00    +0.000 A 
BRANCH   9  16
ATOM     15  C   UNL     1       5.447   4.293  14.446  0.00  0.00    +0.000 C 
ATOM     16  O   UNL     1       4.869   4.170  15.743  0.00  0.00    +0.000 OA
ENDBRANCH   9  16
ENDBRANCH   1  14
BRANCH   7  17
ATOM     17  N   UNL     1       2.200   6.810  20.312  0.00  0.00    +0.000 N 
ATOM     18  H   UNL     1       1.666   6.310  21.029  0.00  0.00    +0.000 HD
BRANCH  17  19
ATOM     19  C   UNL     1       1.689   8.069  19.948  0.00  0.00    +0.000 A 
ATOM     20  C   UNL     1       0.920   8.844  20.819  0.00  0.00    +0.000 A 
ATOM     21  C   UNL     1       0.400  10.084  20.419  0.00  0.00    +0.000 A 
ATOM     22  C   UNL     1       0.576  10.573  19.120  0.00  0.00    +0.000 A 
ATOM     23  C   UNL     1       1.318   9.768  18.244  0.00  0.00    +0.000 A 
ATOM     24  C   UNL     1       1.875   8.545  18.650  0.00  0.00    +0.000 A 
BRANCH  22  25
ATOM     25  N   UNL     1       0.087  11.798  18.706  0.00  0.00    +0.000 N 
ATOM     26  C   UNL     1       0.917  13.012  18.673  0.00  0.00    +0.000 C 
ATOM     27  C   UNL     1       0.484  14.006  19.760  0.00  0.00    +0.000 C 
ATOM     28  O   UNL     1      -0.918  14.308  19.664  0.00  0.00    +0.000 OA
ATOM     29  C   UNL     1      -1.692  13.108  19.829  0.00  0.00    +0.000 C 
ATOM     30  C   UNL     1      -1.363  12.060  18.748  0.00  0.00    +0.000 C 
ENDBRANCH  22  25
ENDBRANCH  17  19
ENDBRANCH   7  17
TORSDOF 5
ENDMDL
MODEL 9
REMARK VINA RESULT:      -7.8      1.731      2.469
REMARK  Name = 
REMARK  6 active torsions:
REMARK  status: ('A' for Active; 'I' for Inactive)
REMARK    1  A    between atoms: C_1  and  O_2
REMARK    2  A    between atoms: O_2  and  C_3
REMARK    3  A    between atoms: C_8  and  C_9
REMARK    4  A    between atoms: N_15  and  N_16
REMARK    5  A    between atoms: N_16  and  C_17
REMARK    6  A    between atoms: C_20  and  N_21
REMARK                            x       y       z     vdW  Elec       q    Type
REMARK                         _______ _______ _______ _____ _____    ______ ____
ROOT
ATOM      1  C   UNL     1       3.680   4.045  18.474  0.00  0.00    +0.000 C 
ATOM      2  N   UNL     1       3.110   2.933  18.083  0.00  0.00    +0.000 NA
ATOM      3  N   UNL     1       1.839   2.878  18.644  0.00  0.00    +0.000 N 
ATOM      4  C   UNL     1       1.529   3.915  19.490  0.00  0.00    +0.000 C 
ATOM      5  O   UNL     1       0.576   4.100  20.214  0.00  0.00    +0.000 OA
ATOM      6  C   UNL     1       2.714   4.814  19.321  0.00  0.00    +0.000 C 
ATOM      7  N   UNL     1       2.890   6.031  19.720  0.00  0.00    +0.000 NA
ATOM      8  H   UNL     1       1.260   2.057  18.505  0.00  0.00    +0.000 HD
ENDROOT
BRANCH   1  14
ATOM      9  C   UNL     1       5.669   4.405  16.954  0.00  0.00    +0.000 A 
ATOM     10  C   UNL     1       7.023   4.725  16.828  0.00  0.00    +0.000 A 
ATOM     11  C   UNL     1       7.748   5.031  17.967  0.00  0.00    +0.000 A 
ATOM     12  N   UNL     1       7.219   5.047  19.202  0.00  0.00    +0.000 NA
ATOM     13  C   UNL     1       5.900   4.752  19.305  0.00  0.00    +0.000 A 
ATOM     14  C   UNL     1       5.078   4.433  18.226  0.00  0.00    +0.000 A 
BRANCH   9  16
ATOM     15  C   UNL     1       5.476   4.299  14.591  0.00  0.00    +0.000 C 
ATOM     16  O   UNL     1       4.874   4.129  15.872  0.00  0.00    +0.000 OA
ENDBRANCH   9  16
ENDBRANCH   1  14
BRANCH   7  17
ATOM     17  N   UNL     1       1.970   6.556  20.564  0.00  0.00    +0.000 N 
ATOM     18  H   UNL     1       1.325   5.972  21.105  0.00  0.00    +0.000 HD
BRANCH  17  19
ATOM     19  C   UNL     1       1.595   7.905  20.432  0.00  0.00    +0.000 A 
ATOM     20  C   UNL     1       1.091   8.649  21.501  0.00  0.00    +0.000 A 
ATOM     21  C   UNL     1       0.700   9.986  21.333  0.00  0.00    +0.000 A 
ATOM     22  C   UNL     1       0.741  10.615  20.085  0.00  0.00    +0.000 A 
ATOM     23  C   UNL     1       1.213   9.845  19.011  0.00  0.00    +0.000 A 
ATOM     24  C   UNL     1       1.644   8.519  19.181  0.00  0.00    +0.000 A 
BRANCH  22  25
ATOM     25  N   UNL     1       0.375  11.934  19.896  0.00  0.00    +0.000 N 
ATOM     26  C   UNL     1       0.738  12.692  18.690  0.00  0.00    +0.000 C 
ATOM     27  C   UNL     1       1.784  13.770  19.009  0.00  0.00    +0.000 C 
ATOM     28  O   UNL     1       1.342  14.629  20.073  0.00  0.00    +0.000 OA
ATOM     29  C   UNL     1       1.121  13.859  21.267  0.00  0.00    +0.000 C 
ATOM     30  C   UNL     1       0.044  12.776  21.060  0.00  0.00    +0.000 C 
ENDBRANCH  22  25
ENDBRANCH  17  19
ENDBRANCH   7  17
TORSDOF 5
ENDMDL
