MODEL 1
REMARK VINA RESULT:      -8.1      0.000      0.000
REMARK  Name = 
REMARK  5 active torsions:
REMARK  status: ('A' for Active; 'I' for Inactive)
REMARK    1  A    between atoms: N_1  and  S_2
REMARK    2  A    between atoms: S_2  and  O_5
REMARK    3  A    between atoms: O_5  and  C_6
REMARK    4  A    between atoms: C_14  and  C_16
REMARK    5  A    between atoms: C_19  and  N_20
REMARK                            x       y       z     vdW  Elec       q    Type
REMARK                         _______ _______ _______ _____ _____    ______ ____
ROOT
ATOM      1  C   UNL     1      -4.272  13.168  21.125  0.00  0.00    +0.000 A 
ATOM      2  C   UNL     1      -4.903  12.731  19.956  0.00  0.00    +0.000 A 
ATOM      3  C   UNL     1      -4.171  12.097  18.952  0.00  0.00    +0.000 A 
ATOM      4  C   UNL     1      -2.806  11.876  19.131  0.00  0.00    +0.000 A 
ATOM      5  C   UNL     1      -2.171  12.277  20.319  0.00  0.00    +0.000 A 
ATOM      6  C   UNL     1      -2.909  12.932  21.309  0.00  0.00    +0.000 A 
ATOM      7  C   UNL     1      -0.692  12.014  20.488  0.00  0.00    +0.000 C 
ATOM      8  N   UNL     1      -0.275  10.722  19.934  0.00  0.00    +0.000 N 
ATOM      9  C   UNL     1       0.844  10.114  20.524  0.00  0.00    +0.000 C 
ATOM     10  O   UNL     1       1.470  10.671  21.433  0.00  0.00    +0.000 OA
ATOM     11  C   UNL     1      -1.034  10.199  18.794  0.00  0.00    +0.000 C 
ATOM     12  C   UNL     1      -1.957  11.194  18.096  0.00  0.00    +0.000 C 
ENDROOT
BRANCH   9  13
ATOM     13  C   UNL     1       1.372   8.794  20.055  0.00  0.00    +0.000 A 
ATOM     14  C   UNL     1       1.935   8.731  18.775  0.00  0.00    +0.000 A 
ATOM     15  C   UNL     1       2.417   7.517  18.260  0.00  0.00    +0.000 A 
ATOM     16  C   UNL     1       2.333   6.324  18.989  0.00  0.00    +0.000 A 
ATOM     17  C   UNL     1       1.803   6.411  20.278  0.00  0.00    +0.000 A 
ATOM     18  C   UNL     1       1.379   7.630  20.819  0.00  0.00    +0.000 A 
BRANCH  16  19
ATOM     19  N   UNL     1       2.773   5.116  18.492  0.00  0.00    +0.000 N 
ATOM     20  C   UNL     1       4.171   4.690  18.625  0.00  0.00    +0.000 C 
ATOM     21  C   UNL     1       4.265   3.357  19.381  0.00  0.00    +0.000 C 
ATOM     22  S   UNL     1       3.346   2.005  18.562  0.00  0.00    +0.000 S 
ATOM     23  C   UNL     1       1.739   2.862  18.406  0.00  0.00    +0.000 C 
ATOM     24  C   UNL     1       1.881   4.229  17.732  0.00  0.00    +0.000 C 
ENDBRANCH  16  19
ENDBRANCH   9  13
BRANCH   1  25
ATOM     25  O   UNL     1      -5.081  13.766  22.055  0.00  0.00    +0.000 OA
BRANCH  25  26
ATOM     26  S   UNL     1      -5.778  12.906  23.247  0.00  0.00    +0.000 S 
ATOM     27  O   UNL     1      -4.768  12.292  24.077  0.00  0.00    +0.000 OA
ATOM     28  O   UNL     1      -6.899  12.156  22.725  0.00  0.00    +0.000 OA
BRANCH  26  29
ATOM     29  N   UNL     1      -6.506  14.081  24.205  0.00  0.00    +0.000 NA
ATOM     30  H   UNL     1      -6.065  14.054  25.125  0.00  0.00    +0.000 HD
ATOM     31  H   UNL     1      -7.502  13.874  24.265  0.00  0.00    +0.000 HD
ENDBRANCH  26  29
ENDBRANCH  25  26
ENDBRANCH   1  25
TORSDOF 5
ENDMDL
MODEL 2
REMARK VINA RESULT:      -8.1      1.544      1.963
REMARK  Name = 
REMARK  5 active torsions:
REMARK  status: ('A' for Active; 'I' for Inactive)
REMARK    1  A    between atoms: N_1  and  S_2
REMARK    2  A    between atoms: S_2  and  O_5
REMARK    3  A    between atoms: O_5  and  C_6
REMARK    4  A    between atoms: C_14  and  C_16
REMARK    5  A    between atoms: C_19  and  N_20
REMARK                            x       y       z     vdW  Elec       q    Type
REMARK                         _______ _______ _______ _____ _____    ______ ____
ROOT
ATOM      1  C   UNL     1      -5.497  12.483  19.572  0.00  0.00    +0.000 A 
ATOM      2  C   UNL     1      -5.999  11.571  18.639  0.00  0.00    +0.000 A 
ATOM      3  C   UNL     1      -5.132  10.856  17.813  0.00  0.00    +0.000 A 
ATOM      4  C   UNL     1      -3.755  11.034  17.941  0.00  0.00    +0.000 A 
ATOM      5  C   UNL     1      -3.241  11.920  18.903  0.00  0.00    +0.000 A 
ATOM      6  C   UNL     1      -4.119  12.649  19.710  0.00  0.00    +0.000 A 
ATOM      7  C   UNL     1      -1.743  12.085  19.025  0.00  0.00    +0.000 C 
ATOM      8  N   UNL     1      -1.013  10.826  18.846  0.00  0.00    +0.000 N 
ATOM      9  C   UNL     1       0.224  10.715  19.500  0.00  0.00    +0.000 C 
ATOM     10  O   UNL     1       0.690  11.657  20.151  0.00  0.00    +0.000 OA
ATOM     11  C   UNL     1      -1.618   9.812  17.976  0.00  0.00    +0.000 C 
ATOM     12  C   UNL     1      -2.764  10.293  17.090  0.00  0.00    +0.000 C 
ENDROOT
BRANCH   9  13
ATOM     13  C   UNL     1       1.067   9.482  19.402  0.00  0.00    +0.000 A 
ATOM     14  C   UNL     1       1.781   9.268  18.217  0.00  0.00    +0.000 A 
ATOM     15  C   UNL     1       2.563   8.115  18.046  0.00  0.00    +0.000 A 
ATOM     16  C   UNL     1       2.643   7.127  19.036  0.00  0.00    +0.000 A 
ATOM     17  C   UNL     1       1.956   7.374  20.226  0.00  0.00    +0.000 A 
ATOM     18  C   UNL     1       1.226   8.551  20.425  0.00  0.00    +0.000 A 
BRANCH  16  19
ATOM     19  N   UNL     1       3.382   5.974  18.878  0.00  0.00    +0.000 N 
ATOM     20  C   UNL     1       3.170   4.800  19.731  0.00  0.00    +0.000 C 
ATOM     21  C   UNL     1       2.801   3.571  18.888  0.00  0.00    +0.000 C 
ATOM     22  S   UNL     1       4.079   3.142  17.654  0.00  0.00    +0.000 S 
ATOM     23  C   UNL     1       4.225   4.786  16.870  0.00  0.00    +0.000 C 
ATOM     24  C   UNL     1       4.474   5.892  17.898  0.00  0.00    +0.000 C 
ENDBRANCH  16  19
ENDBRANCH   9  13
BRANCH   1  25
ATOM     25  O   UNL     1      -6.429  13.124  20.345  0.00  0.00    +0.000 OA
BRANCH  25  26
ATOM     26  S   UNL     1      -6.787  12.605  21.844  0.00  0.00    +0.000 S 
ATOM     27  O   UNL     1      -7.824  13.427  22.424  0.00  0.00    +0.000 OA
ATOM     28  O   UNL     1      -5.571  12.288  22.560  0.00  0.00    +0.000 OA
BRANCH  26  29
ATOM     29  N   UNL     1      -7.489  11.100  21.581  0.00  0.00    +0.000 NA
ATOM     30  H   UNL     1      -8.332  11.239  21.024  0.00  0.00    +0.000 HD
ATOM     31  H   UNL     1      -7.707  10.685  22.487  0.00  0.00    +0.000 HD
ENDBRANCH  26  29
ENDBRANCH  25  26
ENDBRANCH   1  25
TORSDOF 5
ENDMDL
MODEL 3
REMARK VINA RESULT:      -7.9      1.083      1.668
REMARK  Name = 
REMARK  5 active torsions:
REMARK  status: ('A' for Active; 'I' for Inactive)
REMARK    1  A    between atoms: N_1  and  S_2
REMARK    2  A    between atoms: S_2  and  O_5
REMARK    3  A    between atoms: O_5  and  C_6
REMARK    4  A    between atoms: C_14  and  C_16
REMARK    5  A    between atoms: C_19  and  N_20
REMARK                            x       y       z     vdW  Elec       q    Type
REMARK                         _______ _______ _______ _____ _____    ______ ____
ROOT
ATOM      1  C   UNL     1      -4.987  13.261  20.652  0.00  0.00    +0.000 A 
ATOM      2  C   UNL     1      -5.717  12.448  19.779  0.00  0.00    +0.000 A 
ATOM      3  C   UNL     1      -5.063  11.682  18.814  0.00  0.00    +0.000 A 
ATOM      4  C   UNL     1      -3.671  11.710  18.741  0.00  0.00    +0.000 A 
ATOM      5  C   UNL     1      -2.928  12.494  19.639  0.00  0.00    +0.000 A 
ATOM      6  C   UNL     1      -3.594  13.276  20.587  0.00  0.00    +0.000 A 
ATOM      7  C   UNL     1      -1.420  12.495  19.542  0.00  0.00    +0.000 C 
ATOM      8  N   UNL     1      -0.866  11.176  19.223  0.00  0.00    +0.000 N 
ATOM      9  C   UNL     1       0.432  10.907  19.681  0.00  0.00    +0.000 C 
ATOM     10  O   UNL     1       1.089  11.766  20.281  0.00  0.00    +0.000 OA
ATOM     11  C   UNL     1      -1.698  10.269  18.424  0.00  0.00    +0.000 C 
ATOM     12  C   UNL     1      -2.901  10.906  17.732  0.00  0.00    +0.000 C 
ENDROOT
BRANCH   9  13
ATOM     13  C   UNL     1       1.112   9.598  19.426  0.00  0.00    +0.000 A 
ATOM     14  C   UNL     1       1.214   8.694  20.490  0.00  0.00    +0.000 A 
ATOM     15  C   UNL     1       1.870   7.464  20.328  0.00  0.00    +0.000 A 
ATOM     16  C   UNL     1       2.466   7.102  19.113  0.00  0.00    +0.000 A 
ATOM     17  C   UNL     1       2.322   7.998  18.052  0.00  0.00    +0.000 A 
ATOM     18  C   UNL     1       1.615   9.197  18.191  0.00  0.00    +0.000 A 
BRANCH  16  19
ATOM     19  N   UNL     1       3.140   5.912  18.940  0.00  0.00    +0.000 N 
ATOM     20  C   UNL     1       2.639   4.653  19.502  0.00  0.00    +0.000 C 
ATOM     21  C   UNL     1       2.413   3.613  18.395  0.00  0.00    +0.000 C 
ATOM     22  S   UNL     1       3.930   3.237  17.449  0.00  0.00    +0.000 S 
ATOM     23  C   UNL     1       4.383   4.954  17.018  0.00  0.00    +0.000 C 
ATOM     24  C   UNL     1       4.438   5.859  18.251  0.00  0.00    +0.000 C 
ENDBRANCH  16  19
ENDBRANCH   9  13
BRANCH   1  25
ATOM     25  O   UNL     1      -5.722  13.963  21.572  0.00  0.00    +0.000 OA
BRANCH  25  26
ATOM     26  S   UNL     1      -6.010  13.365  23.057  0.00  0.00    +0.000 S 
ATOM     27  O   UNL     1      -5.167  12.220  23.307  0.00  0.00    +0.000 OA
ATOM     28  O   UNL     1      -7.434  13.337  23.310  0.00  0.00    +0.000 OA
BRANCH  26  29
ATOM     29  N   UNL     1      -5.455  14.576  24.082  0.00  0.00    +0.000 NA
ATOM     30  H   UNL     1      -4.719  15.088  23.595  0.00  0.00    +0.000 HD
ATOM     31  H   UNL     1      -5.101  14.139  24.933  0.00  0.00    +0.000 HD
ENDBRANCH  26  29
ENDBRANCH  25  26
ENDBRANCH   1  25
TORSDOF 5
ENDMDL
MODEL 4
REMARK VINA RESULT:      -7.8      1.812      2.221
REMARK  Name = 
REMARK  5 active torsions:
REMARK  status: ('A' for Active; 'I' for Inactive)
REMARK    1  A    between atoms: N_1  and  S_2
REMARK    2  A    between atoms: S_2  and  O_5
REMARK    3  A    between atoms: O_5  and  C_6
REMARK    4  A    between atoms: C_14  and  C_16
REMARK    5  A    between atoms: C_19  and  N_20
REMARK                            x       y       z     vdW  Elec       q    Type
REMARK                         _______ _______ _______ _____ _____    ______ ____
ROOT
ATOM      1  C   UNL     1      -5.341  12.521  19.545  0.00  0.00    +0.000 A 
ATOM      2  C   UNL     1      -5.843  11.679  18.549  0.00  0.00    +0.000 A 
ATOM      3  C   UNL     1      -4.976  11.029  17.669  0.00  0.00    +0.000 A 
ATOM      4  C   UNL     1      -3.600  11.203  17.806  0.00  0.00    +0.000 A 
ATOM      5  C   UNL     1      -3.085  12.018  18.828  0.00  0.00    +0.000 A 
ATOM      6  C   UNL     1      -3.963  12.682  19.689  0.00  0.00    +0.000 A 
ATOM      7  C   UNL     1      -1.588  12.179  18.957  0.00  0.00    +0.000 C 
ATOM      8  N   UNL     1      -0.854  10.939  18.685  0.00  0.00    +0.000 N 
ATOM      9  C   UNL     1       0.386  10.785  19.324  0.00  0.00    +0.000 C 
ATOM     10  O   UNL     1       0.851  11.679  20.041  0.00  0.00    +0.000 OA
ATOM     11  C   UNL     1      -1.458   9.989  17.744  0.00  0.00    +0.000 C 
ATOM     12  C   UNL     1      -2.609  10.530  16.900  0.00  0.00    +0.000 C 
ENDROOT
BRANCH   9  13
ATOM     13  C   UNL     1       1.233   9.567  19.134  0.00  0.00    +0.000 A 
ATOM     14  C   UNL     1       1.922   9.430  17.922  0.00  0.00    +0.000 A 
ATOM     15  C   UNL     1       2.707   8.294  17.665  0.00  0.00    +0.000 A 
ATOM     16  C   UNL     1       2.813   7.249  18.590  0.00  0.00    +0.000 A 
ATOM     17  C   UNL     1       2.151   7.418  19.808  0.00  0.00    +0.000 A 
ATOM     18  C   UNL     1       1.419   8.576  20.094  0.00  0.00    +0.000 A 
BRANCH  16  19
ATOM     19  N   UNL     1       3.554   6.112  18.347  0.00  0.00    +0.000 N 
ATOM     20  C   UNL     1       3.841   5.655  16.982  0.00  0.00    +0.000 C 
ATOM     21  C   UNL     1       5.355   5.571  16.742  0.00  0.00    +0.000 C 
ATOM     22  S   UNL     1       6.200   4.436  17.899  0.00  0.00    +0.000 S 
ATOM     23  C   UNL     1       5.554   5.147  19.454  0.00  0.00    +0.000 C 
ATOM     24  C   UNL     1       4.027   5.256  19.444  0.00  0.00    +0.000 C 
ENDBRANCH  16  19
ENDBRANCH   9  13
BRANCH   1  25
ATOM     25  O   UNL     1      -6.273  13.100  20.365  0.00  0.00    +0.000 OA
BRANCH  25  26
ATOM     26  S   UNL     1      -6.543  12.538  21.868  0.00  0.00    +0.000 S 
ATOM     27  O   UNL     1      -7.508  13.371  22.547  0.00  0.00    +0.000 OA
ATOM     28  O   UNL     1      -5.291  12.157  22.485  0.00  0.00    +0.000 OA
BRANCH  26  29
ATOM     29  N   UNL     1      -7.313  11.067  21.604  0.00  0.00    +0.000 NA
ATOM     30  H   UNL     1      -7.589  10.690  22.511  0.00  0.00    +0.000 HD
ATOM     31  H   UNL     1      -6.661  10.445  21.127  0.00  0.00    +0.000 HD
ENDBRANCH  26  29
ENDBRANCH  25  26
ENDBRANCH   1  25
TORSDOF 5
ENDMDL
MODEL 5
REMARK VINA RESULT:      -7.7      1.115      1.540
REMARK  Name = 
REMARK  5 active torsions:
REMARK  status: ('A' for Active; 'I' for Inactive)
REMARK    1  A    between atoms: N_1  and  S_2
REMARK    2  A    between atoms: S_2  and  O_5
REMARK    3  A    between atoms: O_5  and  C_6
REMARK    4  A    between atoms: C_14  and  C_16
REMARK    5  A    between atoms: C_19  and  N_20
REMARK                            x       y       z     vdW  Elec       q    Type
REMARK                         _______ _______ _______ _____ _____    ______ ____
ROOT
ATOM      1  C   UNL     1      -4.937  13.220  20.672  0.00  0.00    +0.000 A 
ATOM      2  C   UNL     1      -5.518  12.556  19.588  0.00  0.00    +0.000 A 
ATOM      3  C   UNL     1      -4.723  11.854  18.681  0.00  0.00    +0.000 A 
ATOM      4  C   UNL     1      -3.344  11.796  18.876  0.00  0.00    +0.000 A 
ATOM      5  C   UNL     1      -2.756  12.429  19.984  0.00  0.00    +0.000 A 
ATOM      6  C   UNL     1      -3.558  13.149  20.874  0.00  0.00    +0.000 A 
ATOM      7  C   UNL     1      -1.259  12.339  20.174  0.00  0.00    +0.000 C 
ATOM      8  N   UNL     1      -0.715  11.027  19.813  0.00  0.00    +0.000 N 
ATOM      9  C   UNL     1       0.455  10.625  20.475  0.00  0.00    +0.000 C 
ATOM     10  O   UNL     1       1.020  11.369  21.284  0.00  0.00    +0.000 OA
ATOM     11  C   UNL     1      -1.415  10.268  18.772  0.00  0.00    +0.000 C 
ATOM     12  C   UNL     1      -2.429  11.053  17.944  0.00  0.00    +0.000 C 
ENDROOT
BRANCH   9  13
ATOM     13  C   UNL     1       1.112   9.308  20.201  0.00  0.00    +0.000 A 
ATOM     14  C   UNL     1       1.698   9.116  18.944  0.00  0.00    +0.000 A 
ATOM     15  C   UNL     1       2.299   7.892  18.610  0.00  0.00    +0.000 A 
ATOM     16  C   UNL     1       2.316   6.813  19.503  0.00  0.00    +0.000 A 
ATOM     17  C   UNL     1       1.761   7.033  20.765  0.00  0.00    +0.000 A 
ATOM     18  C   UNL     1       1.218   8.271  21.125  0.00  0.00    +0.000 A 
BRANCH  16  19
ATOM     19  N   UNL     1       2.876   5.594  19.185  0.00  0.00    +0.000 N 
ATOM     20  C   UNL     1       2.048   4.423  18.871  0.00  0.00    +0.000 C 
ATOM     21  C   UNL     1       2.369   3.889  17.468  0.00  0.00    +0.000 C 
ATOM     22  S   UNL     1       4.119   3.402  17.272  0.00  0.00    +0.000 S 
ATOM     23  C   UNL     1       4.874   4.961  17.856  0.00  0.00    +0.000 C 
ATOM     24  C   UNL     1       4.330   5.384  19.223  0.00  0.00    +0.000 C 
ENDBRANCH  16  19
ENDBRANCH   9  13
BRANCH   1  25
ATOM     25  O   UNL     1      -5.804  13.869  21.512  0.00  0.00    +0.000 OA
BRANCH  25  26
ATOM     26  S   UNL     1      -6.530  13.090  22.742  0.00  0.00    +0.000 S 
ATOM     27  O   UNL     1      -7.180  11.893  22.262  0.00  0.00    +0.000 OA
ATOM     28  O   UNL     1      -7.209  14.041  23.595  0.00  0.00    +0.000 OA
BRANCH  26  29
ATOM     29  N   UNL     1      -5.244  12.566  23.689  0.00  0.00    +0.000 NA
ATOM     30  H   UNL     1      -4.380  12.891  23.254  0.00  0.00    +0.000 HD
ATOM     31  H   UNL     1      -5.274  11.548  23.736  0.00  0.00    +0.000 HD
ENDBRANCH  26  29
ENDBRANCH  25  26
ENDBRANCH   1  25
TORSDOF 5
ENDMDL
MODEL 6
REMARK VINA RESULT:      -7.7      1.234      1.746
REMARK  Name = 
REMARK  5 active torsions:
REMARK  status: ('A' for Active; 'I' for Inactive)
REMARK    1  A    between atoms: N_1  and  S_2
REMARK    2  A    between atoms: S_2  and  O_5
REMARK    3  A    between atoms: O_5  and  C_6
REMARK    4  A    between atoms: C_14  and  C_16
REMARK    5  A    between atoms: C_19  and  N_20
REMARK                            x       y       z     vdW  Elec       q    Type
REMARK                         _______ _______ _______ _____ _____    ______ ____
ROOT
ATOM      1  C   UNL     1      -4.816  13.474  21.137  0.00  0.00    +0.000 A 
ATOM      2  C   UNL     1      -5.609  12.732  20.257  0.00  0.00    +0.000 A 
ATOM      3  C   UNL     1      -5.026  12.036  19.197  0.00  0.00    +0.000 A 
ATOM      4  C   UNL     1      -3.641  12.063  19.034  0.00  0.00    +0.000 A 
ATOM      5  C   UNL     1      -2.834  12.776  19.937  0.00  0.00    +0.000 A 
ATOM      6  C   UNL     1      -3.430  13.488  20.982  0.00  0.00    +0.000 A 
ATOM      7  C   UNL     1      -1.336  12.778  19.740  0.00  0.00    +0.000 C 
ATOM      8  N   UNL     1      -0.816  11.484  19.289  0.00  0.00    +0.000 N 
ATOM      9  C   UNL     1       0.507  11.177  19.640  0.00  0.00    +0.000 C 
ATOM     10  O   UNL     1       1.209  11.987  20.257  0.00  0.00    +0.000 OA
ATOM     11  C   UNL     1      -1.707  10.642  18.483  0.00  0.00    +0.000 C 
ATOM     12  C   UNL     1      -2.946  11.334  17.920  0.00  0.00    +0.000 C 
ENDROOT
BRANCH   9  13
ATOM     13  C   UNL     1       1.157   9.888  19.245  0.00  0.00    +0.000 A 
ATOM     14  C   UNL     1       1.121   8.828  20.159  0.00  0.00    +0.000 A 
ATOM     15  C   UNL     1       1.741   7.603  19.866  0.00  0.00    +0.000 A 
ATOM     16  C   UNL     1       2.437   7.400  18.668  0.00  0.00    +0.000 A 
ATOM     17  C   UNL     1       2.431   8.453  17.751  0.00  0.00    +0.000 A 
ATOM     18  C   UNL     1       1.761   9.653  18.012  0.00  0.00    +0.000 A 
BRANCH  16  19
ATOM     19  N   UNL     1       3.078   6.215  18.372  0.00  0.00    +0.000 N 
ATOM     20  C   UNL     1       4.168   6.152  17.391  0.00  0.00    +0.000 C 
ATOM     21  C   UNL     1       5.450   5.607  18.036  0.00  0.00    +0.000 C 
ATOM     22  S   UNL     1       5.238   3.935  18.743  0.00  0.00    +0.000 S 
ATOM     23  C   UNL     1       3.770   4.289  19.773  0.00  0.00    +0.000 C 
ATOM     24  C   UNL     1       2.646   4.941  18.965  0.00  0.00    +0.000 C 
ENDBRANCH  16  19
ENDBRANCH   9  13
BRANCH   1  25
ATOM     25  O   UNL     1      -5.482  14.109  22.153  0.00  0.00    +0.000 OA
BRANCH  25  26
ATOM     26  S   UNL     1      -5.287  13.659  23.703  0.00  0.00    +0.000 S 
ATOM     27  O   UNL     1      -4.428  14.594  24.391  0.00  0.00    +0.000 OA
ATOM     28  O   UNL     1      -5.080  12.229  23.780  0.00  0.00    +0.000 OA
BRANCH  26  29
ATOM     29  N   UNL     1      -6.817  13.868  24.369  0.00  0.00    +0.000 NA
ATOM     30  H   UNL     1      -7.176  14.769  24.053  0.00  0.00    +0.000 HD
ATOM     31  H   UNL     1      -6.732  13.838  25.384  0.00  0.00    +0.000 HD
ENDBRANCH  26  29
ENDBRANCH  25  26
ENDBRANCH   1  25
TORSDOF 5
ENDMDL
MODEL 7
REMARK VINA RESULT:      -7.5      1.256      1.617
REMARK  Name = 
REMARK  5 active torsions:
REMARK  status: ('A' for Active; 'I' for Inactive)
REMARK    1  A    between atoms: N_1  and  S_2
REMARK    2  A    between atoms: S_2  and  O_5
REMARK    3  A    between atoms: O_5  and  C_6
REMARK    4  A    between atoms: C_14  and  C_16
REMARK    5  A    between atoms: C_19  and  N_20
REMARK                            x       y       z     vdW  Elec       q    Type
REMARK                         _______ _______ _______ _____ _____    ______ ____
ROOT
ATOM      1  C   UNL     1      -3.975  13.006  22.052  0.00  0.00    +0.000 A 
ATOM      2  C   UNL     1      -4.508  12.918  20.762  0.00  0.00    +0.000 A 
ATOM      3  C   UNL     1      -3.722  12.464  19.703  0.00  0.00    +0.000 A 
ATOM      4  C   UNL     1      -2.406  12.071  19.941  0.00  0.00    +0.000 A 
ATOM      5  C   UNL     1      -1.875  12.121  21.241  0.00  0.00    +0.000 A 
ATOM      6  C   UNL     1      -2.663  12.600  22.291  0.00  0.00    +0.000 A 
ATOM      7  C   UNL     1      -0.447  11.679  21.470  0.00  0.00    +0.000 C 
ATOM      8  N   UNL     1      -0.072  10.516  20.660  0.00  0.00    +0.000 N 
ATOM      9  C   UNL     1       0.926   9.679  21.182  0.00  0.00    +0.000 C 
ATOM     10  O   UNL     1       1.491   9.945  22.249  0.00  0.00    +0.000 OA
ATOM     11  C   UNL     1      -0.741  10.349  19.366  0.00  0.00    +0.000 C 
ATOM     12  C   UNL     1      -1.505  11.567  18.850  0.00  0.00    +0.000 C 
ENDROOT
BRANCH   9  13
ATOM     13  C   UNL     1       1.399   8.458  20.457  0.00  0.00    +0.000 A 
ATOM     14  C   UNL     1       1.243   7.219  21.090  0.00  0.00    +0.000 A 
ATOM     15  C   UNL     1       1.697   6.038  20.482  0.00  0.00    +0.000 A 
ATOM     16  C   UNL     1       2.341   6.052  19.238  0.00  0.00    +0.000 A 
ATOM     17  C   UNL     1       2.454   7.290  18.604  0.00  0.00    +0.000 A 
ATOM     18  C   UNL     1       1.947   8.461  19.178  0.00  0.00    +0.000 A 
BRANCH  16  19
ATOM     19  N   UNL     1       2.820   4.908  18.636  0.00  0.00    +0.000 N 
ATOM     20  C   UNL     1       4.213   4.476  18.796  0.00  0.00    +0.000 C 
ATOM     21  C   UNL     1       4.281   3.069  19.404  0.00  0.00    +0.000 C 
ATOM     22  S   UNL     1       3.421   1.812  18.394  0.00  0.00    +0.000 S 
ATOM     23  C   UNL     1       1.816   2.672  18.247  0.00  0.00    +0.000 C 
ATOM     24  C   UNL     1       1.979   4.106  17.736  0.00  0.00    +0.000 C 
ENDBRANCH  16  19
ENDBRANCH   9  13
BRANCH   1  25
ATOM     25  O   UNL     1      -4.832  13.451  23.024  0.00  0.00    +0.000 OA
BRANCH  25  26
ATOM     26  S   UNL     1      -4.621  14.895  23.742  0.00  0.00    +0.000 S 
ATOM     27  O   UNL     1      -3.575  14.812  24.734  0.00  0.00    +0.000 OA
ATOM     28  O   UNL     1      -5.905  15.495  24.031  0.00  0.00    +0.000 OA
BRANCH  26  29
ATOM     29  N   UNL     1      -4.008  15.860  22.509  0.00  0.00    +0.000 NA
ATOM     30  H   UNL     1      -3.800  16.778  22.903  0.00  0.00    +0.000 HD
ATOM     31  H   UNL     1      -4.709  15.923  21.772  0.00  0.00    +0.000 HD
ENDBRANCH  26  29
ENDBRANCH  25  26
ENDBRANCH   1  25
TORSDOF 5
ENDMDL
MODEL 8
REMARK VINA RESULT:      -7.5      3.089     10.223
REMARK  Name = 
REMARK  5 active torsions:
REMARK  status: ('A' for Active; 'I' for Inactive)
REMARK    1  A    between atoms: N_1  and  S_2
REMARK    2  A    between atoms: S_2  and  O_5
REMARK    3  A    between atoms: O_5  and  C_6
REMARK    4  A    between atoms: C_14  and  C_16
REMARK    5  A    between atoms: C_19  and  N_20
REMARK                            x       y       z     vdW  Elec       q    Type
REMARK                         _______ _______ _______ _____ _____    ______ ____
ROOT
ATOM      1  C   UNL     1       2.760   6.280  18.323  0.00  0.00    +0.000 A 
ATOM      2  C   UNL     1       2.403   5.608  19.496  0.00  0.00    +0.000 A 
ATOM      3  C   UNL     1       1.822   6.302  20.559  0.00  0.00    +0.000 A 
ATOM      4  C   UNL     1       1.573   7.668  20.434  0.00  0.00    +0.000 A 
ATOM      5  C   UNL     1       1.894   8.343  19.244  0.00  0.00    +0.000 A 
ATOM      6  C   UNL     1       2.497   7.644  18.195  0.00  0.00    +0.000 A 
ATOM      7  C   UNL     1       1.603   9.822  19.136  0.00  0.00    +0.000 C 
ATOM      8  N   UNL     1       0.343  10.206  19.779  0.00  0.00    +0.000 N 
ATOM      9  C   UNL     1      -0.314  11.332  19.261  0.00  0.00    +0.000 C 
ATOM     10  O   UNL     1       0.180  11.992  18.339  0.00  0.00    +0.000 OA
ATOM     11  C   UNL     1      -0.102   9.406  20.925  0.00  0.00    +0.000 C 
ATOM     12  C   UNL     1       0.945   8.476  21.534  0.00  0.00    +0.000 C 
ENDROOT
BRANCH   9  13
ATOM     13  C   UNL     1      -1.609  11.827  19.824  0.00  0.00    +0.000 A 
ATOM     14  C   UNL     1      -1.625  12.251  21.158  0.00  0.00    +0.000 A 
ATOM     15  C   UNL     1      -2.814  12.694  21.759  0.00  0.00    +0.000 A 
ATOM     16  C   UNL     1      -4.029  12.707  21.062  0.00  0.00    +0.000 A 
ATOM     17  C   UNL     1      -3.989  12.317  19.722  0.00  0.00    +0.000 A 
ATOM     18  C   UNL     1      -2.794  11.935  19.101  0.00  0.00    +0.000 A 
BRANCH  16  19
ATOM     19  N   UNL     1      -5.214  13.111  21.640  0.00  0.00    +0.000 N 
ATOM     20  C   UNL     1      -6.487  13.047  20.915  0.00  0.00    +0.000 C 
ATOM     21  C   UNL     1      -7.498  12.168  21.665  0.00  0.00    +0.000 C 
ATOM     22  S   UNL     1      -7.849  12.766  23.356  0.00  0.00    +0.000 S 
ATOM     23  C   UNL     1      -6.121  12.881  23.938  0.00  0.00    +0.000 C 
ATOM     24  C   UNL     1      -5.248  13.702  22.986  0.00  0.00    +0.000 C 
ENDBRANCH  16  19
ENDBRANCH   9  13
BRANCH   1  25
ATOM     25  O   UNL     1       3.311   5.507  17.335  0.00  0.00    +0.000 OA
BRANCH  25  26
ATOM     26  S   UNL     1       4.917   5.482  17.077  0.00  0.00    +0.000 S 
ATOM     27  O   UNL     1       5.300   4.247  16.434  0.00  0.00    +0.000 OA
ATOM     28  O   UNL     1       5.611   5.988  18.240  0.00  0.00    +0.000 OA
BRANCH  26  29
ATOM     29  N   UNL     1       5.149   6.687  15.928  0.00  0.00    +0.000 NA
ATOM     30  H   UNL     1       4.235   6.947  15.556  0.00  0.00    +0.000 HD
ATOM     31  H   UNL     1       5.755   6.320  15.195  0.00  0.00    +0.000 HD
ENDBRANCH  26  29
ENDBRANCH  25  26
ENDBRANCH   1  25
TORSDOF 5
ENDMDL
MODEL 9
REMARK VINA RESULT:      -7.5      3.938     10.541
REMARK  Name = 
REMARK  5 active torsions:
REMARK  status: ('A' for Active; 'I' for Inactive)
REMARK    1  A    between atoms: N_1  and  S_2
REMARK    2  A    between atoms: S_2  and  O_5
REMARK    3  A    between atoms: O_5  and  C_6
REMARK    4  A    between atoms: C_14  and  C_16
REMARK    5  A    between atoms: C_19  and  N_20
REMARK                            x       y       z     vdW  Elec       q    Type
REMARK                         _______ _______ _______ _____ _____    ______ ____
ROOT
ATOM      1  C   UNL     1       4.433   4.598  17.346  0.00  0.00    +0.000 A 
ATOM      2  C   UNL     1       3.776   3.859  18.334  0.00  0.00    +0.000 A 
ATOM      3  C   UNL     1       3.007   4.504  19.304  0.00  0.00    +0.000 A 
ATOM      4  C   UNL     1       2.875   5.891  19.267  0.00  0.00    +0.000 A 
ATOM      5  C   UNL     1       3.502   6.637  18.256  0.00  0.00    +0.000 A 
ATOM      6  C   UNL     1       4.289   5.984  17.302  0.00  0.00    +0.000 A 
ATOM      7  C   UNL     1       3.333   8.139  18.237  0.00  0.00    +0.000 C 
ATOM      8  N   UNL     1       1.983   8.567  18.616  0.00  0.00    +0.000 N 
ATOM      9  C   UNL     1       1.532   9.784  18.082  0.00  0.00    +0.000 C 
ATOM     10  O   UNL     1       2.264  10.478  17.367  0.00  0.00    +0.000 OA
ATOM     11  C   UNL     1       1.238   7.710  19.545  0.00  0.00    +0.000 C 
ATOM     12  C   UNL     1       2.059   6.650  20.275  0.00  0.00    +0.000 C 
ENDROOT
BRANCH   9  13
ATOM     13  C   UNL     1       0.173  10.332  18.387  0.00  0.00    +0.000 A 
ATOM     14  C   UNL     1      -0.897   9.915  17.587  0.00  0.00    +0.000 A 
ATOM     15  C   UNL     1      -2.191  10.418  17.797  0.00  0.00    +0.000 A 
ATOM     16  C   UNL     1      -2.459  11.368  18.790  0.00  0.00    +0.000 A 
ATOM     17  C   UNL     1      -1.388  11.745  19.604  0.00  0.00    +0.000 A 
ATOM     18  C   UNL     1      -0.110  11.199  19.439  0.00  0.00    +0.000 A 
BRANCH  16  19
ATOM     19  N   UNL     1      -3.716  11.896  18.995  0.00  0.00    +0.000 N 
ATOM     20  C   UNL     1      -4.826  11.624  18.076  0.00  0.00    +0.000 C 
ATOM     21  C   UNL     1      -5.998  10.965  18.816  0.00  0.00    +0.000 C 
ATOM     22  S   UNL     1      -6.645  11.989  20.185  0.00  0.00    +0.000 S 
ATOM     23  C   UNL     1      -5.059  12.277  21.046  0.00  0.00    +0.000 C 
ATOM     24  C   UNL     1      -3.985  12.824  20.102  0.00  0.00    +0.000 C 
ENDBRANCH  16  19
ENDBRANCH   9  13
BRANCH   1  25
ATOM     25  O   UNL     1       5.151   3.870  16.432  0.00  0.00    +0.000 OA
BRANCH  25  26
ATOM     26  S   UNL     1       6.280   4.570  15.494  0.00  0.00    +0.000 S 
ATOM     27  O   UNL     1       7.569   4.525  16.144  0.00  0.00    +0.000 OA
ATOM     28  O   UNL     1       5.756   5.788  14.916  0.00  0.00    +0.000 OA
BRANCH  26  29
ATOM     29  N   UNL     1       6.395   3.531  14.177  0.00  0.00    +0.000 NA
ATOM     30  H   UNL     1       6.010   4.011  13.363  0.00  0.00    +0.000 HD
ATOM     31  H   UNL     1       5.870   2.683  14.390  0.00  0.00    +0.000 HD
ENDBRANCH  26  29
ENDBRANCH  25  26
ENDBRANCH   1  25
TORSDOF 5
ENDMDL
