MODEL 1
REMARK VINA RESULT:      -8.2      0.000      0.000
REMARK  Name = 
REMARK  9 active torsions:
REMARK  status: ('A' for Active; 'I' for Inactive)
REMARK    1  A    between atoms: C_1  and  C_2
REMARK    2  A    between atoms: C_2  and  C_3
REMARK    3  A    between atoms: C_3  and  C_4
REMARK    4  A    between atoms: C_4  and  C_5
REMARK    5  A    between atoms: C_5  and  C_6
REMARK    6  A    between atoms: C_6  and  N_7
REMARK    7  A    between atoms: C_10  and  N_11
REMARK    8  A    between atoms: N_11  and  C_12
REMARK    9  A    between atoms: C_12  and  C_13
REMARK                            x       y       z     vdW  Elec       q    Type
REMARK                         _______ _______ _______ _____ _____    ______ ____
ROOT
ATOM      1  N   UNL     1       4.618   3.835  16.983  0.00  0.00    +0.000 NA
ATOM      2  H   UNL     1       4.893   4.277  17.858  0.00  0.00    +0.000 HD
ENDROOT
BRANCH   1   6
ATOM      3  N   UNL     1       7.242   6.365  16.995  0.00  0.00    +0.000 NA
ATOM      4  C   UNL     1       7.460   4.920  17.159  0.00  0.00    +0.000 C 
ATOM      5  C   UNL     1       6.839   4.127  16.008  0.00  0.00    +0.000 C 
ATOM      6  C   UNL     1       5.342   4.423  15.847  0.00  0.00    +0.000 C 
ATOM      7  C   UNL     1       5.183   5.944  15.701  0.00  0.00    +0.000 C 
ATOM      8  C   UNL     1       5.820   6.698  16.867  0.00  0.00    +0.000 C 
BRANCH   3   9
ATOM      9  C   UNL     1       7.862   7.150  18.073  0.00  0.00    +0.000 C 
BRANCH   9  10
ATOM     10  C   UNL     1       8.006   8.638  17.726  0.00  0.00    +0.000 C 
BRANCH  10  11
ATOM     11  C   UNL     1       8.853   9.391  18.755  0.00  0.00    +0.000 C 
BRANCH  11  12
ATOM     12  C   UNL     1       9.171  10.805  18.285  0.00  0.00    +0.000 C 
BRANCH  12  14
ATOM     13  C   UNL     1      11.462  11.810  18.068  0.00  0.00    +0.000 C 
ATOM     14  C   UNL     1      10.378  11.366  19.034  0.00  0.00    +0.000 C 
ENDBRANCH  12  14
ENDBRANCH  11  12
ENDBRANCH  10  11
ENDBRANCH   9  10
ENDBRANCH   3   9
ENDBRANCH   1   6
BRANCH   1  15
ATOM     15  C   UNL     1       3.164   3.897  16.863  0.00  0.00    +0.000 C 
BRANCH  15  16
ATOM     16  C   UNL     1       2.532   4.002  18.236  0.00  0.00    +0.000 A 
ATOM     17  C   UNL     1       2.247   2.799  18.909  0.00  0.00    +0.000 A 
ATOM     18  C   UNL     1       1.690   2.813  20.180  0.00  0.00    +0.000 A 
ATOM     19  C   UNL     1       1.428   4.028  20.810  0.00  0.00    +0.000 A 
ATOM     20  C   UNL     1       1.726   5.245  20.183  0.00  0.00    +0.000 A 
ATOM     21  C   UNL     1       1.483   6.455  20.852  0.00  0.00    +0.000 A 
ATOM     22  C   UNL     1       1.776   7.682  20.258  0.00  0.00    +0.000 A 
ATOM     23  C   UNL     1       2.311   7.712  18.978  0.00  0.00    +0.000 A 
ATOM     24  C   UNL     1       2.556   6.514  18.300  0.00  0.00    +0.000 A 
ATOM     25  C   UNL     1       2.280   5.251  18.877  0.00  0.00    +0.000 A 
ENDBRANCH  15  16
ENDBRANCH   1  15
TORSDOF 8
ENDMDL
MODEL 2
REMARK VINA RESULT:      -7.7      2.737      6.100
REMARK  Name = 
REMARK  9 active torsions:
REMARK  status: ('A' for Active; 'I' for Inactive)
REMARK    1  A    between atoms: C_1  and  C_2
REMARK    2  A    between atoms: C_2  and  C_3
REMARK    3  A    between atoms: C_3  and  C_4
REMARK    4  A    between atoms: C_4  and  C_5
REMARK    5  A    between atoms: C_5  and  C_6
REMARK    6  A    between atoms: C_6  and  N_7
REMARK    7  A    between atoms: C_10  and  N_11
REMARK    8  A    between atoms: N_11  and  C_12
REMARK    9  A    between atoms: C_12  and  C_13
REMARK                            x       y       z     vdW  Elec       q    Type
REMARK                         _______ _______ _______ _____ _____    ______ ____
ROOT
ATOM      1  N   UNL     1       5.117   6.103  18.073  0.00  0.00    +0.000 NA
ATOM      2  H   UNL     1       5.519   6.085  19.008  0.00  0.00    +0.000 HD
ENDROOT
BRANCH   1   6
ATOM      3  N   UNL     1       6.344   4.860  14.874  0.00  0.00    +0.000 NA
ATOM      4  C   UNL     1       5.080   5.586  15.070  0.00  0.00    +0.000 C 
ATOM      5  C   UNL     1       5.306   6.922  15.779  0.00  0.00    +0.000 C 
ATOM      6  C   UNL     1       6.032   6.747  17.120  0.00  0.00    +0.000 C 
ATOM      7  C   UNL     1       7.328   5.968  16.848  0.00  0.00    +0.000 C 
ATOM      8  C   UNL     1       7.059   4.643  16.135  0.00  0.00    +0.000 C 
BRANCH   3   9
ATOM      9  C   UNL     1       6.154   3.588  14.161  0.00  0.00    +0.000 C 
BRANCH   9  10
ATOM     10  C   UNL     1       6.539   3.667  12.678  0.00  0.00    +0.000 C 
BRANCH  10  11
ATOM     11  C   UNL     1       5.566   2.888  11.788  0.00  0.00    +0.000 C 
BRANCH  11  12
ATOM     12  C   UNL     1       4.237   3.620  11.645  0.00  0.00    +0.000 C 
BRANCH  12  14
ATOM     13  C   UNL     1       2.863   4.141   9.608  0.00  0.00    +0.000 C 
ATOM     14  C   UNL     1       3.421   3.040  10.491  0.00  0.00    +0.000 C 
ENDBRANCH  12  14
ENDBRANCH  11  12
ENDBRANCH  10  11
ENDBRANCH   9  10
ENDBRANCH   3   9
ENDBRANCH   1   6
BRANCH   1  15
ATOM     15  C   UNL     1       3.795   6.719  18.142  0.00  0.00    +0.000 C 
BRANCH  15  16
ATOM     16  C   UNL     1       2.869   5.869  18.989  0.00  0.00    +0.000 A 
ATOM     17  C   UNL     1       2.239   6.494  20.082  0.00  0.00    +0.000 A 
ATOM     18  C   UNL     1       1.358   5.789  20.890  0.00  0.00    +0.000 A 
ATOM     19  C   UNL     1       1.076   4.453  20.610  0.00  0.00    +0.000 A 
ATOM     20  C   UNL     1       1.662   3.807  19.513  0.00  0.00    +0.000 A 
ATOM     21  C   UNL     1       1.335   2.470  19.233  0.00  0.00    +0.000 A 
ATOM     22  C   UNL     1       1.896   1.802  18.145  0.00  0.00    +0.000 A 
ATOM     23  C   UNL     1       2.799   2.464  17.326  0.00  0.00    +0.000 A 
ATOM     24  C   UNL     1       3.134   3.795  17.596  0.00  0.00    +0.000 A 
ATOM     25  C   UNL     1       2.577   4.506  18.686  0.00  0.00    +0.000 A 
ENDBRANCH  15  16
ENDBRANCH   1  15
TORSDOF 8
ENDMDL
MODEL 3
REMARK VINA RESULT:      -7.3      3.236      5.682
REMARK  Name = 
REMARK  9 active torsions:
REMARK  status: ('A' for Active; 'I' for Inactive)
REMARK    1  A    between atoms: C_1  and  C_2
REMARK    2  A    between atoms: C_2  and  C_3
REMARK    3  A    between atoms: C_3  and  C_4
REMARK    4  A    between atoms: C_4  and  C_5
REMARK    5  A    between atoms: C_5  and  C_6
REMARK    6  A    between atoms: C_6  and  N_7
REMARK    7  A    between atoms: C_10  and  N_11
REMARK    8  A    between atoms: N_11  and  C_12
REMARK    9  A    between atoms: C_12  and  C_13
REMARK                            x       y       z     vdW  Elec       q    Type
REMARK                         _______ _______ _______ _____ _____    ______ ____
ROOT
ATOM      1  N   UNL     1       2.421   5.290  21.163  0.00  0.00    +0.000 NA
ATOM      2  H   UNL     1       3.056   5.386  20.373  0.00  0.00    +0.000 HD
ENDROOT
BRANCH   1   6
ATOM      3  N   UNL     1       2.871   2.520  18.838  0.00  0.00    +0.000 NA
ATOM      4  C   UNL     1       3.714   2.781  20.014  0.00  0.00    +0.000 C 
ATOM      5  C   UNL     1       2.875   2.893  21.289  0.00  0.00    +0.000 C 
ATOM      6  C   UNL     1       1.785   3.965  21.168  0.00  0.00    +0.000 C 
ATOM      7  C   UNL     1       0.957   3.646  19.914  0.00  0.00    +0.000 C 
ATOM      8  C   UNL     1       1.830   3.538  18.665  0.00  0.00    +0.000 C 
BRANCH   3   9
ATOM      9  C   UNL     1       3.660   2.373  17.606  0.00  0.00    +0.000 C 
BRANCH   9  10
ATOM     10  C   UNL     1       3.760   3.672  16.797  0.00  0.00    +0.000 C 
BRANCH  10  11
ATOM     11  C   UNL     1       5.158   3.879  16.208  0.00  0.00    +0.000 C 
BRANCH  11  12
ATOM     12  C   UNL     1       5.565   5.347  16.247  0.00  0.00    +0.000 C 
BRANCH  12  14
ATOM     13  C   UNL     1       7.506   4.718  17.713  0.00  0.00    +0.000 C 
ATOM     14  C   UNL     1       6.331   5.662  17.531  0.00  0.00    +0.000 C 
ENDBRANCH  12  14
ENDBRANCH  11  12
ENDBRANCH  10  11
ENDBRANCH   9  10
ENDBRANCH   3   9
ENDBRANCH   1   6
BRANCH   1  15
ATOM     15  C   UNL     1       1.480   6.406  21.147  0.00  0.00    +0.000 C 
BRANCH  15  16
ATOM     16  C   UNL     1       1.799   7.340  19.997  0.00  0.00    +0.000 A 
ATOM     17  C   UNL     1       2.653   6.854  18.989  0.00  0.00    +0.000 A 
ATOM     18  C   UNL     1       2.973   7.640  17.891  0.00  0.00    +0.000 A 
ATOM     19  C   UNL     1       2.431   8.918  17.770  0.00  0.00    +0.000 A 
ATOM     20  C   UNL     1       1.554   9.424  18.740  0.00  0.00    +0.000 A 
ATOM     21  C   UNL     1       0.995  10.702  18.578  0.00  0.00    +0.000 A 
ATOM     22  C   UNL     1       0.114  11.231  19.521  0.00  0.00    +0.000 A 
ATOM     23  C   UNL     1      -0.212  10.486  20.645  0.00  0.00    +0.000 A 
ATOM     24  C   UNL     1       0.339   9.213  20.818  0.00  0.00    +0.000 A 
ATOM     25  C   UNL     1       1.228   8.642  19.877  0.00  0.00    +0.000 A 
ENDBRANCH  15  16
ENDBRANCH   1  15
TORSDOF 8
ENDMDL
MODEL 4
REMARK VINA RESULT:      -7.3      2.830      5.621
REMARK  Name = 
REMARK  9 active torsions:
REMARK  status: ('A' for Active; 'I' for Inactive)
REMARK    1  A    between atoms: C_1  and  C_2
REMARK    2  A    between atoms: C_2  and  C_3
REMARK    3  A    between atoms: C_3  and  C_4
REMARK    4  A    between atoms: C_4  and  C_5
REMARK    5  A    between atoms: C_5  and  C_6
REMARK    6  A    between atoms: C_6  and  N_7
REMARK    7  A    between atoms: C_10  and  N_11
REMARK    8  A    between atoms: N_11  and  C_12
REMARK    9  A    between atoms: C_12  and  C_13
REMARK                            x       y       z     vdW  Elec       q    Type
REMARK                         _______ _______ _______ _____ _____    ______ ____
ROOT
ATOM      1  N   UNL     1       4.962   5.182  18.190  0.00  0.00    +0.000 NA
ATOM      2  H   UNL     1       4.953   5.089  19.204  0.00  0.00    +0.000 HD
ENDROOT
BRANCH   1   6
ATOM      3  N   UNL     1       7.078   5.272  15.223  0.00  0.00    +0.000 NA
ATOM      4  C   UNL     1       5.683   5.736  15.282  0.00  0.00    +0.000 C 
ATOM      5  C   UNL     1       5.482   6.761  16.400  0.00  0.00    +0.000 C 
ATOM      6  C   UNL     1       5.918   6.216  17.766  0.00  0.00    +0.000 C 
ATOM      7  C   UNL     1       7.369   5.731  17.631  0.00  0.00    +0.000 C 
ATOM      8  C   UNL     1       7.529   4.714  16.502  0.00  0.00    +0.000 C 
BRANCH   3   9
ATOM      9  C   UNL     1       7.303   4.313  14.132  0.00  0.00    +0.000 C 
BRANCH   9  10
ATOM     10  C   UNL     1       6.008   3.891  13.426  0.00  0.00    +0.000 C 
BRANCH  10  11
ATOM     11  C   UNL     1       6.240   3.542  11.954  0.00  0.00    +0.000 C 
BRANCH  11  12
ATOM     12  C   UNL     1       5.182   2.574  11.438  0.00  0.00    +0.000 C 
BRANCH  12  14
ATOM     13  C   UNL     1       3.535   3.913  10.097  0.00  0.00    +0.000 C 
ATOM     14  C   UNL     1       3.805   3.233  11.427  0.00  0.00    +0.000 C 
ENDBRANCH  12  14
ENDBRANCH  11  12
ENDBRANCH  10  11
ENDBRANCH   9  10
ENDBRANCH   3   9
ENDBRANCH   1   6
BRANCH   1  15
ATOM     15  C   UNL     1       3.596   5.404  17.727  0.00  0.00    +0.000 C 
BRANCH  15  16
ATOM     16  C   UNL     1       2.763   6.014  18.837  0.00  0.00    +0.000 A 
ATOM     17  C   UNL     1       2.500   5.211  19.962  0.00  0.00    +0.000 A 
ATOM     18  C   UNL     1       1.765   5.706  21.030  0.00  0.00    +0.000 A 
ATOM     19  C   UNL     1       1.297   7.018  21.003  0.00  0.00    +0.000 A 
ATOM     20  C   UNL     1       1.565   7.856  19.912  0.00  0.00    +0.000 A 
ATOM     21  C   UNL     1       1.110   9.185  19.922  0.00  0.00    +0.000 A 
ATOM     22  C   UNL     1       1.366  10.046  18.856  0.00  0.00    +0.000 A 
ATOM     23  C   UNL     1       2.077   9.582  17.758  0.00  0.00    +0.000 A 
ATOM     24  C   UNL     1       2.533   8.260  17.734  0.00  0.00    +0.000 A 
ATOM     25  C   UNL     1       2.300   7.363  18.804  0.00  0.00    +0.000 A 
ENDBRANCH  15  16
ENDBRANCH   1  15
TORSDOF 8
ENDMDL
MODEL 5
REMARK VINA RESULT:      -7.3      2.766      5.747
REMARK  Name = 
REMARK  9 active torsions:
REMARK  status: ('A' for Active; 'I' for Inactive)
REMARK    1  A    between atoms: C_1  and  C_2
REMARK    2  A    between atoms: C_2  and  C_3
REMARK    3  A    between atoms: C_3  and  C_4
REMARK    4  A    between atoms: C_4  and  C_5
REMARK    5  A    between atoms: C_5  and  C_6
REMARK    6  A    between atoms: C_6  and  N_7
REMARK    7  A    between atoms: C_10  and  N_11
REMARK    8  A    between atoms: N_11  and  C_12
REMARK    9  A    between atoms: C_12  and  C_13
REMARK                            x       y       z     vdW  Elec       q    Type
REMARK                         _______ _______ _______ _____ _____    ______ ____
ROOT
ATOM      1  N   UNL     1       6.177   4.786  19.340  0.00  0.00    +0.000 NA
ATOM      2  H   UNL     1       6.265   4.630  20.342  0.00  0.00    +0.000 HD
ENDROOT
BRANCH   1   6
ATOM      3  N   UNL     1       6.993   5.571  15.875  0.00  0.00    +0.000 NA
ATOM      4  C   UNL     1       6.263   6.459  16.794  0.00  0.00    +0.000 C 
ATOM      5  C   UNL     1       7.048   6.694  18.086  0.00  0.00    +0.000 C 
ATOM      6  C   UNL     1       7.405   5.378  18.790  0.00  0.00    +0.000 C 
ATOM      7  C   UNL     1       8.144   4.494  17.774  0.00  0.00    +0.000 C 
ATOM      8  C   UNL     1       7.330   4.287  16.498  0.00  0.00    +0.000 C 
BRANCH   3   9
ATOM      9  C   UNL     1       6.274   5.361  14.611  0.00  0.00    +0.000 C 
BRANCH   9  10
ATOM     10  C   UNL     1       6.226   3.888  14.185  0.00  0.00    +0.000 C 
BRANCH  10  11
ATOM     11  C   UNL     1       6.498   3.711  12.688  0.00  0.00    +0.000 C 
BRANCH  11  12
ATOM     12  C   UNL     1       5.398   2.897  12.017  0.00  0.00    +0.000 C 
BRANCH  12  14
ATOM     13  C   UNL     1       3.319   3.016  10.613  0.00  0.00    +0.000 C 
ATOM     14  C   UNL     1       4.352   3.815  11.388  0.00  0.00    +0.000 C 
ENDBRANCH  12  14
ENDBRANCH  11  12
ENDBRANCH  10  11
ENDBRANCH   9  10
ENDBRANCH   3   9
ENDBRANCH   1   6
BRANCH   1  15
ATOM     15  C   UNL     1       4.971   5.571  19.092  0.00  0.00    +0.000 C 
BRANCH  15  16
ATOM     16  C   UNL     1       3.839   4.663  18.655  0.00  0.00    +0.000 A 
ATOM     17  C   UNL     1       3.735   4.377  17.281  0.00  0.00    +0.000 A 
ATOM     18  C   UNL     1       2.740   3.534  16.806  0.00  0.00    +0.000 A 
ATOM     19  C   UNL     1       1.844   2.946  17.696  0.00  0.00    +0.000 A 
ATOM     20  C   UNL     1       1.935   3.186  19.074  0.00  0.00    +0.000 A 
ATOM     21  C   UNL     1       1.040   2.555  19.954  0.00  0.00    +0.000 A 
ATOM     22  C   UNL     1       1.110   2.767  21.331  0.00  0.00    +0.000 A 
ATOM     23  C   UNL     1       2.075   3.622  21.844  0.00  0.00    +0.000 A 
ATOM     24  C   UNL     1       2.971   4.257  20.977  0.00  0.00    +0.000 A 
ATOM     25  C   UNL     1       2.935   4.057  19.577  0.00  0.00    +0.000 A 
ENDBRANCH  15  16
ENDBRANCH   1  15
TORSDOF 8
ENDMDL
MODEL 6
REMARK VINA RESULT:      -7.2      3.409      6.159
REMARK  Name = 
REMARK  9 active torsions:
REMARK  status: ('A' for Active; 'I' for Inactive)
REMARK    1  A    between atoms: C_1  and  C_2
REMARK    2  A    between atoms: C_2  and  C_3
REMARK    3  A    between atoms: C_3  and  C_4
REMARK    4  A    between atoms: C_4  and  C_5
REMARK    5  A    between atoms: C_5  and  C_6
REMARK    6  A    between atoms: C_6  and  N_7
REMARK    7  A    between atoms: C_10  and  N_11
REMARK    8  A    between atoms: N_11  and  C_12
REMARK    9  A    between atoms: C_12  and  C_13
REMARK                            x       y       z     vdW  Elec       q    Type
REMARK                         _______ _______ _______ _____ _____    ______ ____
ROOT
ATOM      1  N   UNL     1       2.618   5.314  19.073  0.00  0.00    +0.000 NA
ATOM      2  H   UNL     1       1.760   4.787  18.920  0.00  0.00    +0.000 HD
ENDROOT
BRANCH   1   6
ATOM      3  N   UNL     1       5.330   4.505  16.776  0.00  0.00    +0.000 NA
ATOM      4  C   UNL     1       5.312   5.657  17.692  0.00  0.00    +0.000 C 
ATOM      5  C   UNL     1       5.058   5.218  19.136  0.00  0.00    +0.000 C 
ATOM      6  C   UNL     1       3.761   4.411  19.272  0.00  0.00    +0.000 C 
ATOM      7  C   UNL     1       3.835   3.241  18.280  0.00  0.00    +0.000 C 
ATOM      8  C   UNL     1       4.094   3.720  16.852  0.00  0.00    +0.000 C 
BRANCH   3   9
ATOM      9  C   UNL     1       5.609   4.899  15.388  0.00  0.00    +0.000 C 
BRANCH   9  10
ATOM     10  C   UNL     1       6.320   3.804  14.584  0.00  0.00    +0.000 C 
BRANCH  10  11
ATOM     11  C   UNL     1       6.245   4.054  13.075  0.00  0.00    +0.000 C 
BRANCH  11  12
ATOM     12  C   UNL     1       5.221   3.141  12.411  0.00  0.00    +0.000 C 
BRANCH  12  14
ATOM     13  C   UNL     1       3.373   3.024  10.715  0.00  0.00    +0.000 C 
ATOM     14  C   UNL     1       4.503   3.868  11.276  0.00  0.00    +0.000 C 
ENDBRANCH  12  14
ENDBRANCH  11  12
ENDBRANCH  10  11
ENDBRANCH   9  10
ENDBRANCH   3   9
ENDBRANCH   1   6
BRANCH   1  15
ATOM     15  C   UNL     1       2.401   6.255  20.168  0.00  0.00    +0.000 C 
BRANCH  15  16
ATOM     16  C   UNL     1       1.994   7.608  19.619  0.00  0.00    +0.000 A 
ATOM     17  C   UNL     1       2.338   7.892  18.284  0.00  0.00    +0.000 A 
ATOM     18  C   UNL     1       1.980   9.099  17.701  0.00  0.00    +0.000 A 
ATOM     19  C   UNL     1       1.254  10.036  18.434  0.00  0.00    +0.000 A 
ATOM     20  C   UNL     1       0.869   9.775  19.756  0.00  0.00    +0.000 A 
ATOM     21  C   UNL     1       0.109  10.722  20.463  0.00  0.00    +0.000 A 
ATOM     22  C   UNL     1      -0.295  10.489  21.777  0.00  0.00    +0.000 A 
ATOM     23  C   UNL     1       0.064   9.304  22.404  0.00  0.00    +0.000 A 
ATOM     24  C   UNL     1       0.821   8.354  21.711  0.00  0.00    +0.000 A 
ATOM     25  C   UNL     1       1.240   8.554  20.374  0.00  0.00    +0.000 A 
ENDBRANCH  15  16
ENDBRANCH   1  15
TORSDOF 8
ENDMDL
MODEL 7
REMARK VINA RESULT:      -7.2      3.696      5.873
REMARK  Name = 
REMARK  9 active torsions:
REMARK  status: ('A' for Active; 'I' for Inactive)
REMARK    1  A    between atoms: C_1  and  C_2
REMARK    2  A    between atoms: C_2  and  C_3
REMARK    3  A    between atoms: C_3  and  C_4
REMARK    4  A    between atoms: C_4  and  C_5
REMARK    5  A    between atoms: C_5  and  C_6
REMARK    6  A    between atoms: C_6  and  N_7
REMARK    7  A    between atoms: C_10  and  N_11
REMARK    8  A    between atoms: N_11  and  C_12
REMARK    9  A    between atoms: C_12  and  C_13
REMARK                            x       y       z     vdW  Elec       q    Type
REMARK                         _______ _______ _______ _____ _____    ______ ____
ROOT
ATOM      1  N   UNL     1       2.713   5.725  20.395  0.00  0.00    +0.000 NA
ATOM      2  H   UNL     1       3.155   6.166  19.591  0.00  0.00    +0.000 HD
ENDROOT
BRANCH   1   6
ATOM      3  N   UNL     1       3.882   3.482  17.770  0.00  0.00    +0.000 NA
ATOM      4  C   UNL     1       4.479   3.600  19.109  0.00  0.00    +0.000 C 
ATOM      5  C   UNL     1       3.433   3.398  20.208  0.00  0.00    +0.000 C 
ATOM      6  C   UNL     1       2.254   4.368  20.065  0.00  0.00    +0.000 C 
ATOM      7  C   UNL     1       1.691   4.209  18.644  0.00  0.00    +0.000 C 
ATOM      8  C   UNL     1       2.766   4.414  17.578  0.00  0.00    +0.000 C 
BRANCH   3   9
ATOM      9  C   UNL     1       4.876   3.637  16.698  0.00  0.00    +0.000 C 
BRANCH   9  10
ATOM     10  C   UNL     1       5.265   5.100  16.447  0.00  0.00    +0.000 C 
BRANCH  10  11
ATOM     11  C   UNL     1       5.605   5.362  14.977  0.00  0.00    +0.000 C 
BRANCH  11  12
ATOM     12  C   UNL     1       6.555   4.304  14.429  0.00  0.00    +0.000 C 
BRANCH  12  14
ATOM     13  C   UNL     1       6.953   3.819  11.997  0.00  0.00    +0.000 C 
ATOM     14  C   UNL     1       5.988   3.672  13.160  0.00  0.00    +0.000 C 
ENDBRANCH  12  14
ENDBRANCH  11  12
ENDBRANCH  10  11
ENDBRANCH   9  10
ENDBRANCH   3   9
ENDBRANCH   1   6
BRANCH   1  15
ATOM     15  C   UNL     1       1.663   6.607  20.897  0.00  0.00    +0.000 C 
BRANCH  15  16
ATOM     16  C   UNL     1       1.605   7.872  20.065  0.00  0.00    +0.000 A 
ATOM     17  C   UNL     1       2.188   7.830  18.784  0.00  0.00    +0.000 A 
ATOM     18  C   UNL     1       2.154   8.940  17.953  0.00  0.00    +0.000 A 
ATOM     19  C   UNL     1       1.519  10.106  18.377  0.00  0.00    +0.000 A 
ATOM     20  C   UNL     1       0.902  10.175  19.633  0.00  0.00    +0.000 A 
ATOM     21  C   UNL     1       0.240  11.350  20.024  0.00  0.00    +0.000 A 
ATOM     22  C   UNL     1      -0.390  11.447  21.264  0.00  0.00    +0.000 A 
ATOM     23  C   UNL     1      -0.358  10.367  22.135  0.00  0.00    +0.000 A 
ATOM     24  C   UNL     1       0.300   9.192  21.758  0.00  0.00    +0.000 A 
ATOM     25  C   UNL     1       0.941   9.056  20.504  0.00  0.00    +0.000 A 
ENDBRANCH  15  16
ENDBRANCH   1  15
TORSDOF 8
ENDMDL
MODEL 8
REMARK VINA RESULT:      -7.1      3.397      6.300
REMARK  Name = 
REMARK  9 active torsions:
REMARK  status: ('A' for Active; 'I' for Inactive)
REMARK    1  A    between atoms: C_1  and  C_2
REMARK    2  A    between atoms: C_2  and  C_3
REMARK    3  A    between atoms: C_3  and  C_4
REMARK    4  A    between atoms: C_4  and  C_5
REMARK    5  A    between atoms: C_5  and  C_6
REMARK    6  A    between atoms: C_6  and  N_7
REMARK    7  A    between atoms: C_10  and  N_11
REMARK    8  A    between atoms: N_11  and  C_12
REMARK    9  A    between atoms: C_12  and  C_13
REMARK                            x       y       z     vdW  Elec       q    Type
REMARK                         _______ _______ _______ _____ _____    ______ ____
ROOT
ATOM      1  N   UNL     1       2.772   6.542  19.148  0.00  0.00    +0.000 NA
ATOM      2  H   UNL     1       2.171   6.661  18.335  0.00  0.00    +0.000 HD
ENDROOT
BRANCH   1   6
ATOM      3  N   UNL     1       5.255   4.611  17.306  0.00  0.00    +0.000 NA
ATOM      4  C   UNL     1       5.538   5.450  18.481  0.00  0.00    +0.000 C 
ATOM      5  C   UNL     1       4.650   5.068  19.667  0.00  0.00    +0.000 C 
ATOM      6  C   UNL     1       3.159   5.133  19.314  0.00  0.00    +0.000 C 
ATOM      7  C   UNL     1       2.936   4.256  18.073  0.00  0.00    +0.000 C 
ATOM      8  C   UNL     1       3.843   4.667  16.914  0.00  0.00    +0.000 C 
BRANCH   3   9
ATOM      9  C   UNL     1       6.122   4.937  16.164  0.00  0.00    +0.000 C 
BRANCH   9  10
ATOM     10  C   UNL     1       6.234   3.793  15.148  0.00  0.00    +0.000 C 
BRANCH  10  11
ATOM     11  C   UNL     1       5.559   4.135  13.818  0.00  0.00    +0.000 C 
BRANCH  11  12
ATOM     12  C   UNL     1       6.399   3.673  12.633  0.00  0.00    +0.000 C 
BRANCH  12  14
ATOM     13  C   UNL     1       4.234   3.218  11.445  0.00  0.00    +0.000 C 
ATOM     14  C   UNL     1       5.619   2.687  11.767  0.00  0.00    +0.000 C 
ENDBRANCH  12  14
ENDBRANCH  11  12
ENDBRANCH  10  11
ENDBRANCH   9  10
ENDBRANCH   3   9
ENDBRANCH   1   6
BRANCH   1  15
ATOM     15  C   UNL     1       2.108   7.121  20.312  0.00  0.00    +0.000 C 
BRANCH  15  16
ATOM     16  C   UNL     1       1.495   8.459  19.949  0.00  0.00    +0.000 A 
ATOM     17  C   UNL     1       1.642   8.897  18.620  0.00  0.00    +0.000 A 
ATOM     18  C   UNL     1       1.089  10.099  18.204  0.00  0.00    +0.000 A 
ATOM     19  C   UNL     1       0.360  10.876  19.103  0.00  0.00    +0.000 A 
ATOM     20  C   UNL     1       0.167  10.457  20.426  0.00  0.00    +0.000 A 
ATOM     21  C   UNL     1      -0.599  11.242  21.304  0.00  0.00    +0.000 A 
ATOM     22  C   UNL     1      -0.815  10.848  22.624  0.00  0.00    +0.000 A 
ATOM     23  C   UNL     1      -0.258   9.665  23.086  0.00  0.00    +0.000 A 
ATOM     24  C   UNL     1       0.509   8.875  22.222  0.00  0.00    +0.000 A 
ATOM     25  C   UNL     1       0.740   9.239  20.874  0.00  0.00    +0.000 A 
ENDBRANCH  15  16
ENDBRANCH   1  15
TORSDOF 8
ENDMDL
MODEL 9
REMARK VINA RESULT:      -7.1      2.445      5.180
REMARK  Name = 
REMARK  9 active torsions:
REMARK  status: ('A' for Active; 'I' for Inactive)
REMARK    1  A    between atoms: C_1  and  C_2
REMARK    2  A    between atoms: C_2  and  C_3
REMARK    3  A    between atoms: C_3  and  C_4
REMARK    4  A    between atoms: C_4  and  C_5
REMARK    5  A    between atoms: C_5  and  C_6
REMARK    6  A    between atoms: C_6  and  N_7
REMARK    7  A    between atoms: C_10  and  N_11
REMARK    8  A    between atoms: N_11  and  C_12
REMARK    9  A    between atoms: C_12  and  C_13
REMARK                            x       y       z     vdW  Elec       q    Type
REMARK                         _______ _______ _______ _____ _____    ______ ____
ROOT
ATOM      1  N   UNL     1       2.573   6.210  20.151  0.00  0.00    +0.000 NA
ATOM      2  H   UNL     1       2.712   6.728  19.286  0.00  0.00    +0.000 HD
ENDROOT
BRANCH   1   6
ATOM      3  N   UNL     1       4.092   3.838  17.838  0.00  0.00    +0.000 NA
ATOM      4  C   UNL     1       4.536   4.073  19.221  0.00  0.00    +0.000 C 
ATOM      5  C   UNL     1       3.384   3.906  20.214  0.00  0.00    +0.000 C 
ATOM      6  C   UNL     1       2.196   4.816  19.875  0.00  0.00    +0.000 C 
ATOM      7  C   UNL     1       1.797   4.536  18.418  0.00  0.00    +0.000 C 
ATOM      8  C   UNL     1       2.975   4.709  17.460  0.00  0.00    +0.000 C 
BRANCH   3   9
ATOM      9  C   UNL     1       5.192   3.957  16.870  0.00  0.00    +0.000 C 
BRANCH   9  10
ATOM     10  C   UNL     1       5.069   5.193  15.970  0.00  0.00    +0.000 C 
BRANCH  10  11
ATOM     11  C   UNL     1       5.916   6.363  16.478  0.00  0.00    +0.000 C 
BRANCH  11  12
ATOM     12  C   UNL     1       7.242   5.880  17.055  0.00  0.00    +0.000 C 
BRANCH  12  14
ATOM     13  C   UNL     1       7.869   8.223  17.706  0.00  0.00    +0.000 C 
ATOM     14  C   UNL     1       7.704   6.793  18.189  0.00  0.00    +0.000 C 
ENDBRANCH  12  14
ENDBRANCH  11  12
ENDBRANCH  10  11
ENDBRANCH   9  10
ENDBRANCH   3   9
ENDBRANCH   1   6
BRANCH   1  15
ATOM     15  C   UNL     1       1.617   6.934  20.984  0.00  0.00    +0.000 C 
BRANCH  15  16
ATOM     16  C   UNL     1       1.330   8.296  20.382  0.00  0.00    +0.000 A 
ATOM     17  C   UNL     1       1.764   8.522  19.062  0.00  0.00    +0.000 A 
ATOM     18  C   UNL     1       1.517   9.735  18.434  0.00  0.00    +0.000 A 
ATOM     19  C   UNL     1       0.815  10.735  19.104  0.00  0.00    +0.000 A 
ATOM     20  C   UNL     1       0.343  10.534  20.408  0.00  0.00    +0.000 A 
ATOM     21  C   UNL     1      -0.390  11.545  21.051  0.00  0.00    +0.000 A 
ATOM     22  C   UNL     1      -0.880  11.373  22.345  0.00  0.00    +0.000 A 
ATOM     23  C   UNL     1      -0.633  10.184  23.017  0.00  0.00    +0.000 A 
ATOM     24  C   UNL     1       0.097   9.170  22.389  0.00  0.00    +0.000 A 
ATOM     25  C   UNL     1       0.600   9.308  21.073  0.00  0.00    +0.000 A 
ENDBRANCH  15  16
ENDBRANCH   1  15
TORSDOF 8
ENDMDL
