MODEL 1
REMARK VINA RESULT:      -8.8      0.000      0.000
REMARK  Name = 
REMARK  3 active torsions:
REMARK  status: ('A' for Active; 'I' for Inactive)
REMARK    1  A    between atoms: C_5  and  C_6
REMARK    2  A    between atoms: N_13  and  C_14
REMARK    3  A    between atoms: C_18  and  C_19
REMARK                            x       y       z     vdW  Elec       q    Type
REMARK                         _______ _______ _______ _____ _____    ______ ____
ROOT
ATOM      1  C   UNL     1      -1.194  11.588  22.262  0.00  0.00    +0.000 A 
ATOM      2  C   UNL     1      -1.368  11.536  20.890  0.00  0.00    +0.000 A 
ATOM      3  C   UNL     1      -0.505  10.745  20.135  0.00  0.00    +0.000 A 
ATOM      4  C   UNL     1       0.489  10.004  20.758  0.00  0.00    +0.000 A 
ATOM      5  N   UNL     1       1.206   9.079  20.036  0.00  0.00    +0.000 N 
ATOM      6  C   UNL     1       1.803   7.944  20.747  0.00  0.00    +0.000 C 
ATOM      7  C   UNL     1       1.732   6.708  19.821  0.00  0.00    +0.000 C 
ATOM      8  N   UNL     1       2.381   7.001  18.525  0.00  0.00    +0.000 N 
ATOM      9  C   UNL     1       1.899   8.219  17.839  0.00  0.00    +0.000 C 
ATOM     10  C   UNL     1       1.909   9.437  18.796  0.00  0.00    +0.000 C 
ATOM     11  N   UNL     1       0.627  10.095  22.099  0.00  0.00    +0.000 NA
ATOM     12  N   UNL     1      -0.203  10.899  22.857  0.00  0.00    +0.000 NA
ENDROOT
BRANCH   1  17
ATOM     13  N   UNL     1      -4.937  12.577  25.014  0.00  0.00    +0.000 N 
ATOM     14  C   UNL     1      -3.799  12.894  24.393  0.00  0.00    +0.000 A 
ATOM     15  N   UNL     1      -3.207  14.079  24.477  0.00  0.00    +0.000 NA
ATOM     16  S   UNL     1      -1.822  13.984  23.550  0.00  0.00    +0.000 S 
ATOM     17  C   UNL     1      -2.107  12.345  23.113  0.00  0.00    +0.000 A 
ATOM     18  N   UNL     1      -3.222  11.886  23.656  0.00  0.00    +0.000 NA
ATOM     19  H   UNL     1      -5.221  13.176  25.780  0.00  0.00    +0.000 HD
ATOM     20  H   UNL     1      -5.133  11.595  25.148  0.00  0.00    +0.000 HD
ENDBRANCH   1  17
BRANCH   8  21
ATOM     21  C   UNL     1       3.318   6.141  17.988  0.00  0.00    +0.000 A 
ATOM     22  C   UNL     1       3.009   4.805  17.694  0.00  0.00    +0.000 A 
ATOM     23  C   UNL     1       3.970   3.903  17.232  0.00  0.00    +0.000 A 
ATOM     24  C   UNL     1       5.281   4.326  17.040  0.00  0.00    +0.000 A 
ATOM     25  C   UNL     1       5.628   5.656  17.296  0.00  0.00    +0.000 A 
ATOM     26  C   UNL     1       4.639   6.547  17.757  0.00  0.00    +0.000 A 
BRANCH  25  27
ATOM     27  C   UNL     1       7.039   6.148  17.111  0.00  0.00    +0.000 C 
ATOM     28  F   UNL     1       7.556   5.882  15.880  0.00  0.00    +0.000 F 
ATOM     29  F   UNL     1       7.148   7.496  17.280  0.00  0.00    +0.000 F 
ATOM     30  F   UNL     1       7.905   5.592  18.005  0.00  0.00    +0.000 F 
ENDBRANCH  25  27
ENDBRANCH   8  21
TORSDOF 3
ENDMDL
MODEL 2
REMARK VINA RESULT:      -8.5      1.144      1.452
REMARK  Name = 
REMARK  3 active torsions:
REMARK  status: ('A' for Active; 'I' for Inactive)
REMARK    1  A    between atoms: C_5  and  C_6
REMARK    2  A    between atoms: N_13  and  C_14
REMARK    3  A    between atoms: C_18  and  C_19
REMARK                            x       y       z     vdW  Elec       q    Type
REMARK                         _______ _______ _______ _____ _____    ______ ____
ROOT
ATOM      1  C   UNL     1      -1.482  11.732  22.164  0.00  0.00    +0.000 A 
ATOM      2  C   UNL     1      -1.601  11.529  20.801  0.00  0.00    +0.000 A 
ATOM      3  C   UNL     1      -0.668  10.717  20.160  0.00  0.00    +0.000 A 
ATOM      4  C   UNL     1       0.342  10.105  20.889  0.00  0.00    +0.000 A 
ATOM      5  N   UNL     1       1.137   9.154  20.290  0.00  0.00    +0.000 N 
ATOM      6  C   UNL     1       1.768   8.136  21.135  0.00  0.00    +0.000 C 
ATOM      7  C   UNL     1       1.801   6.809  20.341  0.00  0.00    +0.000 C 
ATOM      8  N   UNL     1       2.482   7.005  19.043  0.00  0.00    +0.000 N 
ATOM      9  C   UNL     1       1.958   8.116  18.218  0.00  0.00    +0.000 C 
ATOM     10  C   UNL     1       1.864   9.424  19.042  0.00  0.00    +0.000 C 
ATOM     11  N   UNL     1       0.425  10.341  22.216  0.00  0.00    +0.000 NA
ATOM     12  N   UNL     1      -0.477  11.167  22.859  0.00  0.00    +0.000 NA
ENDROOT
BRANCH   1  17
ATOM     13  N   UNL     1      -5.254  12.750  24.866  0.00  0.00    +0.000 N 
ATOM     14  C   UNL     1      -4.185  13.083  24.139  0.00  0.00    +0.000 A 
ATOM     15  N   UNL     1      -3.757  14.328  23.968  0.00  0.00    +0.000 NA
ATOM     16  S   UNL     1      -2.395  14.232  23.006  0.00  0.00    +0.000 S 
ATOM     17  C   UNL     1      -2.467  12.517  22.902  0.00  0.00    +0.000 A 
ATOM     18  N   UNL     1      -3.496  12.033  23.577  0.00  0.00    +0.000 NA
ATOM     19  H   UNL     1      -5.597  13.445  25.517  0.00  0.00    +0.000 HD
ATOM     20  H   UNL     1      -5.312  11.796  25.192  0.00  0.00    +0.000 HD
ENDBRANCH   1  17
BRANCH   8  21
ATOM     21  C   UNL     1       3.484   6.152  18.629  0.00  0.00    +0.000 A 
ATOM     22  C   UNL     1       4.133   5.288  19.524  0.00  0.00    +0.000 A 
ATOM     23  C   UNL     1       5.206   4.483  19.137  0.00  0.00    +0.000 A 
ATOM     24  C   UNL     1       5.656   4.516  17.821  0.00  0.00    +0.000 A 
ATOM     25  C   UNL     1       5.023   5.344  16.889  0.00  0.00    +0.000 A 
ATOM     26  C   UNL     1       3.939   6.142  17.305  0.00  0.00    +0.000 A 
BRANCH  25  27
ATOM     27  C   UNL     1       5.490   5.415  15.459  0.00  0.00    +0.000 C 
ATOM     28  F   UNL     1       5.127   6.563  14.821  0.00  0.00    +0.000 F 
ATOM     29  F   UNL     1       6.845   5.338  15.349  0.00  0.00    +0.000 F 
ATOM     30  F   UNL     1       4.997   4.396  14.700  0.00  0.00    +0.000 F 
ENDBRANCH  25  27
ENDBRANCH   8  21
TORSDOF 3
ENDMDL
MODEL 3
REMARK VINA RESULT:      -8.4      2.002      2.482
REMARK  Name = 
REMARK  3 active torsions:
REMARK  status: ('A' for Active; 'I' for Inactive)
REMARK    1  A    between atoms: C_5  and  C_6
REMARK    2  A    between atoms: N_13  and  C_14
REMARK    3  A    between atoms: C_18  and  C_19
REMARK                            x       y       z     vdW  Elec       q    Type
REMARK                         _______ _______ _______ _____ _____    ______ ____
ROOT
ATOM      1  C   UNL     1      -1.224  11.631  22.338  0.00  0.00    +0.000 A 
ATOM      2  C   UNL     1      -1.344  11.616  20.960  0.00  0.00    +0.000 A 
ATOM      3  C   UNL     1      -0.493  10.796  20.222  0.00  0.00    +0.000 A 
ATOM      4  C   UNL     1       0.435   9.992  20.868  0.00  0.00    +0.000 A 
ATOM      5  N   UNL     1       1.133   9.045  20.154  0.00  0.00    +0.000 N 
ATOM      6  C   UNL     1       1.641   7.866  20.863  0.00  0.00    +0.000 C 
ATOM      7  C   UNL     1       1.544   6.655  19.908  0.00  0.00    +0.000 C 
ATOM      8  N   UNL     1       2.260   6.939  18.646  0.00  0.00    +0.000 N 
ATOM      9  C   UNL     1       1.870   8.194  17.968  0.00  0.00    +0.000 C 
ATOM     10  C   UNL     1       1.903   9.391  18.951  0.00  0.00    +0.000 C 
ATOM     11  N   UNL     1       0.523  10.048  22.215  0.00  0.00    +0.000 NA
ATOM     12  N   UNL     1      -0.295  10.879  22.957  0.00  0.00    +0.000 NA
ENDROOT
BRANCH   1  17
ATOM     13  N   UNL     1      -4.979  12.733  25.031  0.00  0.00    +0.000 N 
ATOM     14  C   UNL     1      -3.826  13.018  24.421  0.00  0.00    +0.000 A 
ATOM     15  N   UNL     1      -3.210  14.191  24.499  0.00  0.00    +0.000 NA
ATOM     16  S   UNL     1      -1.816  14.055  23.590  0.00  0.00    +0.000 S 
ATOM     17  C   UNL     1      -2.131  12.418  23.169  0.00  0.00    +0.000 A 
ATOM     18  N   UNL     1      -3.262  11.989  23.703  0.00  0.00    +0.000 NA
ATOM     19  H   UNL     1      -5.259  13.347  25.786  0.00  0.00    +0.000 HD
ATOM     20  H   UNL     1      -5.198  11.757  25.174  0.00  0.00    +0.000 HD
ENDBRANCH   1  17
BRANCH   8  21
ATOM     21  C   UNL     1       3.173   6.042  18.128  0.00  0.00    +0.000 A 
ATOM     22  C   UNL     1       4.287   6.469  17.390  0.00  0.00    +0.000 A 
ATOM     23  C   UNL     1       5.170   5.569  16.788  0.00  0.00    +0.000 A 
ATOM     24  C   UNL     1       4.962   4.201  16.921  0.00  0.00    +0.000 A 
ATOM     25  C   UNL     1       3.878   3.731  17.670  0.00  0.00    +0.000 A 
ATOM     26  C   UNL     1       3.005   4.659  18.271  0.00  0.00    +0.000 A 
BRANCH  25  27
ATOM     27  C   UNL     1       3.613   2.257  17.826  0.00  0.00    +0.000 C 
ATOM     28  F   UNL     1       4.451   1.469  17.098  0.00  0.00    +0.000 F 
ATOM     29  F   UNL     1       3.736   1.840  19.117  0.00  0.00    +0.000 F 
ATOM     30  F   UNL     1       2.351   1.911  17.444  0.00  0.00    +0.000 F 
ENDBRANCH  25  27
ENDBRANCH   8  21
TORSDOF 3
ENDMDL
MODEL 4
REMARK VINA RESULT:      -8.0      1.384      1.613
REMARK  Name = 
REMARK  3 active torsions:
REMARK  status: ('A' for Active; 'I' for Inactive)
REMARK    1  A    between atoms: C_5  and  C_6
REMARK    2  A    between atoms: N_13  and  C_14
REMARK    3  A    between atoms: C_18  and  C_19
REMARK                            x       y       z     vdW  Elec       q    Type
REMARK                         _______ _______ _______ _____ _____    ______ ____
ROOT
ATOM      1  C   UNL     1      -1.483  12.197  21.658  0.00  0.00    +0.000 A 
ATOM      2  C   UNL     1      -1.621  11.871  20.321  0.00  0.00    +0.000 A 
ATOM      3  C   UNL     1      -0.705  10.994  19.745  0.00  0.00    +0.000 A 
ATOM      4  C   UNL     1       0.308  10.439  20.515  0.00  0.00    +0.000 A 
ATOM      5  N   UNL     1       1.085   9.429  19.996  0.00  0.00    +0.000 N 
ATOM      6  C   UNL     1       1.717   8.485  20.922  0.00  0.00    +0.000 C 
ATOM      7  C   UNL     1       1.727   7.091  20.253  0.00  0.00    +0.000 C 
ATOM      8  N   UNL     1       2.392   7.160  18.934  0.00  0.00    +0.000 N 
ATOM      9  C   UNL     1       1.869   8.197  18.017  0.00  0.00    +0.000 C 
ATOM     10  C   UNL     1       1.799   9.576  18.720  0.00  0.00    +0.000 C 
ATOM     11  N   UNL     1       0.411  10.794  21.814  0.00  0.00    +0.000 NA
ATOM     12  N   UNL     1      -0.474  11.686  22.390  0.00  0.00    +0.000 NA
ENDROOT
BRANCH   1  17
ATOM     13  N   UNL     1      -3.698  14.529  25.153  0.00  0.00    +0.000 N 
ATOM     14  C   UNL     1      -3.536  14.168  23.878  0.00  0.00    +0.000 A 
ATOM     15  N   UNL     1      -4.289  14.606  22.876  0.00  0.00    +0.000 NA
ATOM     16  S   UNL     1      -3.694  13.892  21.490  0.00  0.00    +0.000 S 
ATOM     17  C   UNL     1      -2.450  13.056  22.333  0.00  0.00    +0.000 A 
ATOM     18  N   UNL     1      -2.488  13.312  23.630  0.00  0.00    +0.000 NA
ATOM     19  H   UNL     1      -4.249  15.361  25.325  0.00  0.00    +0.000 HD
ATOM     20  H   UNL     1      -2.910  14.405  25.773  0.00  0.00    +0.000 HD
ENDBRANCH   1  17
BRANCH   8  21
ATOM     21  C   UNL     1       3.380   6.262  18.588  0.00  0.00    +0.000 A 
ATOM     22  C   UNL     1       3.941   5.384  19.528  0.00  0.00    +0.000 A 
ATOM     23  C   UNL     1       5.001   4.531  19.211  0.00  0.00    +0.000 A 
ATOM     24  C   UNL     1       5.525   4.528  17.923  0.00  0.00    +0.000 A 
ATOM     25  C   UNL     1       4.980   5.368  16.947  0.00  0.00    +0.000 A 
ATOM     26  C   UNL     1       3.908   6.215  17.291  0.00  0.00    +0.000 A 
BRANCH  25  27
ATOM     27  C   UNL     1       5.528   5.401  15.545  0.00  0.00    +0.000 C 
ATOM     28  F   UNL     1       5.166   4.328  14.789  0.00  0.00    +0.000 F 
ATOM     29  F   UNL     1       5.122   6.501  14.852  0.00  0.00    +0.000 F 
ATOM     30  F   UNL     1       6.891   5.429  15.520  0.00  0.00    +0.000 F 
ENDBRANCH  25  27
ENDBRANCH   8  21
TORSDOF 3
ENDMDL
MODEL 5
REMARK VINA RESULT:      -8.0      4.112      4.890
REMARK  Name = 
REMARK  3 active torsions:
REMARK  status: ('A' for Active; 'I' for Inactive)
REMARK    1  A    between atoms: C_5  and  C_6
REMARK    2  A    between atoms: N_13  and  C_14
REMARK    3  A    between atoms: C_18  and  C_19
REMARK                            x       y       z     vdW  Elec       q    Type
REMARK                         _______ _______ _______ _____ _____    ______ ____
ROOT
ATOM      1  C   UNL     1      -0.292  13.730  19.542  0.00  0.00    +0.000 A 
ATOM      2  C   UNL     1       0.374  13.152  20.607  0.00  0.00    +0.000 A 
ATOM      3  C   UNL     1       0.733  11.808  20.525  0.00  0.00    +0.000 A 
ATOM      4  C   UNL     1       0.448  11.079  19.379  0.00  0.00    +0.000 A 
ATOM      5  N   UNL     1       0.974   9.817  19.223  0.00  0.00    +0.000 N 
ATOM      6  C   UNL     1       1.169   9.301  17.865  0.00  0.00    +0.000 C 
ATOM      7  C   UNL     1       2.454   8.442  17.859  0.00  0.00    +0.000 C 
ATOM      8  N   UNL     1       2.366   7.382  18.886  0.00  0.00    +0.000 N 
ATOM      9  C   UNL     1       2.036   7.851  20.250  0.00  0.00    +0.000 C 
ATOM     10  C   UNL     1       0.787   8.768  20.235  0.00  0.00    +0.000 C 
ATOM     11  N   UNL     1      -0.214  11.683  18.368  0.00  0.00    +0.000 NA
ATOM     12  N   UNL     1      -0.601  13.007  18.449  0.00  0.00    +0.000 NA
ENDROOT
BRANCH   1  17
ATOM     13  N   UNL     1      -0.530  18.258  18.126  0.00  0.00    +0.000 N 
ATOM     14  C   UNL     1      -0.797  17.259  18.970  0.00  0.00    +0.000 A 
ATOM     15  N   UNL     1      -1.536  17.383  20.065  0.00  0.00    +0.000 NA
ATOM     16  S   UNL     1      -1.594  15.871  20.772  0.00  0.00    +0.000 S 
ATOM     17  C   UNL     1      -0.633  15.149  19.541  0.00  0.00    +0.000 A 
ATOM     18  N   UNL     1      -0.280  16.032  18.622  0.00  0.00    +0.000 NA
ATOM     19  H   UNL     1      -1.123  19.077  18.187  0.00  0.00    +0.000 HD
ATOM     20  H   UNL     1      -0.244  18.009  17.190  0.00  0.00    +0.000 HD
ENDBRANCH   1  17
BRANCH   8  21
ATOM     21  C   UNL     1       2.647   6.066  18.578  0.00  0.00    +0.000 A 
ATOM     22  C   UNL     1       3.657   5.722  17.667  0.00  0.00    +0.000 A 
ATOM     23  C   UNL     1       3.893   4.401  17.281  0.00  0.00    +0.000 A 
ATOM     24  C   UNL     1       3.119   3.376  17.814  0.00  0.00    +0.000 A 
ATOM     25  C   UNL     1       2.118   3.671  18.745  0.00  0.00    +0.000 A 
ATOM     26  C   UNL     1       1.904   5.011  19.121  0.00  0.00    +0.000 A 
BRANCH  25  27
ATOM     27  C   UNL     1       1.252   2.588  19.335  0.00  0.00    +0.000 C 
ATOM     28  F   UNL     1       0.775   2.883  20.575  0.00  0.00    +0.000 F 
ATOM     29  F   UNL     1       0.159   2.320  18.568  0.00  0.00    +0.000 F 
ATOM     30  F   UNL     1       1.915   1.404  19.463  0.00  0.00    +0.000 F 
ENDBRANCH  25  27
ENDBRANCH   8  21
TORSDOF 3
ENDMDL
MODEL 6
REMARK VINA RESULT:      -8.0      0.926      1.176
REMARK  Name = 
REMARK  3 active torsions:
REMARK  status: ('A' for Active; 'I' for Inactive)
REMARK    1  A    between atoms: C_5  and  C_6
REMARK    2  A    between atoms: N_13  and  C_14
REMARK    3  A    between atoms: C_18  and  C_19
REMARK                            x       y       z     vdW  Elec       q    Type
REMARK                         _______ _______ _______ _____ _____    ______ ____
ROOT
ATOM      1  C   UNL     1      -0.982  11.827  22.005  0.00  0.00    +0.000 A 
ATOM      2  C   UNL     1      -1.184  11.676  20.644  0.00  0.00    +0.000 A 
ATOM      3  C   UNL     1      -0.360  10.806  19.935  0.00  0.00    +0.000 A 
ATOM      4  C   UNL     1       0.626  10.086  20.595  0.00  0.00    +0.000 A 
ATOM      5  N   UNL     1       1.303   9.088  19.932  0.00  0.00    +0.000 N 
ATOM      6  C   UNL     1       1.882   7.993  20.716  0.00  0.00    +0.000 C 
ATOM      7  C   UNL     1       1.759   6.694  19.888  0.00  0.00    +0.000 C 
ATOM      8  N   UNL     1       2.389   6.868  18.562  0.00  0.00    +0.000 N 
ATOM      9  C   UNL     1       1.927   8.045  17.794  0.00  0.00    +0.000 C 
ATOM     10  C   UNL     1       1.989   9.332  18.656  0.00  0.00    +0.000 C 
ATOM     11  N   UNL     1       0.795  10.273  21.922  0.00  0.00    +0.000 NA
ATOM     12  N   UNL     1       0.002  11.156  22.632  0.00  0.00    +0.000 NA
ENDROOT
BRANCH   1  17
ATOM     13  N   UNL     1      -2.342  15.190  25.072  0.00  0.00    +0.000 N 
ATOM     14  C   UNL     1      -2.578  14.197  24.211  0.00  0.00    +0.000 A 
ATOM     15  N   UNL     1      -3.790  13.776  23.869  0.00  0.00    +0.000 NA
ATOM     16  S   UNL     1      -3.570  12.542  22.767  0.00  0.00    +0.000 S 
ATOM     17  C   UNL     1      -1.856  12.672  22.813  0.00  0.00    +0.000 A 
ATOM     18  N   UNL     1      -1.464  13.624  23.642  0.00  0.00    +0.000 NA
ATOM     19  H   UNL     1      -3.115  15.812  25.273  0.00  0.00    +0.000 HD
ATOM     20  H   UNL     1      -1.437  15.636  25.025  0.00  0.00    +0.000 HD
ENDBRANCH   1  17
BRANCH   8  21
ATOM     21  C   UNL     1       3.291   5.944  18.075  0.00  0.00    +0.000 A 
ATOM     22  C   UNL     1       2.880   4.681  17.624  0.00  0.00    +0.000 A 
ATOM     23  C   UNL     1       3.790   3.706  17.210  0.00  0.00    +0.000 A 
ATOM     24  C   UNL     1       5.153   3.980  17.228  0.00  0.00    +0.000 A 
ATOM     25  C   UNL     1       5.606   5.235  17.645  0.00  0.00    +0.000 A 
ATOM     26  C   UNL     1       4.667   6.203  18.053  0.00  0.00    +0.000 A 
BRANCH  25  27
ATOM     27  C   UNL     1       7.075   5.565  17.689  0.00  0.00    +0.000 C 
ATOM     28  F   UNL     1       7.883   4.505  17.408  0.00  0.00    +0.000 F 
ATOM     29  F   UNL     1       7.417   6.541  16.803  0.00  0.00    +0.000 F 
ATOM     30  F   UNL     1       7.470   6.019  18.912  0.00  0.00    +0.000 F 
ENDBRANCH  25  27
ENDBRANCH   8  21
TORSDOF 3
ENDMDL
MODEL 7
REMARK VINA RESULT:      -7.9      0.912      1.220
REMARK  Name = 
REMARK  3 active torsions:
REMARK  status: ('A' for Active; 'I' for Inactive)
REMARK    1  A    between atoms: C_5  and  C_6
REMARK    2  A    between atoms: N_13  and  C_14
REMARK    3  A    between atoms: C_18  and  C_19
REMARK                            x       y       z     vdW  Elec       q    Type
REMARK                         _______ _______ _______ _____ _____    ______ ____
ROOT
ATOM      1  C   UNL     1      -1.442  12.011  21.887  0.00  0.00    +0.000 A 
ATOM      2  C   UNL     1      -1.618  11.830  20.527  0.00  0.00    +0.000 A 
ATOM      3  C   UNL     1      -0.721  11.019  19.836  0.00  0.00    +0.000 A 
ATOM      4  C   UNL     1       0.311  10.385  20.514  0.00  0.00    +0.000 A 
ATOM      5  N   UNL     1       1.070   9.436  19.868  0.00  0.00    +0.000 N 
ATOM      6  C   UNL     1       1.725   8.399  20.671  0.00  0.00    +0.000 C 
ATOM      7  C   UNL     1       1.711   7.084  19.857  0.00  0.00    +0.000 C 
ATOM      8  N   UNL     1       2.340   7.294  18.535  0.00  0.00    +0.000 N 
ATOM      9  C   UNL     1       1.796   8.422  17.749  0.00  0.00    +0.000 C 
ATOM     10  C   UNL     1       1.749   9.719  18.596  0.00  0.00    +0.000 C 
ATOM     11  N   UNL     1       0.450  10.600  21.840  0.00  0.00    +0.000 NA
ATOM     12  N   UNL     1      -0.415  11.425  22.532  0.00  0.00    +0.000 NA
ENDROOT
BRANCH   1  17
ATOM     13  N   UNL     1      -3.136  14.782  25.354  0.00  0.00    +0.000 N 
ATOM     14  C   UNL     1      -3.259  14.067  24.233  0.00  0.00    +0.000 A 
ATOM     15  N   UNL     1      -4.384  13.958  23.537  0.00  0.00    +0.000 NA
ATOM     16  S   UNL     1      -4.036  12.985  22.226  0.00  0.00    +0.000 S 
ATOM     17  C   UNL     1      -2.388  12.793  22.677  0.00  0.00    +0.000 A 
ATOM     18  N   UNL     1      -2.112  13.449  23.792  0.00  0.00    +0.000 NA
ATOM     19  H   UNL     1      -3.855  15.470  25.537  0.00  0.00    +0.000 HD
ATOM     20  H   UNL     1      -2.203  15.059  25.625  0.00  0.00    +0.000 HD
ENDBRANCH   1  17
BRANCH   8  21
ATOM     21  C   UNL     1       3.316   6.438  18.067  0.00  0.00    +0.000 A 
ATOM     22  C   UNL     1       3.057   5.077  17.842  0.00  0.00    +0.000 A 
ATOM     23  C   UNL     1       4.057   4.183  17.452  0.00  0.00    +0.000 A 
ATOM     24  C   UNL     1       5.357   4.638  17.264  0.00  0.00    +0.000 A 
ATOM     25  C   UNL     1       5.655   5.991  17.452  0.00  0.00    +0.000 A 
ATOM     26  C   UNL     1       4.628   6.873  17.841  0.00  0.00    +0.000 A 
BRANCH  25  27
ATOM     27  C   UNL     1       7.054   6.519  17.269  0.00  0.00    +0.000 C 
ATOM     28  F   UNL     1       7.142   7.876  17.340  0.00  0.00    +0.000 F 
ATOM     29  F   UNL     1       7.919   6.039  18.206  0.00  0.00    +0.000 F 
ATOM     30  F   UNL     1       7.586   6.175  16.062  0.00  0.00    +0.000 F 
ENDBRANCH  25  27
ENDBRANCH   8  21
TORSDOF 3
ENDMDL
MODEL 8
REMARK VINA RESULT:      -7.8      2.056      2.532
REMARK  Name = 
REMARK  3 active torsions:
REMARK  status: ('A' for Active; 'I' for Inactive)
REMARK    1  A    between atoms: C_5  and  C_6
REMARK    2  A    between atoms: N_13  and  C_14
REMARK    3  A    between atoms: C_18  and  C_19
REMARK                            x       y       z     vdW  Elec       q    Type
REMARK                         _______ _______ _______ _____ _____    ______ ____
ROOT
ATOM      1  C   UNL     1      -1.645  12.358  22.295  0.00  0.00    +0.000 A 
ATOM      2  C   UNL     1      -1.797  12.248  20.924  0.00  0.00    +0.000 A 
ATOM      3  C   UNL     1      -0.908  11.445  20.213  0.00  0.00    +0.000 A 
ATOM      4  C   UNL     1       0.091  10.750  20.880  0.00  0.00    +0.000 A 
ATOM      5  N   UNL     1       0.838   9.812  20.205  0.00  0.00    +0.000 N 
ATOM      6  C   UNL     1       1.446   8.719  20.969  0.00  0.00    +0.000 C 
ATOM      7  C   UNL     1       1.414   7.446  20.092  0.00  0.00    +0.000 C 
ATOM      8  N   UNL     1       2.076   7.700  18.795  0.00  0.00    +0.000 N 
ATOM      9  C   UNL     1       1.580   8.880  18.053  0.00  0.00    +0.000 C 
ATOM     10  C   UNL     1       1.551  10.136  18.961  0.00  0.00    +0.000 C 
ATOM     11  N   UNL     1       0.208  10.897  22.217  0.00  0.00    +0.000 NA
ATOM     12  N   UNL     1      -0.649  11.713  22.931  0.00  0.00    +0.000 NA
ENDROOT
BRANCH   1  17
ATOM     13  N   UNL     1      -3.265  15.427  25.538  0.00  0.00    +0.000 N 
ATOM     14  C   UNL     1      -3.426  14.521  24.572  0.00  0.00    +0.000 A 
ATOM     15  N   UNL     1      -4.604  14.141  24.092  0.00  0.00    +0.000 NA
ATOM     16  S   UNL     1      -4.290  13.014  22.901  0.00  0.00    +0.000 S 
ATOM     17  C   UNL     1      -2.586  13.129  23.102  0.00  0.00    +0.000 A 
ATOM     18  N   UNL     1      -2.267  13.997  24.047  0.00  0.00    +0.000 NA
ATOM     19  H   UNL     1      -4.053  16.032  25.732  0.00  0.00    +0.000 HD
ATOM     20  H   UNL     1      -2.360  15.871  25.610  0.00  0.00    +0.000 HD
ENDBRANCH   1  17
BRANCH   8  21
ATOM     21  C   UNL     1       3.038   6.840  18.306  0.00  0.00    +0.000 A 
ATOM     22  C   UNL     1       4.013   7.267  17.393  0.00  0.00    +0.000 A 
ATOM     23  C   UNL     1       4.938   6.387  16.825  0.00  0.00    +0.000 A 
ATOM     24  C   UNL     1       4.915   5.041  17.172  0.00  0.00    +0.000 A 
ATOM     25  C   UNL     1       3.977   4.576  18.098  0.00  0.00    +0.000 A 
ATOM     26  C   UNL     1       3.058   5.485  18.660  0.00  0.00    +0.000 A 
BRANCH  25  27
ATOM     27  C   UNL     1       3.914   3.123  18.489  0.00  0.00    +0.000 C 
ATOM     28  F   UNL     1       4.150   2.267  17.458  0.00  0.00    +0.000 F 
ATOM     29  F   UNL     1       4.820   2.804  19.455  0.00  0.00    +0.000 F 
ATOM     30  F   UNL     1       2.697   2.772  18.993  0.00  0.00    +0.000 F 
ENDBRANCH  25  27
ENDBRANCH   8  21
TORSDOF 3
ENDMDL
MODEL 9
REMARK VINA RESULT:      -7.8      3.940      4.642
REMARK  Name = 
REMARK  3 active torsions:
REMARK  status: ('A' for Active; 'I' for Inactive)
REMARK    1  A    between atoms: C_5  and  C_6
REMARK    2  A    between atoms: N_13  and  C_14
REMARK    3  A    between atoms: C_18  and  C_19
REMARK                            x       y       z     vdW  Elec       q    Type
REMARK                         _______ _______ _______ _____ _____    ______ ____
ROOT
ATOM      1  C   UNL     1      -0.336  13.856  19.830  0.00  0.00    +0.000 A 
ATOM      2  C   UNL     1       0.309  13.235  20.884  0.00  0.00    +0.000 A 
ATOM      3  C   UNL     1       0.662  11.894  20.759  0.00  0.00    +0.000 A 
ATOM      4  C   UNL     1       0.392  11.208  19.583  0.00  0.00    +0.000 A 
ATOM      5  N   UNL     1       0.913   9.949  19.390  0.00  0.00    +0.000 N 
ATOM      6  C   UNL     1       1.128   9.482  18.018  0.00  0.00    +0.000 C 
ATOM      7  C   UNL     1       2.408   8.615  18.002  0.00  0.00    +0.000 C 
ATOM      8  N   UNL     1       2.297   7.519  18.988  0.00  0.00    +0.000 N 
ATOM      9  C   UNL     1       1.946   7.941  20.362  0.00  0.00    +0.000 C 
ATOM     10  C   UNL     1       0.703   8.866  20.360  0.00  0.00    +0.000 C 
ATOM     11  N   UNL     1      -0.250  11.853  18.584  0.00  0.00    +0.000 NA
ATOM     12  N   UNL     1      -0.631  13.175  18.706  0.00  0.00    +0.000 NA
ENDROOT
BRANCH   1  17
ATOM     13  N   UNL     1      -2.141  17.965  21.386  0.00  0.00    +0.000 N 
ATOM     14  C   UNL     1      -1.464  17.217  20.512  0.00  0.00    +0.000 A 
ATOM     15  N   UNL     1      -0.874  17.692  19.422  0.00  0.00    +0.000 NA
ATOM     16  S   UNL     1      -0.152  16.388  18.669  0.00  0.00    +0.000 S 
ATOM     17  C   UNL     1      -0.669  15.277  19.875  0.00  0.00    +0.000 A 
ATOM     18  N   UNL     1      -1.370  15.879  20.820  0.00  0.00    +0.000 NA
ATOM     19  H   UNL     1      -1.981  18.964  21.352  0.00  0.00    +0.000 HD
ATOM     20  H   UNL     1      -2.273  17.587  22.314  0.00  0.00    +0.000 HD
ENDBRANCH   1  17
BRANCH   8  21
ATOM     21  C   UNL     1       2.574   6.214  18.637  0.00  0.00    +0.000 A 
ATOM     22  C   UNL     1       3.557   5.900  17.687  0.00  0.00    +0.000 A 
ATOM     23  C   UNL     1       3.789   4.591  17.259  0.00  0.00    +0.000 A 
ATOM     24  C   UNL     1       3.038   3.547  17.788  0.00  0.00    +0.000 A 
ATOM     25  C   UNL     1       2.065   3.811  18.757  0.00  0.00    +0.000 A 
ATOM     26  C   UNL     1       1.855   5.140  19.175  0.00  0.00    +0.000 A 
BRANCH  25  27
ATOM     27  C   UNL     1       1.224   2.709  19.345  0.00  0.00    +0.000 C 
ATOM     28  F   UNL     1       1.928   1.584  19.648  0.00  0.00    +0.000 F 
ATOM     29  F   UNL     1       0.605   3.084  20.499  0.00  0.00    +0.000 F 
ATOM     30  F   UNL     1       0.228   2.309  18.504  0.00  0.00    +0.000 F 
ENDBRANCH  25  27
ENDBRANCH   8  21
TORSDOF 3
ENDMDL
