MODEL 1
REMARK VINA RESULT:      -7.0      0.000      0.000
REMARK  Name = 
REMARK  2 active torsions:
REMARK  status: ('A' for Active; 'I' for Inactive)
REMARK    1  A    between atoms: N_3  and  C_4
REMARK    2  A    between atoms: C_4  and  C_5
REMARK                            x       y       z     vdW  Elec       q    Type
REMARK                         _______ _______ _______ _____ _____    ______ ____
ROOT
ATOM      1  O   UNL     1       3.899   1.598  17.732  0.00  0.00    +0.000 OA
ATOM      2  C   UNL     1       3.425   2.716  17.741  0.00  0.00    +0.000 C 
ATOM      3  N   UNL     1       3.782   3.686  16.832  0.00  0.00    +0.000 N 
ATOM      4  N   UNL     1       2.457   3.151  18.650  0.00  0.00    +0.000 N 
ATOM      5  C   UNL     1       1.867   4.485  18.615  0.00  0.00    +0.000 C 
ATOM      6  C   UNL     1       2.399   5.384  19.724  0.00  0.00    +0.000 C 
ATOM      7  C   UNL     1       1.854   5.057  21.112  0.00  0.00    +0.000 C 
ATOM      8  C   UNL     1       2.015   3.601  21.555  0.00  0.00    +0.000 C 
ATOM      9  C   UNL     1       1.146   2.631  20.755  0.00  0.00    +0.000 C 
ATOM     10  C   UNL     1       1.794   2.135  19.460  0.00  0.00    +0.000 C 
ATOM     11  H   UNL     1       3.754   4.615  17.200  0.00  0.00    +0.000 HD
ENDROOT
BRANCH   3  12
ATOM     12  C   UNL     1       4.783   3.459  15.806  0.00  0.00    +0.000 C 
BRANCH  12  13
ATOM     13  C   UNL     1       5.455   4.772  15.354  0.00  0.00    +0.000 C 
ATOM     14  C   UNL     1       4.808   6.009  16.009  0.00  0.00    +0.000 C 
ATOM     15  C   UNL     1       5.286   6.275  17.437  0.00  0.00    +0.000 C 
ATOM     16  C   UNL     1       6.810   6.363  17.526  0.00  0.00    +0.000 C 
ATOM     17  C   UNL     1       7.431   5.066  16.990  0.00  0.00    +0.000 C 
ATOM     18  C   UNL     1       6.981   4.763  15.560  0.00  0.00    +0.000 C 
ATOM     19  O   UNL     1       7.275   7.471  16.752  0.00  0.00    +0.000 OA
ATOM     20  C   UNL     1       8.319   8.083  17.503  0.00  0.00    +0.000 C 
ATOM     21  C   UNL     1       8.324   7.419  18.857  0.00  0.00    +0.000 C 
ATOM     22  O   UNL     1       7.194   6.554  18.888  0.00  0.00    +0.000 OA
ENDBRANCH  12  13
ENDBRANCH   3  12
TORSDOF 2
ENDMDL
MODEL 2
REMARK VINA RESULT:      -6.8      4.915      6.897
REMARK  Name = 
REMARK  2 active torsions:
REMARK  status: ('A' for Active; 'I' for Inactive)
REMARK    1  A    between atoms: N_3  and  C_4
REMARK    2  A    between atoms: C_4  and  C_5
REMARK                            x       y       z     vdW  Elec       q    Type
REMARK                         _______ _______ _______ _____ _____    ______ ____
ROOT
ATOM      1  O   UNL     1       1.037   4.786  20.741  0.00  0.00    +0.000 OA
ATOM      2  C   UNL     1       2.026   5.339  20.306  0.00  0.00    +0.000 C 
ATOM      3  N   UNL     1       2.192   6.706  20.332  0.00  0.00    +0.000 N 
ATOM      4  N   UNL     1       3.118   4.669  19.747  0.00  0.00    +0.000 N 
ATOM      5  C   UNL     1       4.317   5.350  19.271  0.00  0.00    +0.000 C 
ATOM      6  C   UNL     1       4.385   5.410  17.750  0.00  0.00    +0.000 C 
ATOM      7  C   UNL     1       4.739   4.082  17.085  0.00  0.00    +0.000 C 
ATOM      8  C   UNL     1       3.857   2.895  17.479  0.00  0.00    +0.000 C 
ATOM      9  C   UNL     1       4.052   2.459  18.931  0.00  0.00    +0.000 C 
ATOM     10  C   UNL     1       3.184   3.224  19.934  0.00  0.00    +0.000 C 
ATOM     11  H   UNL     1       2.718   7.063  19.562  0.00  0.00    +0.000 HD
ENDROOT
BRANCH   3  12
ATOM     12  C   UNL     1       1.176   7.601  20.854  0.00  0.00    +0.000 C 
BRANCH  12  13
ATOM     13  C   UNL     1       1.492   9.078  20.542  0.00  0.00    +0.000 C 
ATOM     14  C   UNL     1       1.795   9.302  19.047  0.00  0.00    +0.000 C 
ATOM     15  C   UNL     1       0.545   9.400  18.170  0.00  0.00    +0.000 C 
ATOM     16  C   UNL     1      -0.431  10.461  18.679  0.00  0.00    +0.000 C 
ATOM     17  C   UNL     1      -0.822  10.146  20.129  0.00  0.00    +0.000 C 
ATOM     18  C   UNL     1       0.400  10.041  21.042  0.00  0.00    +0.000 C 
ATOM     19  O   UNL     1       0.183  11.751  18.619  0.00  0.00    +0.000 OA
ATOM     20  C   UNL     1      -0.817  12.658  18.168  0.00  0.00    +0.000 C 
ATOM     21  C   UNL     1      -2.007  11.824  17.762  0.00  0.00    +0.000 C 
ATOM     22  O   UNL     1      -1.597  10.464  17.855  0.00  0.00    +0.000 OA
ENDBRANCH  12  13
ENDBRANCH   3  12
TORSDOF 2
ENDMDL
MODEL 3
REMARK VINA RESULT:      -6.7      5.698      7.928
REMARK  Name = 
REMARK  2 active torsions:
REMARK  status: ('A' for Active; 'I' for Inactive)
REMARK    1  A    between atoms: N_3  and  C_4
REMARK    2  A    between atoms: C_4  and  C_5
REMARK                            x       y       z     vdW  Elec       q    Type
REMARK                         _______ _______ _______ _____ _____    ______ ____
ROOT
ATOM      1  O   UNL     1       2.616   7.605  18.895  0.00  0.00    +0.000 OA
ATOM      2  C   UNL     1       2.183   6.754  19.645  0.00  0.00    +0.000 C 
ATOM      3  N   UNL     1       1.570   7.053  20.841  0.00  0.00    +0.000 N 
ATOM      4  N   UNL     1       2.231   5.381  19.387  0.00  0.00    +0.000 N 
ATOM      5  C   UNL     1       1.664   4.378  20.281  0.00  0.00    +0.000 C 
ATOM      6  C   UNL     1       2.734   3.624  21.061  0.00  0.00    +0.000 C 
ATOM      7  C   UNL     1       3.515   2.608  20.233  0.00  0.00    +0.000 C 
ATOM      8  C   UNL     1       4.151   3.153  18.952  0.00  0.00    +0.000 C 
ATOM      9  C   UNL     1       3.122   3.540  17.891  0.00  0.00    +0.000 C 
ATOM     10  C   UNL     1       2.584   4.966  18.033  0.00  0.00    +0.000 C 
ATOM     11  H   UNL     1       1.716   6.367  21.552  0.00  0.00    +0.000 HD
ENDROOT
BRANCH   3  12
ATOM     12  C   UNL     1       1.424   8.416  21.319  0.00  0.00    +0.000 C 
BRANCH  12  13
ATOM     13  C   UNL     1       0.014   8.977  21.041  0.00  0.00    +0.000 C 
ATOM     14  C   UNL     1      -0.818   9.117  22.331  0.00  0.00    +0.000 C 
ATOM     15  C   UNL     1      -0.495  10.371  23.143  0.00  0.00    +0.000 C 
ATOM     16  C   UNL     1      -0.603  11.644  22.302  0.00  0.00    +0.000 C 
ATOM     17  C   UNL     1       0.333  11.539  21.091  0.00  0.00    +0.000 C 
ATOM     18  C   UNL     1       0.043  10.297  20.247  0.00  0.00    +0.000 C 
ATOM     19  O   UNL     1      -1.950  11.812  21.852  0.00  0.00    +0.000 OA
ATOM     20  C   UNL     1      -2.244  13.201  21.957  0.00  0.00    +0.000 C 
ATOM     21  C   UNL     1      -1.085  13.836  22.684  0.00  0.00    +0.000 C 
ATOM     22  O   UNL     1      -0.237  12.770  23.099  0.00  0.00    +0.000 OA
ENDBRANCH  12  13
ENDBRANCH   3  12
TORSDOF 2
ENDMDL
MODEL 4
REMARK VINA RESULT:      -6.6      1.833      3.244
REMARK  Name = 
REMARK  2 active torsions:
REMARK  status: ('A' for Active; 'I' for Inactive)
REMARK    1  A    between atoms: N_3  and  C_4
REMARK    2  A    between atoms: C_4  and  C_5
REMARK                            x       y       z     vdW  Elec       q    Type
REMARK                         _______ _______ _______ _____ _____    ______ ____
ROOT
ATOM      1  O   UNL     1       5.548   3.168  19.280  0.00  0.00    +0.000 OA
ATOM      2  C   UNL     1       4.709   4.039  19.182  0.00  0.00    +0.000 C 
ATOM      3  N   UNL     1       5.013   5.380  19.236  0.00  0.00    +0.000 N 
ATOM      4  N   UNL     1       3.346   3.797  18.986  0.00  0.00    +0.000 N 
ATOM      5  C   UNL     1       2.359   4.860  18.826  0.00  0.00    +0.000 C 
ATOM      6  C   UNL     1       1.498   5.045  20.069  0.00  0.00    +0.000 C 
ATOM      7  C   UNL     1       0.453   3.952  20.277  0.00  0.00    +0.000 C 
ATOM      8  C   UNL     1       0.991   2.519  20.275  0.00  0.00    +0.000 C 
ATOM      9  C   UNL     1       1.494   2.070  18.903  0.00  0.00    +0.000 C 
ATOM     10  C   UNL     1       2.952   2.441  18.620  0.00  0.00    +0.000 C 
ATOM     11  H   UNL     1       4.293   5.942  19.642  0.00  0.00    +0.000 HD
ENDROOT
BRANCH   3  12
ATOM     12  C   UNL     1       6.365   5.861  19.450  0.00  0.00    +0.000 C 
BRANCH  12  13
ATOM     13  C   UNL     1       6.999   6.398  18.150  0.00  0.00    +0.000 C 
ATOM     14  C   UNL     1       8.110   5.468  17.620  0.00  0.00    +0.000 C 
ATOM     15  C   UNL     1       7.586   4.257  16.847  0.00  0.00    +0.000 C 
ATOM     16  C   UNL     1       6.647   4.664  15.710  0.00  0.00    +0.000 C 
ATOM     17  C   UNL     1       5.477   5.478  16.278  0.00  0.00    +0.000 C 
ATOM     18  C   UNL     1       5.956   6.703  17.058  0.00  0.00    +0.000 C 
ATOM     19  O   UNL     1       7.360   5.453  14.754  0.00  0.00    +0.000 OA
ATOM     20  C   UNL     1       6.914   5.035  13.468  0.00  0.00    +0.000 C 
ATOM     21  C   UNL     1       6.052   3.817  13.683  0.00  0.00    +0.000 C 
ATOM     22  O   UNL     1       6.150   3.491  15.065  0.00  0.00    +0.000 OA
ENDBRANCH  12  13
ENDBRANCH   3  12
TORSDOF 2
ENDMDL
MODEL 5
REMARK VINA RESULT:      -6.6      5.369      7.705
REMARK  Name = 
REMARK  2 active torsions:
REMARK  status: ('A' for Active; 'I' for Inactive)
REMARK    1  A    between atoms: N_3  and  C_4
REMARK    2  A    between atoms: C_4  and  C_5
REMARK                            x       y       z     vdW  Elec       q    Type
REMARK                         _______ _______ _______ _____ _____    ______ ____
ROOT
ATOM      1  O   UNL     1       0.786   4.854  20.380  0.00  0.00    +0.000 OA
ATOM      2  C   UNL     1       1.825   5.453  20.194  0.00  0.00    +0.000 C 
ATOM      3  N   UNL     1       2.014   6.760  20.581  0.00  0.00    +0.000 N 
ATOM      4  N   UNL     1       2.954   4.896  19.586  0.00  0.00    +0.000 N 
ATOM      5  C   UNL     1       4.209   5.620  19.412  0.00  0.00    +0.000 C 
ATOM      6  C   UNL     1       4.432   6.056  17.969  0.00  0.00    +0.000 C 
ATOM      7  C   UNL     1       4.824   4.924  17.025  0.00  0.00    +0.000 C 
ATOM      8  C   UNL     1       3.884   3.716  17.021  0.00  0.00    +0.000 C 
ATOM      9  C   UNL     1       3.922   2.922  18.326  0.00  0.00    +0.000 C 
ATOM     10  C   UNL     1       2.972   3.449  19.405  0.00  0.00    +0.000 C 
ATOM     11  H   UNL     1       2.623   7.275  19.980  0.00  0.00    +0.000 HD
ENDROOT
BRANCH   3  12
ATOM     12  C   UNL     1       0.969   7.540  21.217  0.00  0.00    +0.000 C 
BRANCH  12  13
ATOM     13  C   UNL     1       1.421   8.988  21.501  0.00  0.00    +0.000 C 
ATOM     14  C   UNL     1       0.942   9.968  20.411  0.00  0.00    +0.000 C 
ATOM     15  C   UNL     1      -0.514  10.407  20.569  0.00  0.00    +0.000 C 
ATOM     16  C   UNL     1      -0.793  10.982  21.959  0.00  0.00    +0.000 C 
ATOM     17  C   UNL     1      -0.432   9.940  23.026  0.00  0.00    +0.000 C 
ATOM     18  C   UNL     1       1.019   9.474  22.906  0.00  0.00    +0.000 C 
ATOM     19  O   UNL     1      -0.011  12.162  22.159  0.00  0.00    +0.000 OA
ATOM     20  C   UNL     1      -0.846  13.094  22.837  0.00  0.00    +0.000 C 
ATOM     21  C   UNL     1      -2.233  12.500  22.855  0.00  0.00    +0.000 C 
ATOM     22  O   UNL     1      -2.176  11.319  22.062  0.00  0.00    +0.000 OA
ENDBRANCH  12  13
ENDBRANCH   3  12
TORSDOF 2
ENDMDL
MODEL 6
REMARK VINA RESULT:      -6.6      4.905      6.947
REMARK  Name = 
REMARK  2 active torsions:
REMARK  status: ('A' for Active; 'I' for Inactive)
REMARK    1  A    between atoms: N_3  and  C_4
REMARK    2  A    between atoms: C_4  and  C_5
REMARK                            x       y       z     vdW  Elec       q    Type
REMARK                         _______ _______ _______ _____ _____    ______ ____
ROOT
ATOM      1  O   UNL     1       2.782  10.545  17.537  0.00  0.00    +0.000 OA
ATOM      2  C   UNL     1       1.831  10.058  18.114  0.00  0.00    +0.000 C 
ATOM      3  N   UNL     1       1.620   8.700  18.193  0.00  0.00    +0.000 N 
ATOM      4  N   UNL     1       0.850  10.801  18.777  0.00  0.00    +0.000 N 
ATOM      5  C   UNL     1      -0.260  10.193  19.503  0.00  0.00    +0.000 C 
ATOM      6  C   UNL     1      -1.580  10.315  18.751  0.00  0.00    +0.000 C 
ATOM      7  C   UNL     1      -2.186  11.715  18.769  0.00  0.00    +0.000 C 
ATOM      8  C   UNL     1      -1.260  12.839  18.297  0.00  0.00    +0.000 C 
ATOM      9  C   UNL     1      -0.099  13.101  19.256  0.00  0.00    +0.000 C 
ATOM     10  C   UNL     1       1.125  12.214  19.012  0.00  0.00    +0.000 C 
ATOM     11  H   UNL     1       0.655   8.441  18.211  0.00  0.00    +0.000 HD
ENDROOT
BRANCH   3  12
ATOM     12  C   UNL     1       2.505   7.739  17.562  0.00  0.00    +0.000 C 
BRANCH  12  13
ATOM     13  C   UNL     1       3.330   6.946  18.598  0.00  0.00    +0.000 C 
ATOM     14  C   UNL     1       2.432   6.177  19.588  0.00  0.00    +0.000 C 
ATOM     15  C   UNL     1       1.888   4.859  19.035  0.00  0.00    +0.000 C 
ATOM     16  C   UNL     1       3.003   3.951  18.514  0.00  0.00    +0.000 C 
ATOM     17  C   UNL     1       3.805   4.690  17.435  0.00  0.00    +0.000 C 
ATOM     18  C   UNL     1       4.370   6.016  17.947  0.00  0.00    +0.000 C 
ATOM     19  O   UNL     1       3.872   3.588  19.590  0.00  0.00    +0.000 OA
ATOM     20  C   UNL     1       4.201   2.216  19.403  0.00  0.00    +0.000 C 
ATOM     21  C   UNL     1       3.329   1.710  18.281  0.00  0.00    +0.000 C 
ATOM     22  O   UNL     1       2.429   2.766  17.962  0.00  0.00    +0.000 OA
ENDBRANCH  12  13
ENDBRANCH   3  12
TORSDOF 2
ENDMDL
MODEL 7
REMARK VINA RESULT:      -6.6      4.173      5.687
REMARK  Name = 
REMARK  2 active torsions:
REMARK  status: ('A' for Active; 'I' for Inactive)
REMARK    1  A    between atoms: N_3  and  C_4
REMARK    2  A    between atoms: C_4  and  C_5
REMARK                            x       y       z     vdW  Elec       q    Type
REMARK                         _______ _______ _______ _____ _____    ______ ____
ROOT
ATOM      1  O   UNL     1       1.325   9.176  18.030  0.00  0.00    +0.000 OA
ATOM      2  C   UNL     1       1.488   8.856  19.189  0.00  0.00    +0.000 C 
ATOM      3  N   UNL     1       1.988   7.629  19.563  0.00  0.00    +0.000 N 
ATOM      4  N   UNL     1       1.210   9.686  20.279  0.00  0.00    +0.000 N 
ATOM      5  C   UNL     1       1.456   9.298  21.664  0.00  0.00    +0.000 C 
ATOM      6  C   UNL     1       0.170   8.958  22.408  0.00  0.00    +0.000 C 
ATOM      7  C   UNL     1      -0.680  10.170  22.780  0.00  0.00    +0.000 C 
ATOM      8  C   UNL     1      -1.030  11.107  21.622  0.00  0.00    +0.000 C 
ATOM      9  C   UNL     1       0.182  11.861  21.074  0.00  0.00    +0.000 C 
ATOM     10  C   UNL     1       0.960  11.096  20.000  0.00  0.00    +0.000 C 
ATOM     11  H   UNL     1       1.624   7.292  20.430  0.00  0.00    +0.000 HD
ENDROOT
BRANCH   3  12
ATOM     12  C   UNL     1       2.331   6.603  18.596  0.00  0.00    +0.000 C 
BRANCH  12  13
ATOM     13  C   UNL     1       3.780   6.104  18.773  0.00  0.00    +0.000 C 
ATOM     14  C   UNL     1       3.890   4.575  18.608  0.00  0.00    +0.000 C 
ATOM     15  C   UNL     1       3.924   4.111  17.151  0.00  0.00    +0.000 C 
ATOM     16  C   UNL     1       5.022   4.812  16.350  0.00  0.00    +0.000 C 
ATOM     17  C   UNL     1       4.818   6.331  16.419  0.00  0.00    +0.000 C 
ATOM     18  C   UNL     1       4.780   6.839  17.861  0.00  0.00    +0.000 C 
ATOM     19  O   UNL     1       6.303   4.476  16.891  0.00  0.00    +0.000 OA
ATOM     20  C   UNL     1       7.175   4.283  15.783  0.00  0.00    +0.000 C 
ATOM     21  C   UNL     1       6.316   4.315  14.544  0.00  0.00    +0.000 C 
ATOM     22  O   UNL     1       4.966   4.379  14.991  0.00  0.00    +0.000 OA
ENDBRANCH  12  13
ENDBRANCH   3  12
TORSDOF 2
ENDMDL
MODEL 8
REMARK VINA RESULT:      -6.6      1.983      3.501
REMARK  Name = 
REMARK  2 active torsions:
REMARK  status: ('A' for Active; 'I' for Inactive)
REMARK    1  A    between atoms: N_3  and  C_4
REMARK    2  A    between atoms: C_4  and  C_5
REMARK                            x       y       z     vdW  Elec       q    Type
REMARK                         _______ _______ _______ _____ _____    ______ ____
ROOT
ATOM      1  O   UNL     1       5.659   4.015  19.394  0.00  0.00    +0.000 OA
ATOM      2  C   UNL     1       4.716   4.328  18.696  0.00  0.00    +0.000 C 
ATOM      3  N   UNL     1       4.585   5.576  18.131  0.00  0.00    +0.000 N 
ATOM      4  N   UNL     1       3.665   3.467  18.364  0.00  0.00    +0.000 N 
ATOM      5  C   UNL     1       2.564   3.849  17.487  0.00  0.00    +0.000 C 
ATOM      6  C   UNL     1       1.272   4.102  18.254  0.00  0.00    +0.000 C 
ATOM      7  C   UNL     1       0.582   2.837  18.757  0.00  0.00    +0.000 C 
ATOM      8  C   UNL     1       1.458   1.898  19.589  0.00  0.00    +0.000 C 
ATOM      9  C   UNL     1       2.560   1.224  18.772  0.00  0.00    +0.000 C 
ATOM     10  C   UNL     1       3.844   2.049  18.656  0.00  0.00    +0.000 C 
ATOM     11  H   UNL     1       3.637   5.879  18.037  0.00  0.00    +0.000 HD
ENDROOT
BRANCH   3  12
ATOM     12  C   UNL     1       5.552   6.635  18.354  0.00  0.00    +0.000 C 
BRANCH  12  13
ATOM     13  C   UNL     1       6.329   6.988  17.068  0.00  0.00    +0.000 C 
ATOM     14  C   UNL     1       7.586   6.113  16.893  0.00  0.00    +0.000 C 
ATOM     15  C   UNL     1       7.299   4.724  16.319  0.00  0.00    +0.000 C 
ATOM     16  C   UNL     1       6.514   4.795  15.009  0.00  0.00    +0.000 C 
ATOM     17  C   UNL     1       5.203   5.558  15.237  0.00  0.00    +0.000 C 
ATOM     18  C   UNL     1       5.444   6.956  15.808  0.00  0.00    +0.000 C 
ATOM     19  O   UNL     1       7.293   5.469  14.016  0.00  0.00    +0.000 OA
ATOM     20  C   UNL     1       7.090   4.767  12.794  0.00  0.00    +0.000 C 
ATOM     21  C   UNL     1       6.317   3.517  13.136  0.00  0.00    +0.000 C 
ATOM     22  O   UNL     1       6.230   3.472  14.556  0.00  0.00    +0.000 OA
ENDBRANCH  12  13
ENDBRANCH   3  12
TORSDOF 2
ENDMDL
MODEL 9
REMARK VINA RESULT:      -6.5      5.407      7.034
REMARK  Name = 
REMARK  2 active torsions:
REMARK  status: ('A' for Active; 'I' for Inactive)
REMARK    1  A    between atoms: N_3  and  C_4
REMARK    2  A    between atoms: C_4  and  C_5
REMARK                            x       y       z     vdW  Elec       q    Type
REMARK                         _______ _______ _______ _____ _____    ______ ____
ROOT
ATOM      1  O   UNL     1       2.862   7.349  18.974  0.00  0.00    +0.000 OA
ATOM      2  C   UNL     1       2.222   6.664  19.745  0.00  0.00    +0.000 C 
ATOM      3  N   UNL     1       1.509   7.189  20.799  0.00  0.00    +0.000 N 
ATOM      4  N   UNL     1       2.113   5.273  19.654  0.00  0.00    +0.000 N 
ATOM      5  C   UNL     1       1.301   4.472  20.564  0.00  0.00    +0.000 C 
ATOM      6  C   UNL     1       2.148   3.702  21.571  0.00  0.00    +0.000 C 
ATOM      7  C   UNL     1       2.880   2.498  20.984  0.00  0.00    +0.000 C 
ATOM      8  C   UNL     1       3.744   2.790  19.755  0.00  0.00    +0.000 C 
ATOM      9  C   UNL     1       2.923   3.157  18.519  0.00  0.00    +0.000 C 
ATOM     10  C   UNL     1       2.574   4.644  18.420  0.00  0.00    +0.000 C 
ATOM     11  H   UNL     1       1.467   6.589  21.596  0.00  0.00    +0.000 HD
ENDROOT
BRANCH   3  12
ATOM     12  C   UNL     1       1.494   8.610  21.093  0.00  0.00    +0.000 C 
BRANCH  12  13
ATOM     13  C   UNL     1       0.285   9.320  20.449  0.00  0.00    +0.000 C 
ATOM     14  C   UNL     1      -0.272  10.444  21.346  0.00  0.00    +0.000 C 
ATOM     15  C   UNL     1       0.519  11.750  21.264  0.00  0.00    +0.000 C 
ATOM     16  C   UNL     1       0.665  12.243  19.824  0.00  0.00    +0.000 C 
ATOM     17  C   UNL     1       1.341  11.158  18.976  0.00  0.00    +0.000 C 
ATOM     18  C   UNL     1       0.580   9.833  19.028  0.00  0.00    +0.000 C 
ATOM     19  O   UNL     1      -0.624  12.539  19.282  0.00  0.00    +0.000 OA
ATOM     20  C   UNL     1      -0.481  13.732  18.518  0.00  0.00    +0.000 C 
ATOM     21  C   UNL     1       0.907  14.257  18.789  0.00  0.00    +0.000 C 
ATOM     22  O   UNL     1       1.458  13.431  19.809  0.00  0.00    +0.000 OA
ENDBRANCH  12  13
ENDBRANCH   3  12
TORSDOF 2
ENDMDL
