MODEL 1
REMARK VINA RESULT:      -7.1      0.000      0.000
REMARK  Name = 
REMARK  11 active torsions:
REMARK  status: ('A' for Active; 'I' for Inactive)
REMARK    1  A    between atoms: C_1  and  O_2
REMARK    2  A    between atoms: O_2  and  C_3
REMARK    3  A    between atoms: C_6  and  C_7
REMARK    4  A    between atoms: C_10  and  C_11
REMARK    5  A    between atoms: C_11  and  O_13
REMARK    6  A    between atoms: C_14  and  C_15
REMARK    7  A    between atoms: N_21  and  S_22
REMARK    8  A    between atoms: S_22  and  C_25
REMARK    9  A    between atoms: C_28  and  C_29
REMARK   10  A    between atoms: C_33  and  O_34
REMARK   11  A    between atoms: O_34  and  C_35
REMARK                            x       y       z     vdW  Elec       q    Type
REMARK                         _______ _______ _______ _____ _____    ______ ____
ROOT
ATOM      1  C   UNL     1       0.025  11.315  18.852  0.00  0.00    +0.000 C 
ATOM      2  C   UNL     1       0.705   9.943  19.045  0.00  0.00    +0.000 C 
ATOM      3  C   UNL     1       0.578   9.404  20.436  0.00  0.00    +0.000 C 
ATOM      4  C   UNL     1       0.289  10.194  21.493  0.00  0.00    +0.000 C 
ATOM      5  C   UNL     1       0.205  11.734  21.428  0.00  0.00    +0.000 C 
ATOM      6  N   UNL     1       0.410  12.220  20.014  0.00  0.00    +0.000 NA
ENDROOT
BRANCH   1  10
ATOM      7  C   UNL     1      -4.085  11.497  17.512  0.00  0.00    +0.000 A 
ATOM      8  C   UNL     1      -3.704  12.174  18.674  0.00  0.00    +0.000 A 
ATOM      9  C   UNL     1      -2.433  11.997  19.231  0.00  0.00    +0.000 A 
ATOM     10  C   UNL     1      -1.479  11.195  18.593  0.00  0.00    +0.000 A 
ATOM     11  C   UNL     1      -1.934  10.361  17.568  0.00  0.00    +0.000 A 
ATOM     12  C   UNL     1      -3.212  10.518  16.999  0.00  0.00    +0.000 A 
BRANCH   7  14
ATOM     13  C   UNL     1      -6.198  12.670  17.385  0.00  0.00    +0.000 C 
ATOM     14  O   UNL     1      -5.210  11.824  16.807  0.00  0.00    +0.000 OA
ENDBRANCH   7  14
BRANCH  12  15
ATOM     15  O   UNL     1      -3.389   9.665  15.944  0.00  0.00    +0.000 OA
ATOM     16  C   UNL     1      -2.973  10.061  14.651  0.00  0.00    +0.000 C 
ENDBRANCH  12  15
ENDBRANCH   1  10
BRANCH   5  17
ATOM     17  C   UNL     1      -0.997  12.357  22.156  0.00  0.00    +0.000 A 
ATOM     18  C   UNL     1      -2.301  11.860  22.023  0.00  0.00    +0.000 A 
ATOM     19  C   UNL     1      -3.365  12.406  22.761  0.00  0.00    +0.000 A 
ATOM     20  C   UNL     1      -3.159  13.482  23.622  0.00  0.00    +0.000 A 
ATOM     21  C   UNL     1      -1.880  13.980  23.780  0.00  0.00    +0.000 A 
ATOM     22  C   UNL     1      -0.841  13.407  23.058  0.00  0.00    +0.000 A 
ENDBRANCH   5  17
BRANCH   6  23
ATOM     23  S   UNL     1       0.480  13.911  19.740  0.00  0.00    +0.000 S 
ATOM     24  O   UNL     1       0.940  14.109  18.365  0.00  0.00    +0.000 OA
ATOM     25  O   UNL     1      -0.735  14.547  20.175  0.00  0.00    +0.000 OA
BRANCH  23  26
ATOM     26  C   UNL     1       1.817  14.469  20.784  0.00  0.00    +0.000 A 
ATOM     27  C   UNL     1       3.056  13.820  20.740  0.00  0.00    +0.000 A 
ATOM     28  C   UNL     1       4.076  14.199  21.624  0.00  0.00    +0.000 A 
ATOM     29  C   UNL     1       3.871  15.238  22.542  0.00  0.00    +0.000 A 
ATOM     30  C   UNL     1       4.906  15.603  23.570  0.00  0.00    +0.000 C 
ATOM     31  C   UNL     1       2.659  15.939  22.515  0.00  0.00    +0.000 A 
ATOM     32  C   UNL     1       1.645  15.577  21.621  0.00  0.00    +0.000 A 
ENDBRANCH  23  26
ENDBRANCH   6  23
BRANCH   4  33
ATOM     33  C   UNL     1       0.218   9.609  22.860  0.00  0.00    +0.000 C 
ATOM     34  O   UNL     1       1.154   9.644  23.635  0.00  0.00    +0.000 OA
BRANCH  33  35
ATOM     35  O   UNL     1      -0.948   9.011  23.188  0.00  0.00    +0.000 OA
ATOM     36  H   UNL     1      -1.195   8.215  22.693  0.00  0.00    +0.000 HD
ENDBRANCH  33  35
ENDBRANCH   4  33
TORSDOF 8
ENDMDL
MODEL 2
REMARK VINA RESULT:      -6.8      2.600      5.896
REMARK  Name = 
REMARK  11 active torsions:
REMARK  status: ('A' for Active; 'I' for Inactive)
REMARK    1  A    between atoms: C_1  and  O_2
REMARK    2  A    between atoms: O_2  and  C_3
REMARK    3  A    between atoms: C_6  and  C_7
REMARK    4  A    between atoms: C_10  and  C_11
REMARK    5  A    between atoms: C_11  and  O_13
REMARK    6  A    between atoms: C_14  and  C_15
REMARK    7  A    between atoms: N_21  and  S_22
REMARK    8  A    between atoms: S_22  and  C_25
REMARK    9  A    between atoms: C_28  and  C_29
REMARK   10  A    between atoms: C_33  and  O_34
REMARK   11  A    between atoms: O_34  and  C_35
REMARK                            x       y       z     vdW  Elec       q    Type
REMARK                         _______ _______ _______ _____ _____    ______ ____
ROOT
ATOM      1  C   UNL     1      -0.473  11.612  18.787  0.00  0.00    +0.000 C 
ATOM      2  C   UNL     1      -1.745  11.428  17.934  0.00  0.00    +0.000 C 
ATOM      3  C   UNL     1      -2.970  12.030  18.550  0.00  0.00    +0.000 C 
ATOM      4  C   UNL     1      -3.049  12.316  19.868  0.00  0.00    +0.000 C 
ATOM      5  C   UNL     1      -1.974  11.929  20.906  0.00  0.00    +0.000 C 
ATOM      6  N   UNL     1      -0.797  11.265  20.233  0.00  0.00    +0.000 NA
ENDROOT
BRANCH   1  10
ATOM      7  C   UNL     1       1.374  15.519  19.012  0.00  0.00    +0.000 A 
ATOM      8  C   UNL     1       0.030  15.408  18.641  0.00  0.00    +0.000 A 
ATOM      9  C   UNL     1      -0.549  14.160  18.389  0.00  0.00    +0.000 A 
ATOM     10  C   UNL     1       0.182  12.981  18.580  0.00  0.00    +0.000 A 
ATOM     11  C   UNL     1       1.565  13.110  18.734  0.00  0.00    +0.000 A 
ATOM     12  C   UNL     1       2.169  14.358  18.981  0.00  0.00    +0.000 A 
BRANCH   7  14
ATOM     13  C   UNL     1       1.419  17.939  19.048  0.00  0.00    +0.000 C 
ATOM     14  O   UNL     1       1.906  16.680  19.500  0.00  0.00    +0.000 OA
ENDBRANCH   7  14
BRANCH  12  15
ATOM     15  O   UNL     1       3.512  14.219  19.206  0.00  0.00    +0.000 OA
ATOM     16  C   UNL     1       4.429  14.599  18.199  0.00  0.00    +0.000 C 
ENDBRANCH  12  15
ENDBRANCH   1  10
BRANCH   5  17
ATOM     17  C   UNL     1      -1.604  13.034  21.909  0.00  0.00    +0.000 A 
ATOM     18  C   UNL     1      -0.897  14.185  21.539  0.00  0.00    +0.000 A 
ATOM     19  C   UNL     1      -0.641  15.210  22.465  0.00  0.00    +0.000 A 
ATOM     20  C   UNL     1      -1.053  15.094  23.791  0.00  0.00    +0.000 A 
ATOM     21  C   UNL     1      -1.763  13.973  24.177  0.00  0.00    +0.000 A 
ATOM     22  C   UNL     1      -2.025  12.986  23.237  0.00  0.00    +0.000 A 
ENDBRANCH   5  17
BRANCH   6  23
ATOM     23  S   UNL     1       0.457  10.642  21.222  0.00  0.00    +0.000 S 
ATOM     24  O   UNL     1       1.499  11.667  21.298  0.00  0.00    +0.000 OA
ATOM     25  O   UNL     1      -0.082  10.094  22.439  0.00  0.00    +0.000 OA
BRANCH  23  26
ATOM     26  C   UNL     1       1.153   9.310  20.259  0.00  0.00    +0.000 A 
ATOM     27  C   UNL     1       1.434   8.081  20.866  0.00  0.00    +0.000 A 
ATOM     28  C   UNL     1       2.064   7.067  20.132  0.00  0.00    +0.000 A 
ATOM     29  C   UNL     1       2.401   7.267  18.786  0.00  0.00    +0.000 A 
ATOM     30  C   UNL     1       3.165   6.240  17.999  0.00  0.00    +0.000 C 
ATOM     31  C   UNL     1       2.032   8.467  18.165  0.00  0.00    +0.000 A 
ATOM     32  C   UNL     1       1.386   9.476  18.889  0.00  0.00    +0.000 A 
ENDBRANCH  23  26
ENDBRANCH   6  23
BRANCH   4  33
ATOM     33  C   UNL     1      -4.309  12.874  20.432  0.00  0.00    +0.000 C 
ATOM     34  O   UNL     1      -5.008  12.252  21.207  0.00  0.00    +0.000 OA
BRANCH  33  35
ATOM     35  O   UNL     1      -4.646  14.114  20.015  0.00  0.00    +0.000 OA
ATOM     36  H   UNL     1      -4.815  14.234  19.068  0.00  0.00    +0.000 HD
ENDBRANCH  33  35
ENDBRANCH   4  33
TORSDOF 8
ENDMDL
MODEL 3
REMARK VINA RESULT:      -6.7      3.100      5.609
REMARK  Name = 
REMARK  11 active torsions:
REMARK  status: ('A' for Active; 'I' for Inactive)
REMARK    1  A    between atoms: C_1  and  O_2
REMARK    2  A    between atoms: O_2  and  C_3
REMARK    3  A    between atoms: C_6  and  C_7
REMARK    4  A    between atoms: C_10  and  C_11
REMARK    5  A    between atoms: C_11  and  O_13
REMARK    6  A    between atoms: C_14  and  C_15
REMARK    7  A    between atoms: N_21  and  S_22
REMARK    8  A    between atoms: S_22  and  C_25
REMARK    9  A    between atoms: C_28  and  C_29
REMARK   10  A    between atoms: C_33  and  O_34
REMARK   11  A    between atoms: O_34  and  C_35
REMARK                            x       y       z     vdW  Elec       q    Type
REMARK                         _______ _______ _______ _____ _____    ______ ____
ROOT
ATOM      1  C   UNL     1      -2.766  12.489  22.595  0.00  0.00    +0.000 C 
ATOM      2  C   UNL     1      -3.438  12.322  23.974  0.00  0.00    +0.000 C 
ATOM      3  C   UNL     1      -3.836  13.621  24.605  0.00  0.00    +0.000 C 
ATOM      4  C   UNL     1      -3.297  14.801  24.230  0.00  0.00    +0.000 C 
ATOM      5  C   UNL     1      -2.125  14.943  23.235  0.00  0.00    +0.000 C 
ATOM      6  N   UNL     1      -1.725  13.595  22.687  0.00  0.00    +0.000 NA
ENDROOT
BRANCH   1  10
ATOM      7  C   UNL     1      -5.796  12.153  19.524  0.00  0.00    +0.000 A 
ATOM      8  C   UNL     1      -4.447  12.204  19.163  0.00  0.00    +0.000 A 
ATOM      9  C   UNL     1      -3.455  12.487  20.109  0.00  0.00    +0.000 A 
ATOM     10  C   UNL     1      -3.783  12.648  21.461  0.00  0.00    +0.000 A 
ATOM     11  C   UNL     1      -5.136  12.812  21.771  0.00  0.00    +0.000 A 
ATOM     12  C   UNL     1      -6.149  12.539  20.831  0.00  0.00    +0.000 A 
BRANCH   7  14
ATOM     13  C   UNL     1      -7.008  10.244  18.661  0.00  0.00    +0.000 C 
ATOM     14  O   UNL     1      -6.758  11.644  18.696  0.00  0.00    +0.000 OA
ENDBRANCH   7  14
BRANCH  12  15
ATOM     15  O   UNL     1      -7.390  12.663  21.395  0.00  0.00    +0.000 OA
ATOM     16  C   UNL     1      -7.608  12.185  22.708  0.00  0.00    +0.000 C 
ENDBRANCH  12  15
ENDBRANCH   1  10
BRANCH   5  17
ATOM     17  C   UNL     1      -2.293  16.045  22.177  0.00  0.00    +0.000 A 
ATOM     18  C   UNL     1      -1.345  17.058  21.984  0.00  0.00    +0.000 A 
ATOM     19  C   UNL     1      -1.492  18.006  20.958  0.00  0.00    +0.000 A 
ATOM     20  C   UNL     1      -2.608  17.987  20.122  0.00  0.00    +0.000 A 
ATOM     21  C   UNL     1      -3.549  16.989  20.284  0.00  0.00    +0.000 A 
ATOM     22  C   UNL     1      -3.368  16.049  21.289  0.00  0.00    +0.000 A 
ENDBRANCH   5  17
BRANCH   6  23
ATOM     23  S   UNL     1      -0.356  13.512  21.657  0.00  0.00    +0.000 S 
ATOM     24  O   UNL     1      -0.778  13.982  20.337  0.00  0.00    +0.000 OA
ATOM     25  O   UNL     1       0.789  14.114  22.287  0.00  0.00    +0.000 OA
BRANCH  23  26
ATOM     26  C   UNL     1      -0.050  11.762  21.476  0.00  0.00    +0.000 A 
ATOM     27  C   UNL     1      -0.248  10.902  22.562  0.00  0.00    +0.000 A 
ATOM     28  C   UNL     1       0.079   9.544  22.445  0.00  0.00    +0.000 A 
ATOM     29  C   UNL     1       0.587   9.035  21.243  0.00  0.00    +0.000 A 
ATOM     30  C   UNL     1       1.041   7.608  21.115  0.00  0.00    +0.000 C 
ATOM     31  C   UNL     1       0.695   9.887  20.136  0.00  0.00    +0.000 A 
ATOM     32  C   UNL     1       0.352  11.240  20.241  0.00  0.00    +0.000 A 
ENDBRANCH  23  26
ENDBRANCH   6  23
BRANCH   4  33
ATOM     33  C   UNL     1      -3.700  16.056  24.923  0.00  0.00    +0.000 C 
ATOM     34  O   UNL     1      -2.901  16.771  25.494  0.00  0.00    +0.000 OA
BRANCH  33  35
ATOM     35  O   UNL     1      -5.019  16.347  24.901  0.00  0.00    +0.000 OA
ATOM     36  H   UNL     1      -5.638  15.603  24.830  0.00  0.00    +0.000 HD
ENDBRANCH  33  35
ENDBRANCH   4  33
TORSDOF 8
ENDMDL
MODEL 4
REMARK VINA RESULT:      -6.7      1.085      1.506
REMARK  Name = 
REMARK  11 active torsions:
REMARK  status: ('A' for Active; 'I' for Inactive)
REMARK    1  A    between atoms: C_1  and  O_2
REMARK    2  A    between atoms: O_2  and  C_3
REMARK    3  A    between atoms: C_6  and  C_7
REMARK    4  A    between atoms: C_10  and  C_11
REMARK    5  A    between atoms: C_11  and  O_13
REMARK    6  A    between atoms: C_14  and  C_15
REMARK    7  A    between atoms: N_21  and  S_22
REMARK    8  A    between atoms: S_22  and  C_25
REMARK    9  A    between atoms: C_28  and  C_29
REMARK   10  A    between atoms: C_33  and  O_34
REMARK   11  A    between atoms: O_34  and  C_35
REMARK                            x       y       z     vdW  Elec       q    Type
REMARK                         _______ _______ _______ _____ _____    ______ ____
ROOT
ATOM      1  C   UNL     1      -0.011  11.317  18.826  0.00  0.00    +0.000 C 
ATOM      2  C   UNL     1       0.673   9.947  19.022  0.00  0.00    +0.000 C 
ATOM      3  C   UNL     1       0.550   9.413  20.415  0.00  0.00    +0.000 C 
ATOM      4  C   UNL     1       0.261  10.205  21.470  0.00  0.00    +0.000 C 
ATOM      5  C   UNL     1       0.172  11.745  21.399  0.00  0.00    +0.000 C 
ATOM      6  N   UNL     1       0.373  12.227  19.984  0.00  0.00    +0.000 NA
ENDROOT
BRANCH   1  10
ATOM      7  C   UNL     1      -4.124  11.481  17.491  0.00  0.00    +0.000 A 
ATOM      8  C   UNL     1      -3.743  12.164  18.649  0.00  0.00    +0.000 A 
ATOM      9  C   UNL     1      -2.471  11.993  19.205  0.00  0.00    +0.000 A 
ATOM     10  C   UNL     1      -1.515  11.192  18.569  0.00  0.00    +0.000 A 
ATOM     11  C   UNL     1      -1.969  10.352  17.548  0.00  0.00    +0.000 A 
ATOM     12  C   UNL     1      -3.249  10.503  16.980  0.00  0.00    +0.000 A 
BRANCH   7  14
ATOM     13  C   UNL     1      -6.338  12.456  17.430  0.00  0.00    +0.000 C 
ATOM     14  O   UNL     1      -5.250  11.802  16.786  0.00  0.00    +0.000 OA
ENDBRANCH   7  14
BRANCH  12  15
ATOM     15  O   UNL     1      -3.425   9.645  15.928  0.00  0.00    +0.000 OA
ATOM     16  C   UNL     1      -3.061  10.058  14.625  0.00  0.00    +0.000 C 
ENDBRANCH  12  15
ENDBRANCH   1  10
BRANCH   5  17
ATOM     17  C   UNL     1      -1.032  12.366  22.127  0.00  0.00    +0.000 A 
ATOM     18  C   UNL     1      -2.344  11.913  21.940  0.00  0.00    +0.000 A 
ATOM     19  C   UNL     1      -3.411  12.454  22.677  0.00  0.00    +0.000 A 
ATOM     20  C   UNL     1      -3.198  13.482  23.593  0.00  0.00    +0.000 A 
ATOM     21  C   UNL     1      -1.911  13.935  23.805  0.00  0.00    +0.000 A 
ATOM     22  C   UNL     1      -0.870  13.368  23.083  0.00  0.00    +0.000 A 
ENDBRANCH   5  17
BRANCH   6  23
ATOM     23  S   UNL     1       0.437  13.917  19.705  0.00  0.00    +0.000 S 
ATOM     24  O   UNL     1      -0.144  14.161  18.383  0.00  0.00    +0.000 OA
ATOM     25  O   UNL     1      -0.069  14.639  20.841  0.00  0.00    +0.000 OA
BRANCH  23  26
ATOM     26  C   UNL     1       2.181  14.268  19.540  0.00  0.00    +0.000 A 
ATOM     27  C   UNL     1       2.912  14.711  20.648  0.00  0.00    +0.000 A 
ATOM     28  C   UNL     1       4.258  15.072  20.497  0.00  0.00    +0.000 A 
ATOM     29  C   UNL     1       4.885  14.976  19.247  0.00  0.00    +0.000 A 
ATOM     30  C   UNL     1       6.295  15.449  19.029  0.00  0.00    +0.000 C 
ATOM     31  C   UNL     1       4.168  14.445  18.168  0.00  0.00    +0.000 A 
ATOM     32  C   UNL     1       2.830  14.065  18.317  0.00  0.00    +0.000 A 
ENDBRANCH  23  26
ENDBRANCH   6  23
BRANCH   4  33
ATOM     33  C   UNL     1       0.193   9.624  22.839  0.00  0.00    +0.000 C 
ATOM     34  O   UNL     1       1.134   9.655  23.607  0.00  0.00    +0.000 OA
BRANCH  33  35
ATOM     35  O   UNL     1      -0.975   9.036  23.176  0.00  0.00    +0.000 OA
ATOM     36  H   UNL     1      -0.972   8.073  23.291  0.00  0.00    +0.000 HD
ENDBRANCH  33  35
ENDBRANCH   4  33
TORSDOF 8
ENDMDL
MODEL 5
REMARK VINA RESULT:      -6.6      2.257      5.960
REMARK  Name = 
REMARK  11 active torsions:
REMARK  status: ('A' for Active; 'I' for Inactive)
REMARK    1  A    between atoms: C_1  and  O_2
REMARK    2  A    between atoms: O_2  and  C_3
REMARK    3  A    between atoms: C_6  and  C_7
REMARK    4  A    between atoms: C_10  and  C_11
REMARK    5  A    between atoms: C_11  and  O_13
REMARK    6  A    between atoms: C_14  and  C_15
REMARK    7  A    between atoms: N_21  and  S_22
REMARK    8  A    between atoms: S_22  and  C_25
REMARK    9  A    between atoms: C_28  and  C_29
REMARK   10  A    between atoms: C_33  and  O_34
REMARK   11  A    between atoms: O_34  and  C_35
REMARK                            x       y       z     vdW  Elec       q    Type
REMARK                         _______ _______ _______ _____ _____    ______ ____
ROOT
ATOM      1  C   UNL     1      -0.424  11.491  18.853  0.00  0.00    +0.000 C 
ATOM      2  C   UNL     1      -1.646  11.317  17.927  0.00  0.00    +0.000 C 
ATOM      3  C   UNL     1      -2.900  11.923  18.475  0.00  0.00    +0.000 C 
ATOM      4  C   UNL     1      -3.054  12.204  19.787  0.00  0.00    +0.000 C 
ATOM      5  C   UNL     1      -2.042  11.807  20.883  0.00  0.00    +0.000 C 
ATOM      6  N   UNL     1      -0.833  11.140  20.277  0.00  0.00    +0.000 NA
ENDROOT
BRANCH   1  10
ATOM      7  C   UNL     1       1.340  15.429  19.187  0.00  0.00    +0.000 A 
ATOM      8  C   UNL     1       0.076  15.282  18.608  0.00  0.00    +0.000 A 
ATOM      9  C   UNL     1      -0.448  14.016  18.326  0.00  0.00    +0.000 A 
ATOM     10  C   UNL     1       0.248  12.857  18.690  0.00  0.00    +0.000 A 
ATOM     11  C   UNL     1       1.588  13.012  19.061  0.00  0.00    +0.000 A 
ATOM     12  C   UNL     1       2.136  14.278  19.343  0.00  0.00    +0.000 A 
BRANCH   7  14
ATOM     13  C   UNL     1       0.850  17.648  20.021  0.00  0.00    +0.000 C 
ATOM     14  O   UNL     1       1.779  16.618  19.699  0.00  0.00    +0.000 OA
ENDBRANCH   7  14
BRANCH  12  15
ATOM     15  O   UNL     1       3.424  14.167  19.791  0.00  0.00    +0.000 OA
ATOM     16  C   UNL     1       3.680  14.169  21.182  0.00  0.00    +0.000 C 
ENDBRANCH  12  15
ENDBRANCH   1  10
BRANCH   5  17
ATOM     17  C   UNL     1      -1.725  12.906  21.911  0.00  0.00    +0.000 A 
ATOM     18  C   UNL     1      -1.047  14.084  21.573  0.00  0.00    +0.000 A 
ATOM     19  C   UNL     1      -0.840  15.101  22.520  0.00  0.00    +0.000 A 
ATOM     20  C   UNL     1      -1.273  14.950  23.836  0.00  0.00    +0.000 A 
ATOM     21  C   UNL     1      -1.955  13.803  24.190  0.00  0.00    +0.000 A 
ATOM     22  C   UNL     1      -2.170  12.824  23.229  0.00  0.00    +0.000 A 
ENDBRANCH   5  17
BRANCH   6  23
ATOM     23  S   UNL     1       0.359  10.507  21.334  0.00  0.00    +0.000 S 
ATOM     24  O   UNL     1       1.375  11.545  21.515  0.00  0.00    +0.000 OA
ATOM     25  O   UNL     1      -0.254   9.911  22.491  0.00  0.00    +0.000 OA
BRANCH  23  26
ATOM     26  C   UNL     1       1.148   9.217  20.382  0.00  0.00    +0.000 A 
ATOM     27  C   UNL     1       1.476   9.440  19.040  0.00  0.00    +0.000 A 
ATOM     28  C   UNL     1       2.011   8.399  18.270  0.00  0.00    +0.000 A 
ATOM     29  C   UNL     1       2.238   7.138  18.838  0.00  0.00    +0.000 A 
ATOM     30  C   UNL     1       2.716   5.973  18.017  0.00  0.00    +0.000 C 
ATOM     31  C   UNL     1       1.991   6.954  20.204  0.00  0.00    +0.000 A 
ATOM     32  C   UNL     1       1.475   7.996  20.983  0.00  0.00    +0.000 A 
ENDBRANCH  23  26
ENDBRANCH   6  23
BRANCH   4  33
ATOM     33  C   UNL     1      -4.341  12.766  20.280  0.00  0.00    +0.000 C 
ATOM     34  O   UNL     1      -5.018  12.207  21.121  0.00  0.00    +0.000 OA
BRANCH  33  35
ATOM     35  O   UNL     1      -4.730  13.933  19.722  0.00  0.00    +0.000 OA
ATOM     36  H   UNL     1      -5.426  13.894  19.047  0.00  0.00    +0.000 HD
ENDBRANCH  33  35
ENDBRANCH   4  33
TORSDOF 8
ENDMDL
MODEL 6
REMARK VINA RESULT:      -6.5      2.579      5.914
REMARK  Name = 
REMARK  11 active torsions:
REMARK  status: ('A' for Active; 'I' for Inactive)
REMARK    1  A    between atoms: C_1  and  O_2
REMARK    2  A    between atoms: O_2  and  C_3
REMARK    3  A    between atoms: C_6  and  C_7
REMARK    4  A    between atoms: C_10  and  C_11
REMARK    5  A    between atoms: C_11  and  O_13
REMARK    6  A    between atoms: C_14  and  C_15
REMARK    7  A    between atoms: N_21  and  S_22
REMARK    8  A    between atoms: S_22  and  C_25
REMARK    9  A    between atoms: C_28  and  C_29
REMARK   10  A    between atoms: C_33  and  O_34
REMARK   11  A    between atoms: O_34  and  C_35
REMARK                            x       y       z     vdW  Elec       q    Type
REMARK                         _______ _______ _______ _____ _____    ______ ____
ROOT
ATOM      1  C   UNL     1      -0.433  11.628  18.798  0.00  0.00    +0.000 C 
ATOM      2  C   UNL     1      -1.681  11.423  17.913  0.00  0.00    +0.000 C 
ATOM      3  C   UNL     1      -2.922  12.037  18.482  0.00  0.00    +0.000 C 
ATOM      4  C   UNL     1      -3.039  12.350  19.791  0.00  0.00    +0.000 C 
ATOM      5  C   UNL     1      -1.992  11.987  20.866  0.00  0.00    +0.000 C 
ATOM      6  N   UNL     1      -0.797  11.311  20.242  0.00  0.00    +0.000 NA
ENDROOT
BRANCH   1  10
ATOM      7  C   UNL     1       1.439  15.525  18.993  0.00  0.00    +0.000 A 
ATOM      8  C   UNL     1       0.089  15.420  18.644  0.00  0.00    +0.000 A 
ATOM      9  C   UNL     1      -0.502  14.176  18.402  0.00  0.00    +0.000 A 
ATOM     10  C   UNL     1       0.226  12.993  18.580  0.00  0.00    +0.000 A 
ATOM     11  C   UNL     1       1.613  13.114  18.711  0.00  0.00    +0.000 A 
ATOM     12  C   UNL     1       2.227  14.359  18.949  0.00  0.00    +0.000 A 
BRANCH   7  14
ATOM     13  C   UNL     1       1.162  17.816  19.720  0.00  0.00    +0.000 C 
ATOM     14  O   UNL     1       1.985  16.683  19.472  0.00  0.00    +0.000 OA
ENDBRANCH   7  14
BRANCH  12  15
ATOM     15  O   UNL     1       3.572  14.212  19.152  0.00  0.00    +0.000 OA
ATOM     16  C   UNL     1       4.478  14.640  18.153  0.00  0.00    +0.000 C 
ENDBRANCH  12  15
ENDBRANCH   1  10
BRANCH   5  17
ATOM     17  C   UNL     1      -1.652  13.112  21.856  0.00  0.00    +0.000 A 
ATOM     18  C   UNL     1      -2.088  13.106  23.188  0.00  0.00    +0.000 A 
ATOM     19  C   UNL     1      -1.697  14.113  24.086  0.00  0.00    +0.000 A 
ATOM     20  C   UNL     1      -0.888  15.168  23.667  0.00  0.00    +0.000 A 
ATOM     21  C   UNL     1      -0.434  15.189  22.363  0.00  0.00    +0.000 A 
ATOM     22  C   UNL     1      -0.815  14.169  21.502  0.00  0.00    +0.000 A 
ENDBRANCH   5  17
BRANCH   6  23
ATOM     23  S   UNL     1       0.429  10.711  21.278  0.00  0.00    +0.000 S 
ATOM     24  O   UNL     1       1.466  11.741  21.365  0.00  0.00    +0.000 OA
ATOM     25  O   UNL     1      -0.142  10.182  22.488  0.00  0.00    +0.000 OA
BRANCH  23  26
ATOM     26  C   UNL     1       1.159   9.364  20.360  0.00  0.00    +0.000 A 
ATOM     27  C   UNL     1       1.509   9.542  19.017  0.00  0.00    +0.000 A 
ATOM     28  C   UNL     1       1.997   8.460  18.272  0.00  0.00    +0.000 A 
ATOM     29  C   UNL     1       2.154   7.201  18.867  0.00  0.00    +0.000 A 
ATOM     30  C   UNL     1       2.579   5.997  18.074  0.00  0.00    +0.000 C 
ATOM     31  C   UNL     1       1.887   7.057  20.234  0.00  0.00    +0.000 A 
ATOM     32  C   UNL     1       1.418   8.140  20.987  0.00  0.00    +0.000 A 
ENDBRANCH  23  26
ENDBRANCH   6  23
BRANCH   4  33
ATOM     33  C   UNL     1      -4.314  12.917  20.308  0.00  0.00    +0.000 C 
ATOM     34  O   UNL     1      -5.103  12.262  20.961  0.00  0.00    +0.000 OA
BRANCH  33  35
ATOM     35  O   UNL     1      -4.559  14.208  19.991  0.00  0.00    +0.000 OA
ATOM     36  H   UNL     1      -5.088  14.378  19.196  0.00  0.00    +0.000 HD
ENDBRANCH  33  35
ENDBRANCH   4  33
TORSDOF 8
ENDMDL
MODEL 7
REMARK VINA RESULT:      -6.5      2.473      5.124
REMARK  Name = 
REMARK  11 active torsions:
REMARK  status: ('A' for Active; 'I' for Inactive)
REMARK    1  A    between atoms: C_1  and  O_2
REMARK    2  A    between atoms: O_2  and  C_3
REMARK    3  A    between atoms: C_6  and  C_7
REMARK    4  A    between atoms: C_10  and  C_11
REMARK    5  A    between atoms: C_11  and  O_13
REMARK    6  A    between atoms: C_14  and  C_15
REMARK    7  A    between atoms: N_21  and  S_22
REMARK    8  A    between atoms: S_22  and  C_25
REMARK    9  A    between atoms: C_28  and  C_29
REMARK   10  A    between atoms: C_33  and  O_34
REMARK   11  A    between atoms: O_34  and  C_35
REMARK                            x       y       z     vdW  Elec       q    Type
REMARK                         _______ _______ _______ _____ _____    ______ ____
ROOT
ATOM      1  C   UNL     1      -1.494  11.871  21.686  0.00  0.00    +0.000 C 
ATOM      2  C   UNL     1      -2.091  11.776  23.106  0.00  0.00    +0.000 C 
ATOM      3  C   UNL     1      -2.209  13.101  23.793  0.00  0.00    +0.000 C 
ATOM      4  C   UNL     1      -1.496  14.181  23.407  0.00  0.00    +0.000 C 
ATOM      5  C   UNL     1      -0.387  14.150  22.334  0.00  0.00    +0.000 C 
ATOM      6  N   UNL     1      -0.269  12.773  21.727  0.00  0.00    +0.000 NA
ENDROOT
BRANCH   1  10
ATOM      7  C   UNL     1      -4.808  12.233  18.927  0.00  0.00    +0.000 A 
ATOM      8  C   UNL     1      -3.546  11.865  18.450  0.00  0.00    +0.000 A 
ATOM      9  C   UNL     1      -2.419  11.907  19.278  0.00  0.00    +0.000 A 
ATOM     10  C   UNL     1      -2.540  12.245  20.632  0.00  0.00    +0.000 A 
ATOM     11  C   UNL     1      -3.749  12.817  21.038  0.00  0.00    +0.000 A 
ATOM     12  C   UNL     1      -4.893  12.790  20.217  0.00  0.00    +0.000 A 
BRANCH   7  14
ATOM     13  C   UNL     1      -6.718  10.805  18.517  0.00  0.00    +0.000 C 
ATOM     14  O   UNL     1      -5.958  11.974  18.234  0.00  0.00    +0.000 OA
ENDBRANCH   7  14
BRANCH  12  15
ATOM     15  O   UNL     1      -5.979  13.307  20.870  0.00  0.00    +0.000 OA
ATOM     16  C   UNL     1      -6.416  14.617  20.563  0.00  0.00    +0.000 C 
ENDBRANCH  12  15
ENDBRANCH   1  10
BRANCH   5  17
ATOM     17  C   UNL     1      -0.427  15.301  21.315  0.00  0.00    +0.000 A 
ATOM     18  C   UNL     1      -1.549  15.567  20.519  0.00  0.00    +0.000 A 
ATOM     19  C   UNL     1      -1.580  16.673  19.653  0.00  0.00    +0.000 A 
ATOM     20  C   UNL     1      -0.478  17.519  19.535  0.00  0.00    +0.000 A 
ATOM     21  C   UNL     1       0.634  17.285  20.320  0.00  0.00    +0.000 A 
ATOM     22  C   UNL     1       0.630  16.200  21.186  0.00  0.00    +0.000 A 
ENDBRANCH   5  17
BRANCH   6  23
ATOM     23  S   UNL     1       0.991  12.489  20.601  0.00  0.00    +0.000 S 
ATOM     24  O   UNL     1       0.500  12.907  19.286  0.00  0.00    +0.000 OA
ATOM     25  O   UNL     1       2.237  13.017  21.088  0.00  0.00    +0.000 OA
BRANCH  23  26
ATOM     26  C   UNL     1       1.119  10.709  20.527  0.00  0.00    +0.000 A 
ATOM     27  C   UNL     1       1.060   9.955  21.704  0.00  0.00    +0.000 A 
ATOM     28  C   UNL     1       1.250   8.567  21.655  0.00  0.00    +0.000 A 
ATOM     29  C   UNL     1       1.484   7.924  20.433  0.00  0.00    +0.000 A 
ATOM     30  C   UNL     1       1.792   6.454  20.356  0.00  0.00    +0.000 C 
ATOM     31  C   UNL     1       1.450   8.676  19.252  0.00  0.00    +0.000 A 
ATOM     32  C   UNL     1       1.241  10.060  19.293  0.00  0.00    +0.000 A 
ENDBRANCH  23  26
ENDBRANCH   6  23
BRANCH   4  33
ATOM     33  C   UNL     1      -1.623  15.462  24.156  0.00  0.00    +0.000 C 
ATOM     34  O   UNL     1      -2.558  16.221  23.995  0.00  0.00    +0.000 OA
BRANCH  33  35
ATOM     35  O   UNL     1      -0.621  15.746  25.016  0.00  0.00    +0.000 OA
ATOM     36  H   UNL     1      -0.114  15.000  25.371  0.00  0.00    +0.000 HD
ENDBRANCH  33  35
ENDBRANCH   4  33
TORSDOF 8
ENDMDL
MODEL 8
REMARK VINA RESULT:      -6.5      2.585      5.019
REMARK  Name = 
REMARK  11 active torsions:
REMARK  status: ('A' for Active; 'I' for Inactive)
REMARK    1  A    between atoms: C_1  and  O_2
REMARK    2  A    between atoms: O_2  and  C_3
REMARK    3  A    between atoms: C_6  and  C_7
REMARK    4  A    between atoms: C_10  and  C_11
REMARK    5  A    between atoms: C_11  and  O_13
REMARK    6  A    between atoms: C_14  and  C_15
REMARK    7  A    between atoms: N_21  and  S_22
REMARK    8  A    between atoms: S_22  and  C_25
REMARK    9  A    between atoms: C_28  and  C_29
REMARK   10  A    between atoms: C_33  and  O_34
REMARK   11  A    between atoms: O_34  and  C_35
REMARK                            x       y       z     vdW  Elec       q    Type
REMARK                         _______ _______ _______ _____ _____    ______ ____
ROOT
ATOM      1  C   UNL     1      -1.067  11.694  20.923  0.00  0.00    +0.000 C 
ATOM      2  C   UNL     1      -1.470  11.460  22.395  0.00  0.00    +0.000 C 
ATOM      3  C   UNL     1      -1.558  12.721  23.197  0.00  0.00    +0.000 C 
ATOM      4  C   UNL     1      -0.952  13.865  22.813  0.00  0.00    +0.000 C 
ATOM      5  C   UNL     1       0.009  13.976  21.610  0.00  0.00    +0.000 C 
ATOM      6  N   UNL     1       0.110  12.658  20.884  0.00  0.00    +0.000 NA
ENDROOT
BRANCH   1  10
ATOM      7  C   UNL     1      -4.773  12.130  18.732  0.00  0.00    +0.000 A 
ATOM      8  C   UNL     1      -3.621  11.700  18.067  0.00  0.00    +0.000 A 
ATOM      9  C   UNL     1      -2.373  11.714  18.699  0.00  0.00    +0.000 A 
ATOM     10  C   UNL     1      -2.257  12.087  20.044  0.00  0.00    +0.000 A 
ATOM     11  C   UNL     1      -3.362  12.717  20.625  0.00  0.00    +0.000 A 
ATOM     12  C   UNL     1      -4.625  12.719  20.002  0.00  0.00    +0.000 A 
BRANCH   7  14
ATOM     13  C   UNL     1      -6.777  10.774  18.681  0.00  0.00    +0.000 C 
ATOM     14  O   UNL     1      -6.030  11.903  18.244  0.00  0.00    +0.000 OA
ENDBRANCH   7  14
BRANCH  12  15
ATOM     15  O   UNL     1      -5.569  13.295  20.807  0.00  0.00    +0.000 OA
ATOM     16  C   UNL     1      -6.064  12.579  21.922  0.00  0.00    +0.000 C 
ENDBRANCH  12  15
ENDBRANCH   1  10
BRANCH   5  17
ATOM     17  C   UNL     1      -0.216  15.197  20.702  0.00  0.00    +0.000 A 
ATOM     18  C   UNL     1      -1.489  15.595  20.273  0.00  0.00    +0.000 A 
ATOM     19  C   UNL     1      -1.666  16.758  19.505  0.00  0.00    +0.000 A 
ATOM     20  C   UNL     1      -0.573  17.533  19.120  0.00  0.00    +0.000 A 
ATOM     21  C   UNL     1       0.690  17.168  19.542  0.00  0.00    +0.000 A 
ATOM     22  C   UNL     1       0.836  16.028  20.321  0.00  0.00    +0.000 A 
ENDBRANCH   5  17
BRANCH   6  23
ATOM     23  S   UNL     1       1.225  12.529  19.588  0.00  0.00    +0.000 S 
ATOM     24  O   UNL     1       0.547  13.012  18.384  0.00  0.00    +0.000 OA
ATOM     25  O   UNL     1       2.497  13.092  19.955  0.00  0.00    +0.000 OA
BRANCH  23  26
ATOM     26  C   UNL     1       1.428  10.770  19.358  0.00  0.00    +0.000 A 
ATOM     27  C   UNL     1       1.264   9.900  20.442  0.00  0.00    +0.000 A 
ATOM     28  C   UNL     1       1.511   8.530  20.281  0.00  0.00    +0.000 A 
ATOM     29  C   UNL     1       1.907   8.019  19.037  0.00  0.00    +0.000 A 
ATOM     30  C   UNL     1       2.277   6.574  18.855  0.00  0.00    +0.000 C 
ATOM     31  C   UNL     1       1.979   8.885  17.940  0.00  0.00    +0.000 A 
ATOM     32  C   UNL     1       1.714  10.251  18.090  0.00  0.00    +0.000 A 
ENDBRANCH  23  26
ENDBRANCH   6  23
BRANCH   4  33
ATOM     33  C   UNL     1      -1.039  15.077  23.674  0.00  0.00    +0.000 C 
ATOM     34  O   UNL     1      -0.078  15.527  24.266  0.00  0.00    +0.000 OA
BRANCH  33  35
ATOM     35  O   UNL     1      -2.262  15.641  23.780  0.00  0.00    +0.000 OA
ATOM     36  H   UNL     1      -2.345  16.418  24.355  0.00  0.00    +0.000 HD
ENDBRANCH  33  35
ENDBRANCH   4  33
TORSDOF 8
ENDMDL
MODEL 9
REMARK VINA RESULT:      -6.5      2.432      5.984
REMARK  Name = 
REMARK  11 active torsions:
REMARK  status: ('A' for Active; 'I' for Inactive)
REMARK    1  A    between atoms: C_1  and  O_2
REMARK    2  A    between atoms: O_2  and  C_3
REMARK    3  A    between atoms: C_6  and  C_7
REMARK    4  A    between atoms: C_10  and  C_11
REMARK    5  A    between atoms: C_11  and  O_13
REMARK    6  A    between atoms: C_14  and  C_15
REMARK    7  A    between atoms: N_21  and  S_22
REMARK    8  A    between atoms: S_22  and  C_25
REMARK    9  A    between atoms: C_28  and  C_29
REMARK   10  A    between atoms: C_33  and  O_34
REMARK   11  A    between atoms: O_34  and  C_35
REMARK                            x       y       z     vdW  Elec       q    Type
REMARK                         _______ _______ _______ _____ _____    ______ ____
ROOT
ATOM      1  C   UNL     1      -0.237  11.628  18.957  0.00  0.00    +0.000 C 
ATOM      2  C   UNL     1      -1.249  11.613  17.792  0.00  0.00    +0.000 C 
ATOM      3  C   UNL     1      -2.609  12.108  18.176  0.00  0.00    +0.000 C 
ATOM      4  C   UNL     1      -3.025  12.154  19.460  0.00  0.00    +0.000 C 
ATOM      5  C   UNL     1      -2.230  11.577  20.651  0.00  0.00    +0.000 C 
ATOM      6  N   UNL     1      -0.900  11.032  20.191  0.00  0.00    +0.000 NA
ENDROOT
BRANCH   1  10
ATOM      7  C   UNL     1       1.700  15.491  18.744  0.00  0.00    +0.000 A 
ATOM      8  C   UNL     1       2.390  14.398  19.276  0.00  0.00    +0.000 A 
ATOM      9  C   UNL     1       1.742  13.183  19.521  0.00  0.00    +0.000 A 
ATOM     10  C   UNL     1       0.400  13.005  19.164  0.00  0.00    +0.000 A 
ATOM     11  C   UNL     1      -0.330  14.154  18.843  0.00  0.00    +0.000 A 
ATOM     12  C   UNL     1       0.303  15.388  18.600  0.00  0.00    +0.000 A 
BRANCH   7  14
ATOM     13  C   UNL     1       3.349  16.474  17.270  0.00  0.00    +0.000 C 
ATOM     14  O   UNL     1       2.341  16.601  18.265  0.00  0.00    +0.000 OA
ENDBRANCH   7  14
BRANCH  12  15
ATOM     15  O   UNL     1      -0.600  16.333  18.196  0.00  0.00    +0.000 OA
ATOM     16  C   UNL     1      -1.169  17.205  19.153  0.00  0.00    +0.000 C 
ENDBRANCH  12  15
ENDBRANCH   1  10
BRANCH   5  17
ATOM     17  C   UNL     1      -2.161  12.481  21.892  0.00  0.00    +0.000 A 
ATOM     18  C   UNL     1      -1.347  13.620  21.954  0.00  0.00    +0.000 A 
ATOM     19  C   UNL     1      -1.364  14.465  23.076  0.00  0.00    +0.000 A 
ATOM     20  C   UNL     1      -2.168  14.175  24.177  0.00  0.00    +0.000 A 
ATOM     21  C   UNL     1      -2.989  13.065  24.134  0.00  0.00    +0.000 A 
ATOM     22  C   UNL     1      -2.973  12.259  23.004  0.00  0.00    +0.000 A 
ENDBRANCH   5  17
BRANCH   6  23
ATOM     23  S   UNL     1       0.088  10.229  21.339  0.00  0.00    +0.000 S 
ATOM     24  O   UNL     1       1.052  11.209  21.842  0.00  0.00    +0.000 OA
ATOM     25  O   UNL     1      -0.718   9.490  22.273  0.00  0.00    +0.000 OA
BRANCH  23  26
ATOM     26  C   UNL     1       1.037   9.070  20.366  0.00  0.00    +0.000 A 
ATOM     27  C   UNL     1       1.419   9.401  19.061  0.00  0.00    +0.000 A 
ATOM     28  C   UNL     1       2.084   8.457  18.267  0.00  0.00    +0.000 A 
ATOM     29  C   UNL     1       2.387   7.187  18.775  0.00  0.00    +0.000 A 
ATOM     30  C   UNL     1       3.009   6.118  17.921  0.00  0.00    +0.000 C 
ATOM     31  C   UNL     1       2.081   6.900  20.112  0.00  0.00    +0.000 A 
ATOM     32  C   UNL     1       1.434   7.846  20.915  0.00  0.00    +0.000 A 
ENDBRANCH  23  26
ENDBRANCH   6  23
BRANCH   4  33
ATOM     33  C   UNL     1      -4.404  12.616  19.778  0.00  0.00    +0.000 C 
ATOM     34  O   UNL     1      -5.326  11.844  19.952  0.00  0.00    +0.000 OA
BRANCH  33  35
ATOM     35  O   UNL     1      -4.581  13.953  19.842  0.00  0.00    +0.000 OA
ATOM     36  H   UNL     1      -4.423  14.383  20.697  0.00  0.00    +0.000 HD
ENDBRANCH  33  35
ENDBRANCH   4  33
TORSDOF 8
ENDMDL
