MODEL 1
REMARK VINA RESULT:      -7.6      0.000      0.000
REMARK  Name = 
REMARK  5 active torsions:
REMARK  status: ('A' for Active; 'I' for Inactive)
REMARK    1  A    between atoms: C_1  and  N_2
REMARK    2  A    between atoms: C_5  and  C_6
REMARK    3  A    between atoms: C_6  and  O_7
REMARK    4  A    between atoms: N_13  and  C_14
REMARK    5  A    between atoms: C_14  and  C_15
REMARK                            x       y       z     vdW  Elec       q    Type
REMARK                         _______ _______ _______ _____ _____    ______ ____
ROOT
ATOM      1  C   UNL     1       0.383  11.925  18.325  0.00  0.00    +0.000 C 
ATOM      2  N   UNL     1       0.368  11.011  19.438  0.00  0.00    +0.000 N 
ATOM      3  C   UNL     1      -0.278  11.230  20.649  0.00  0.00    +0.000 A 
ATOM      4  C   UNL     1      -1.083  12.230  21.270  0.00  0.00    +0.000 A 
ATOM      5  C   UNL     1      -1.437  11.838  22.550  0.00  0.00    +0.000 A 
ATOM      6  S   UNL     1      -0.799  10.306  23.006  0.00  0.00    +0.000 S 
ATOM      7  C   UNL     1      -0.053  10.149  21.459  0.00  0.00    +0.000 A 
ATOM      8  C   UNL     1       0.739   9.236  20.735  0.00  0.00    +0.000 A 
ATOM      9  C   UNL     1       1.252   7.963  21.102  0.00  0.00    +0.000 A 
ATOM     10  N   UNL     1       1.957   7.280  20.249  0.00  0.00    +0.000 NA
ATOM     11  N   UNL     1       2.205   7.814  18.965  0.00  0.00    +0.000 N 
ATOM     12  C   UNL     1       1.756   9.076  18.514  0.00  0.00    +0.000 A 
ATOM     13  O   UNL     1       2.001   9.533  17.401  0.00  0.00    +0.000 OA
ATOM     14  C   UNL     1       0.974   9.783  19.502  0.00  0.00    +0.000 A 
ENDROOT
BRANCH   5  15
ATOM     15  C   UNL     1      -2.281  12.580  23.538  0.00  0.00    +0.000 C 
BRANCH  15  16
ATOM     16  O   UNL     1      -3.543  11.931  23.591  0.00  0.00    +0.000 OA
ATOM     17  H   UNL     1      -3.446  11.100  23.095  0.00  0.00    +0.000 HD
ENDBRANCH  15  16
ENDBRANCH   5  15
BRANCH  11  18
ATOM     18  C   UNL     1       2.998   6.975  18.077  0.00  0.00    +0.000 C 
BRANCH  18  19
ATOM     19  C   UNL     1       2.879   5.505  18.388  0.00  0.00    +0.000 A 
ATOM     20  C   UNL     1       1.807   4.747  17.893  0.00  0.00    +0.000 A 
ATOM     21  C   UNL     1       1.733   3.374  18.141  0.00  0.00    +0.000 A 
ATOM     22  C   UNL     1       2.724   2.744  18.896  0.00  0.00    +0.000 A 
ATOM     23  C   UNL     1       3.778   3.492  19.416  0.00  0.00    +0.000 A 
ATOM     24  C   UNL     1       3.844   4.860  19.166  0.00  0.00    +0.000 A 
ATOM     25  F   UNL     1       4.878   5.552  19.667  0.00  0.00    +0.000 F 
ENDBRANCH  18  19
ENDBRANCH  11  18
TORSDOF 4
ENDMDL
MODEL 2
REMARK VINA RESULT:      -7.4      1.971      2.636
REMARK  Name = 
REMARK  5 active torsions:
REMARK  status: ('A' for Active; 'I' for Inactive)
REMARK    1  A    between atoms: C_1  and  N_2
REMARK    2  A    between atoms: C_5  and  C_6
REMARK    3  A    between atoms: C_6  and  O_7
REMARK    4  A    between atoms: N_13  and  C_14
REMARK    5  A    between atoms: C_14  and  C_15
REMARK                            x       y       z     vdW  Elec       q    Type
REMARK                         _______ _______ _______ _____ _____    ______ ____
ROOT
ATOM      1  C   UNL     1       1.335  10.942  18.049  0.00  0.00    +0.000 C 
ATOM      2  N   UNL     1       1.175   9.996  19.122  0.00  0.00    +0.000 N 
ATOM      3  C   UNL     1       0.458  10.220  20.291  0.00  0.00    +0.000 A 
ATOM      4  C   UNL     1      -0.321  11.253  20.889  0.00  0.00    +0.000 A 
ATOM      5  C   UNL     1      -0.796  10.845  22.125  0.00  0.00    +0.000 A 
ATOM      6  S   UNL     1      -0.298   9.258  22.568  0.00  0.00    +0.000 S 
ATOM      7  C   UNL     1       0.549   9.100  21.074  0.00  0.00    +0.000 A 
ATOM      8  C   UNL     1       1.329   8.158  20.375  0.00  0.00    +0.000 A 
ATOM      9  C   UNL     1       1.726   6.841  20.730  0.00  0.00    +0.000 A 
ATOM     10  N   UNL     1       2.445   6.138  19.905  0.00  0.00    +0.000 NA
ATOM     11  N   UNL     1       2.823   6.695  18.663  0.00  0.00    +0.000 N 
ATOM     12  C   UNL     1       2.495   7.999  18.228  0.00  0.00    +0.000 A 
ATOM     13  O   UNL     1       2.852   8.474  17.153  0.00  0.00    +0.000 OA
ATOM     14  C   UNL     1       1.692   8.727  19.183  0.00  0.00    +0.000 A 
ENDROOT
BRANCH   5  15
ATOM     15  C   UNL     1      -1.659  11.612  23.077  0.00  0.00    +0.000 C 
BRANCH  15  16
ATOM     16  O   UNL     1      -0.973  12.813  23.399  0.00  0.00    +0.000 OA
ATOM     17  H   UNL     1      -0.665  13.189  22.556  0.00  0.00    +0.000 HD
ENDBRANCH  15  16
ENDBRANCH   5  15
BRANCH  11  18
ATOM     18  C   UNL     1       3.621   5.832  17.803  0.00  0.00    +0.000 C 
BRANCH  18  19
ATOM     19  C   UNL     1       5.105   6.017  17.990  0.00  0.00    +0.000 A 
ATOM     20  C   UNL     1       5.826   6.918  17.192  0.00  0.00    +0.000 A 
ATOM     21  C   UNL     1       7.191   7.123  17.408  0.00  0.00    +0.000 A 
ATOM     22  C   UNL     1       7.855   6.422  18.416  0.00  0.00    +0.000 A 
ATOM     23  C   UNL     1       7.155   5.504  19.195  0.00  0.00    +0.000 A 
ATOM     24  C   UNL     1       5.794   5.303  18.974  0.00  0.00    +0.000 A 
ATOM     25  F   UNL     1       5.143   4.424  19.750  0.00  0.00    +0.000 F 
ENDBRANCH  18  19
ENDBRANCH  11  18
TORSDOF 4
ENDMDL
MODEL 3
REMARK VINA RESULT:      -7.4      2.071      2.705
REMARK  Name = 
REMARK  5 active torsions:
REMARK  status: ('A' for Active; 'I' for Inactive)
REMARK    1  A    between atoms: C_1  and  N_2
REMARK    2  A    between atoms: C_5  and  C_6
REMARK    3  A    between atoms: C_6  and  O_7
REMARK    4  A    between atoms: N_13  and  C_14
REMARK    5  A    between atoms: C_14  and  C_15
REMARK                            x       y       z     vdW  Elec       q    Type
REMARK                         _______ _______ _______ _____ _____    ______ ____
ROOT
ATOM      1  C   UNL     1       1.615  10.939  18.113  0.00  0.00    +0.000 C 
ATOM      2  N   UNL     1       1.339  10.020  19.186  0.00  0.00    +0.000 N 
ATOM      3  C   UNL     1       0.626  10.322  20.340  0.00  0.00    +0.000 A 
ATOM      4  C   UNL     1      -0.054  11.433  20.920  0.00  0.00    +0.000 A 
ATOM      5  C   UNL     1      -0.592  11.083  22.147  0.00  0.00    +0.000 A 
ATOM      6  S   UNL     1      -0.269   9.455  22.605  0.00  0.00    +0.000 S 
ATOM      7  C   UNL     1       0.585   9.203  21.128  0.00  0.00    +0.000 A 
ATOM      8  C   UNL     1       1.277   8.182  20.447  0.00  0.00    +0.000 A 
ATOM      9  C   UNL     1       1.529   6.833  20.813  0.00  0.00    +0.000 A 
ATOM     10  N   UNL     1       2.188   6.056  20.004  0.00  0.00    +0.000 NA
ATOM     11  N   UNL     1       2.645   6.564  18.769  0.00  0.00    +0.000 N 
ATOM     12  C   UNL     1       2.462   7.893  18.324  0.00  0.00    +0.000 A 
ATOM     13  O   UNL     1       2.887   8.323  17.255  0.00  0.00    +0.000 OA
ATOM     14  C   UNL     1       1.720   8.705  19.261  0.00  0.00    +0.000 A 
ENDROOT
BRANCH   5  15
ATOM     15  C   UNL     1      -1.389  11.939  23.080  0.00  0.00    +0.000 C 
BRANCH  15  16
ATOM     16  O   UNL     1      -0.586  13.061  23.418  0.00  0.00    +0.000 OA
ATOM     17  H   UNL     1       0.316  12.854  23.116  0.00  0.00    +0.000 HD
ENDBRANCH  15  16
ENDBRANCH   5  15
BRANCH  11  18
ATOM     18  C   UNL     1       3.366   5.619  17.927  0.00  0.00    +0.000 C 
BRANCH  18  19
ATOM     19  C   UNL     1       4.863   5.754  18.032  0.00  0.00    +0.000 A 
ATOM     20  C   UNL     1       5.542   5.370  19.199  0.00  0.00    +0.000 A 
ATOM     21  C   UNL     1       6.935   5.449  19.268  0.00  0.00    +0.000 A 
ATOM     22  C   UNL     1       7.666   5.921  18.177  0.00  0.00    +0.000 A 
ATOM     23  C   UNL     1       7.000   6.331  17.024  0.00  0.00    +0.000 A 
ATOM     24  C   UNL     1       5.611   6.251  16.963  0.00  0.00    +0.000 A 
ATOM     25  F   UNL     1       4.998   6.639  15.834  0.00  0.00    +0.000 F 
ENDBRANCH  18  19
ENDBRANCH  11  18
TORSDOF 4
ENDMDL
MODEL 4
REMARK VINA RESULT:      -7.4      1.270      1.620
REMARK  Name = 
REMARK  5 active torsions:
REMARK  status: ('A' for Active; 'I' for Inactive)
REMARK    1  A    between atoms: C_1  and  N_2
REMARK    2  A    between atoms: C_5  and  C_6
REMARK    3  A    between atoms: C_6  and  O_7
REMARK    4  A    between atoms: N_13  and  C_14
REMARK    5  A    between atoms: C_14  and  C_15
REMARK                            x       y       z     vdW  Elec       q    Type
REMARK                         _______ _______ _______ _____ _____    ______ ____
ROOT
ATOM      1  C   UNL     1       1.102  11.251  18.292  0.00  0.00    +0.000 C 
ATOM      2  N   UNL     1       0.966  10.303  19.367  0.00  0.00    +0.000 N 
ATOM      3  C   UNL     1       0.287  10.531  20.558  0.00  0.00    +0.000 A 
ATOM      4  C   UNL     1      -0.463  11.569  21.183  0.00  0.00    +0.000 A 
ATOM      5  C   UNL     1      -0.903  11.162  22.431  0.00  0.00    +0.000 A 
ATOM      6  S   UNL     1      -0.407   9.569  22.854  0.00  0.00    +0.000 S 
ATOM      7  C   UNL     1       0.391   9.408  21.335  0.00  0.00    +0.000 A 
ATOM      8  C   UNL     1       1.140   8.460  20.609  0.00  0.00    +0.000 A 
ATOM      9  C   UNL     1       1.535   7.138  20.947  0.00  0.00    +0.000 A 
ATOM     10  N   UNL     1       2.221   6.431  20.099  0.00  0.00    +0.000 NA
ATOM     11  N   UNL     1       2.566   6.988  18.847  0.00  0.00    +0.000 N 
ATOM     12  C   UNL     1       2.238   8.297  18.427  0.00  0.00    +0.000 A 
ATOM     13  O   UNL     1       2.567   8.771  17.343  0.00  0.00    +0.000 OA
ATOM     14  C   UNL     1       1.472   9.029  19.408  0.00  0.00    +0.000 A 
ENDROOT
BRANCH   5  15
ATOM     15  C   UNL     1      -1.729  11.934  23.412  0.00  0.00    +0.000 C 
BRANCH  15  16
ATOM     16  O   UNL     1      -3.074  11.897  22.958  0.00  0.00    +0.000 OA
ATOM     17  H   UNL     1      -3.607  12.340  23.640  0.00  0.00    +0.000 HD
ENDBRANCH  15  16
ENDBRANCH   5  15
BRANCH  11  18
ATOM     18  C   UNL     1       3.329   6.120  17.961  0.00  0.00    +0.000 C 
BRANCH  18  19
ATOM     19  C   UNL     1       3.120   4.654  18.243  0.00  0.00    +0.000 A 
ATOM     20  C   UNL     1       4.110   3.895  18.885  0.00  0.00    +0.000 A 
ATOM     21  C   UNL     1       3.886   2.549  19.190  0.00  0.00    +0.000 A 
ATOM     22  C   UNL     1       2.676   1.944  18.848  0.00  0.00    +0.000 A 
ATOM     23  C   UNL     1       1.698   2.681  18.184  0.00  0.00    +0.000 A 
ATOM     24  C   UNL     1       1.928   4.021  17.882  0.00  0.00    +0.000 A 
ATOM     25  F   UNL     1       0.962   4.710  17.256  0.00  0.00    +0.000 F 
ENDBRANCH  18  19
ENDBRANCH  11  18
TORSDOF 4
ENDMDL
MODEL 5
REMARK VINA RESULT:      -7.2      3.495      7.402
REMARK  Name = 
REMARK  5 active torsions:
REMARK  status: ('A' for Active; 'I' for Inactive)
REMARK    1  A    between atoms: C_1  and  N_2
REMARK    2  A    between atoms: C_5  and  C_6
REMARK    3  A    between atoms: C_6  and  O_7
REMARK    4  A    between atoms: N_13  and  C_14
REMARK    5  A    between atoms: C_14  and  C_15
REMARK                            x       y       z     vdW  Elec       q    Type
REMARK                         _______ _______ _______ _____ _____    ______ ____
ROOT
ATOM      1  C   UNL     1       3.945   7.003  17.057  0.00  0.00    +0.000 C 
ATOM      2  N   UNL     1       3.213   6.780  18.276  0.00  0.00    +0.000 N 
ATOM      3  C   UNL     1       3.270   5.625  19.048  0.00  0.00    +0.000 A 
ATOM      4  C   UNL     1       3.934   4.364  19.043  0.00  0.00    +0.000 A 
ATOM      5  C   UNL     1       3.551   3.613  20.142  0.00  0.00    +0.000 A 
ATOM      6  S   UNL     1       2.399   4.400  21.151  0.00  0.00    +0.000 S 
ATOM      7  C   UNL     1       2.427   5.779  20.116  0.00  0.00    +0.000 A 
ATOM      8  C   UNL     1       1.843   7.057  20.014  0.00  0.00    +0.000 A 
ATOM      9  C   UNL     1       0.907   7.717  20.854  0.00  0.00    +0.000 A 
ATOM     10  N   UNL     1       0.516   8.923  20.565  0.00  0.00    +0.000 NA
ATOM     11  N   UNL     1       1.029   9.564  19.415  0.00  0.00    +0.000 N 
ATOM     12  C   UNL     1       1.946   8.986  18.508  0.00  0.00    +0.000 A 
ATOM     13  O   UNL     1       2.363   9.551  17.501  0.00  0.00    +0.000 OA
ATOM     14  C   UNL     1       2.347   7.650  18.886  0.00  0.00    +0.000 A 
ENDROOT
BRANCH   5  15
ATOM     15  C   UNL     1       4.014   2.243  20.526  0.00  0.00    +0.000 C 
BRANCH  15  16
ATOM     16  O   UNL     1       5.105   1.910  19.679  0.00  0.00    +0.000 OA
ATOM     17  H   UNL     1       5.392   2.740  19.262  0.00  0.00    +0.000 HD
ENDBRANCH  15  16
ENDBRANCH   5  15
BRANCH  11  18
ATOM     18  C   UNL     1       0.538  10.914  19.176  0.00  0.00    +0.000 C 
BRANCH  18  19
ATOM     19  C   UNL     1      -0.886  10.950  18.685  0.00  0.00    +0.000 A 
ATOM     20  C   UNL     1      -1.306  10.122  17.632  0.00  0.00    +0.000 A 
ATOM     21  C   UNL     1      -2.641  10.123  17.218  0.00  0.00    +0.000 A 
ATOM     22  C   UNL     1      -3.569  10.957  17.843  0.00  0.00    +0.000 A 
ATOM     23  C   UNL     1      -3.157  11.803  18.870  0.00  0.00    +0.000 A 
ATOM     24  C   UNL     1      -1.824  11.799  19.277  0.00  0.00    +0.000 A 
ATOM     25  F   UNL     1      -1.459  12.613  20.278  0.00  0.00    +0.000 F 
ENDBRANCH  18  19
ENDBRANCH  11  18
TORSDOF 4
ENDMDL
MODEL 6
REMARK VINA RESULT:      -7.2      3.205      7.370
REMARK  Name = 
REMARK  5 active torsions:
REMARK  status: ('A' for Active; 'I' for Inactive)
REMARK    1  A    between atoms: C_1  and  N_2
REMARK    2  A    between atoms: C_5  and  C_6
REMARK    3  A    between atoms: C_6  and  O_7
REMARK    4  A    between atoms: N_13  and  C_14
REMARK    5  A    between atoms: C_14  and  C_15
REMARK                            x       y       z     vdW  Elec       q    Type
REMARK                         _______ _______ _______ _____ _____    ______ ____
ROOT
ATOM      1  C   UNL     1       3.902   7.021  16.987  0.00  0.00    +0.000 C 
ATOM      2  N   UNL     1       3.179   6.829  18.217  0.00  0.00    +0.000 N 
ATOM      3  C   UNL     1       3.199   5.674  18.989  0.00  0.00    +0.000 A 
ATOM      4  C   UNL     1       3.809   4.385  18.975  0.00  0.00    +0.000 A 
ATOM      5  C   UNL     1       3.412   3.652  20.080  0.00  0.00    +0.000 A 
ATOM      6  S   UNL     1       2.309   4.486  21.105  0.00  0.00    +0.000 S 
ATOM      7  C   UNL     1       2.379   5.863  20.069  0.00  0.00    +0.000 A 
ATOM      8  C   UNL     1       1.848   7.164  19.974  0.00  0.00    +0.000 A 
ATOM      9  C   UNL     1       0.952   7.863  20.827  0.00  0.00    +0.000 A 
ATOM     10  N   UNL     1       0.608   9.084  20.543  0.00  0.00    +0.000 NA
ATOM     11  N   UNL     1       1.130   9.702  19.385  0.00  0.00    +0.000 N 
ATOM     12  C   UNL     1       2.008   9.087  18.466  0.00  0.00    +0.000 A 
ATOM     13  O   UNL     1       2.434   9.634  17.452  0.00  0.00    +0.000 OA
ATOM     14  C   UNL     1       2.359   7.736  18.839  0.00  0.00    +0.000 A 
ENDROOT
BRANCH   5  15
ATOM     15  C   UNL     1       3.822   2.263  20.458  0.00  0.00    +0.000 C 
BRANCH  15  16
ATOM     16  O   UNL     1       5.061   1.997  19.817  0.00  0.00    +0.000 OA
ATOM     17  H   UNL     1       4.904   2.100  18.862  0.00  0.00    +0.000 HD
ENDBRANCH  15  16
ENDBRANCH   5  15
BRANCH  11  18
ATOM     18  C   UNL     1       0.693  11.072  19.153  0.00  0.00    +0.000 C 
BRANCH  18  19
ATOM     19  C   UNL     1      -0.798  11.197  18.974  0.00  0.00    +0.000 A 
ATOM     20  C   UNL     1      -1.553  12.055  19.789  0.00  0.00    +0.000 A 
ATOM     21  C   UNL     1      -2.927  12.205  19.581  0.00  0.00    +0.000 A 
ATOM     22  C   UNL     1      -3.565  11.492  18.565  0.00  0.00    +0.000 A 
ATOM     23  C   UNL     1      -2.830  10.615  17.769  0.00  0.00    +0.000 A 
ATOM     24  C   UNL     1      -1.461  10.470  17.982  0.00  0.00    +0.000 A 
ATOM     25  F   UNL     1      -0.777   9.631  17.191  0.00  0.00    +0.000 F 
ENDBRANCH  18  19
ENDBRANCH  11  18
TORSDOF 4
ENDMDL
MODEL 7
REMARK VINA RESULT:      -7.1      3.632      8.232
REMARK  Name = 
REMARK  5 active torsions:
REMARK  status: ('A' for Active; 'I' for Inactive)
REMARK    1  A    between atoms: C_1  and  N_2
REMARK    2  A    between atoms: C_5  and  C_6
REMARK    3  A    between atoms: C_6  and  O_7
REMARK    4  A    between atoms: N_13  and  C_14
REMARK    5  A    between atoms: C_14  and  C_15
REMARK                            x       y       z     vdW  Elec       q    Type
REMARK                         _______ _______ _______ _____ _____    ______ ____
ROOT
ATOM      1  C   UNL     1       3.277   4.280  20.016  0.00  0.00    +0.000 C 
ATOM      2  N   UNL     1       3.460   5.319  19.036  0.00  0.00    +0.000 N 
ATOM      3  C   UNL     1       4.279   5.233  17.917  0.00  0.00    +0.000 A 
ATOM      4  C   UNL     1       5.150   4.291  17.296  0.00  0.00    +0.000 A 
ATOM      5  C   UNL     1       5.699   4.828  16.143  0.00  0.00    +0.000 A 
ATOM      6  S   UNL     1       5.194   6.443  15.824  0.00  0.00    +0.000 S 
ATOM      7  C   UNL     1       4.206   6.420  17.237  0.00  0.00    +0.000 A 
ATOM      8  C   UNL     1       3.315   7.255  17.939  0.00  0.00    +0.000 A 
ATOM      9  C   UNL     1       2.882   8.581  17.669  0.00  0.00    +0.000 A 
ATOM     10  N   UNL     1       2.028   9.156  18.462  0.00  0.00    +0.000 NA
ATOM     11  N   UNL     1       1.540   8.454  19.586  0.00  0.00    +0.000 N 
ATOM     12  C   UNL     1       1.923   7.144  19.951  0.00  0.00    +0.000 A 
ATOM     13  O   UNL     1       1.504   6.559  20.945  0.00  0.00    +0.000 OA
ATOM     14  C   UNL     1       2.868   6.556  19.029  0.00  0.00    +0.000 A 
ENDROOT
BRANCH   5  15
ATOM     15  C   UNL     1       6.650   4.178  15.188  0.00  0.00    +0.000 C 
BRANCH  15  16
ATOM     16  O   UNL     1       7.540   5.183  14.725  0.00  0.00    +0.000 OA
ATOM     17  H   UNL     1       8.065   5.462  15.496  0.00  0.00    +0.000 HD
ENDBRANCH  15  16
ENDBRANCH   5  15
BRANCH  11  18
ATOM     18  C   UNL     1       0.582   9.177  20.412  0.00  0.00    +0.000 C 
BRANCH  18  19
ATOM     19  C   UNL     1      -0.008  10.380  19.721  0.00  0.00    +0.000 A 
ATOM     20  C   UNL     1      -1.082  10.244  18.828  0.00  0.00    +0.000 A 
ATOM     21  C   UNL     1      -1.658  11.369  18.233  0.00  0.00    +0.000 A 
ATOM     22  C   UNL     1      -1.161  12.643  18.515  0.00  0.00    +0.000 A 
ATOM     23  C   UNL     1      -0.077  12.787  19.377  0.00  0.00    +0.000 A 
ATOM     24  C   UNL     1       0.493  11.661  19.966  0.00  0.00    +0.000 A 
ATOM     25  F   UNL     1       1.526  11.831  20.804  0.00  0.00    +0.000 F 
ENDBRANCH  18  19
ENDBRANCH  11  18
TORSDOF 4
ENDMDL
MODEL 8
REMARK VINA RESULT:      -7.0      3.848      8.023
REMARK  Name = 
REMARK  5 active torsions:
REMARK  status: ('A' for Active; 'I' for Inactive)
REMARK    1  A    between atoms: C_1  and  N_2
REMARK    2  A    between atoms: C_5  and  C_6
REMARK    3  A    between atoms: C_6  and  O_7
REMARK    4  A    between atoms: N_13  and  C_14
REMARK    5  A    between atoms: C_14  and  C_15
REMARK                            x       y       z     vdW  Elec       q    Type
REMARK                         _______ _______ _______ _____ _____    ______ ____
ROOT
ATOM      1  C   UNL     1       2.538   5.135  20.689  0.00  0.00    +0.000 C 
ATOM      2  N   UNL     1       2.875   5.971  19.567  0.00  0.00    +0.000 N 
ATOM      3  C   UNL     1       3.783   5.647  18.567  0.00  0.00    +0.000 A 
ATOM      4  C   UNL     1       4.641   4.567  18.207  0.00  0.00    +0.000 A 
ATOM      5  C   UNL     1       5.324   4.862  17.038  0.00  0.00    +0.000 A 
ATOM      6  S   UNL     1       4.958   6.417  16.397  0.00  0.00    +0.000 S 
ATOM      7  C   UNL     1       3.849   6.695  17.688  0.00  0.00    +0.000 A 
ATOM      8  C   UNL     1       2.957   7.686  18.144  0.00  0.00    +0.000 A 
ATOM      9  C   UNL     1       2.638   8.962  17.607  0.00  0.00    +0.000 A 
ATOM     10  N   UNL     1       1.757   9.711  18.200  0.00  0.00    +0.000 NA
ATOM     11  N   UNL     1       1.126   9.246  19.375  0.00  0.00    +0.000 N 
ATOM     12  C   UNL     1       1.388   8.005  19.996  0.00  0.00    +0.000 A 
ATOM     13  O   UNL     1       0.845   7.627  21.031  0.00  0.00    +0.000 OA
ATOM     14  C   UNL     1       2.369   7.215  19.288  0.00  0.00    +0.000 A 
ENDROOT
BRANCH   5  15
ATOM     15  C   UNL     1       6.310   4.006  16.309  0.00  0.00    +0.000 C 
BRANCH  15  16
ATOM     16  O   UNL     1       7.587   4.613  16.451  0.00  0.00    +0.000 OA
ATOM     17  H   UNL     1       7.657   4.890  17.381  0.00  0.00    +0.000 HD
ENDBRANCH  15  16
ENDBRANCH   5  15
BRANCH  11  18
ATOM     18  C   UNL     1       0.149  10.151  19.964  0.00  0.00    +0.000 C 
BRANCH  18  19
ATOM     19  C   UNL     1      -0.992  10.479  19.036  0.00  0.00    +0.000 A 
ATOM     20  C   UNL     1      -1.211   9.730  17.870  0.00  0.00    +0.000 A 
ATOM     21  C   UNL     1      -2.303  10.006  17.043  0.00  0.00    +0.000 A 
ATOM     22  C   UNL     1      -3.183  11.040  17.365  0.00  0.00    +0.000 A 
ATOM     23  C   UNL     1      -2.960  11.808  18.506  0.00  0.00    +0.000 A 
ATOM     24  C   UNL     1      -1.868  11.528  19.325  0.00  0.00    +0.000 A 
ATOM     25  F   UNL     1      -1.686  12.275  20.424  0.00  0.00    +0.000 F 
ENDBRANCH  18  19
ENDBRANCH  11  18
TORSDOF 4
ENDMDL
MODEL 9
REMARK VINA RESULT:      -7.0      3.649      8.248
REMARK  Name = 
REMARK  5 active torsions:
REMARK  status: ('A' for Active; 'I' for Inactive)
REMARK    1  A    between atoms: C_1  and  N_2
REMARK    2  A    between atoms: C_5  and  C_6
REMARK    3  A    between atoms: C_6  and  O_7
REMARK    4  A    between atoms: N_13  and  C_14
REMARK    5  A    between atoms: C_14  and  C_15
REMARK                            x       y       z     vdW  Elec       q    Type
REMARK                         _______ _______ _______ _____ _____    ______ ____
ROOT
ATOM      1  C   UNL     1       2.950   4.675  20.473  0.00  0.00    +0.000 C 
ATOM      2  N   UNL     1       3.183   5.622  19.414  0.00  0.00    +0.000 N 
ATOM      3  C   UNL     1       4.040   5.428  18.337  0.00  0.00    +0.000 A 
ATOM      4  C   UNL     1       4.918   4.425  17.832  0.00  0.00    +0.000 A 
ATOM      5  C   UNL     1       5.514   4.853  16.658  0.00  0.00    +0.000 A 
ATOM      6  S   UNL     1       5.045   6.439  16.181  0.00  0.00    +0.000 S 
ATOM      7  C   UNL     1       4.008   6.551  17.554  0.00  0.00    +0.000 A 
ATOM      8  C   UNL     1       3.106   7.456  18.149  0.00  0.00    +0.000 A 
ATOM      9  C   UNL     1       2.703   8.758  17.748  0.00  0.00    +0.000 A 
ATOM     10  N   UNL     1       1.830   9.411  18.457  0.00  0.00    +0.000 NA
ATOM     11  N   UNL     1       1.292   8.816  19.620  0.00  0.00    +0.000 N 
ATOM     12  C   UNL     1       1.643   7.538  20.110  0.00  0.00    +0.000 A 
ATOM     13  O   UNL     1       1.181   7.047  21.137  0.00  0.00    +0.000 OA
ATOM     14  C   UNL     1       2.610   6.860  19.278  0.00  0.00    +0.000 A 
ENDROOT
BRANCH   5  15
ATOM     15  C   UNL     1       6.488   4.110  15.798  0.00  0.00    +0.000 C 
BRANCH  15  16
ATOM     16  O   UNL     1       7.793   4.464  16.231  0.00  0.00    +0.000 OA
ATOM     17  H   UNL     1       7.800   5.432  16.322  0.00  0.00    +0.000 HD
ENDBRANCH  15  16
ENDBRANCH   5  15
BRANCH  11  18
ATOM     18  C   UNL     1       0.317   9.620  20.344  0.00  0.00    +0.000 C 
BRANCH  18  19
ATOM     19  C   UNL     1      -0.027  10.909  19.643  0.00  0.00    +0.000 A 
ATOM     20  C   UNL     1       0.702  12.082  19.892  0.00  0.00    +0.000 A 
ATOM     21  C   UNL     1       0.410  13.259  19.198  0.00  0.00    +0.000 A 
ATOM     22  C   UNL     1      -0.619  13.282  18.256  0.00  0.00    +0.000 A 
ATOM     23  C   UNL     1      -1.368  12.131  18.022  0.00  0.00    +0.000 A 
ATOM     24  C   UNL     1      -1.073  10.961  18.719  0.00  0.00    +0.000 A 
ATOM     25  F   UNL     1      -1.800   9.863  18.462  0.00  0.00    +0.000 F 
ENDBRANCH  18  19
ENDBRANCH  11  18
TORSDOF 4
ENDMDL
