MODEL 1
REMARK VINA RESULT:      -7.3      0.000      0.000
REMARK  Name = 
REMARK  8 active torsions:
REMARK  status: ('A' for Active; 'I' for Inactive)
REMARK    1  A    between atoms: C_1  and  C_2
REMARK    2  A    between atoms: C_2  and  C_3
REMARK    3  A    between atoms: C_8  and  C_9
REMARK    4  A    between atoms: C_14  and  O_15
REMARK    5  A    between atoms: O_15  and  C_16
REMARK    6  A    between atoms: C_18  and  C_19
REMARK    7  A    between atoms: C_24  and  O_25
REMARK    8  A    between atoms: O_25  and  C_26
REMARK                            x       y       z     vdW  Elec       q    Type
REMARK                         _______ _______ _______ _____ _____    ______ ____
ROOT
ATOM      1  C   UNL     1       0.854  15.089  18.844  0.00  0.00    +0.000 C 
ATOM      2  O   UNL     1      -0.346  15.335  18.933  0.00  0.00    +0.000 OA
ATOM      3  N   UNL     1       1.433  13.847  18.755  0.00  0.00    +0.000 N 
ATOM      4  C   UNL     1       0.719  12.657  18.646  0.00  0.00    +0.000 A 
ATOM      5  N   UNL     1      -0.595  12.702  18.409  0.00  0.00    +0.000 NA
ATOM      6  C   UNL     1      -1.268  11.552  18.312  0.00  0.00    +0.000 A 
ATOM      7  C   UNL     1      -0.602  10.353  18.492  0.00  0.00    +0.000 A 
ATOM      8  C   UNL     1       0.769  10.360  18.725  0.00  0.00    +0.000 A 
ATOM      9  N   UNL     1       1.442  11.530  18.776  0.00  0.00    +0.000 NA
ATOM     10  H   UNL     1       2.427  13.715  18.859  0.00  0.00    +0.000 HD
ENDROOT
BRANCH   6  11
ATOM     11  C   UNL     1      -2.736  11.625  18.061  0.00  0.00    +0.000 A 
ATOM     12  C   UNL     1      -3.597  11.942  19.142  0.00  0.00    +0.000 A 
ATOM     13  C   UNL     1      -4.986  11.991  19.009  0.00  0.00    +0.000 A 
ATOM     14  C   UNL     1      -5.566  11.745  17.777  0.00  0.00    +0.000 A 
ATOM     15  C   UNL     1      -4.756  11.454  16.683  0.00  0.00    +0.000 A 
ATOM     16  C   UNL     1      -3.354  11.401  16.804  0.00  0.00    +0.000 A 
BRANCH  16  17
ATOM     17  O   UNL     1      -2.568  11.059  15.725  0.00  0.00    +0.000 OA
ATOM     18  C   UNL     1      -3.043   9.970  14.934  0.00  0.00    +0.000 C 
ENDBRANCH  16  17
ENDBRANCH   6  11
BRANCH   8  19
ATOM     19  C   UNL     1       1.522   9.075  18.884  0.00  0.00    +0.000 A 
ATOM     20  C   UNL     1       2.345   8.632  17.814  0.00  0.00    +0.000 A 
ATOM     21  C   UNL     1       3.029   7.415  17.831  0.00  0.00    +0.000 A 
ATOM     22  C   UNL     1       2.933   6.593  18.938  0.00  0.00    +0.000 A 
ATOM     23  C   UNL     1       2.158   6.997  20.023  0.00  0.00    +0.000 A 
ATOM     24  C   UNL     1       1.465   8.226  20.020  0.00  0.00    +0.000 A 
BRANCH  24  25
ATOM     25  O   UNL     1       0.674   8.601  21.082  0.00  0.00    +0.000 OA
ATOM     26  C   UNL     1       1.355   9.156  22.205  0.00  0.00    +0.000 C 
ENDBRANCH  24  25
ENDBRANCH   8  19
BRANCH   1  28
ATOM     27  C   UNL     1       1.293  17.473  18.206  0.00  0.00    +0.000 C 
ATOM     28  C   UNL     1       1.872  16.214  18.835  0.00  0.00    +0.000 C 
ENDBRANCH   1  28
TORSDOF 5
ENDMDL
MODEL 2
REMARK VINA RESULT:      -7.3      1.084      6.237
REMARK  Name = 
REMARK  8 active torsions:
REMARK  status: ('A' for Active; 'I' for Inactive)
REMARK    1  A    between atoms: C_1  and  C_2
REMARK    2  A    between atoms: C_2  and  C_3
REMARK    3  A    between atoms: C_8  and  C_9
REMARK    4  A    between atoms: C_14  and  O_15
REMARK    5  A    between atoms: O_15  and  C_16
REMARK    6  A    between atoms: C_18  and  C_19
REMARK    7  A    between atoms: C_24  and  O_25
REMARK    8  A    between atoms: O_25  and  C_26
REMARK                            x       y       z     vdW  Elec       q    Type
REMARK                         _______ _______ _______ _____ _____    ______ ____
ROOT
ATOM      1  C   UNL     1       2.537  14.159  18.578  0.00  0.00    +0.000 C 
ATOM      2  O   UNL     1       3.360  13.260  18.428  0.00  0.00    +0.000 OA
ATOM      3  N   UNL     1       1.170  14.024  18.608  0.00  0.00    +0.000 N 
ATOM      4  C   UNL     1       0.504  12.801  18.575  0.00  0.00    +0.000 A 
ATOM      5  N   UNL     1       1.201  11.671  18.726  0.00  0.00    +0.000 NA
ATOM      6  C   UNL     1       0.550  10.506  18.687  0.00  0.00    +0.000 A 
ATOM      7  C   UNL     1      -0.815  10.493  18.459  0.00  0.00    +0.000 A 
ATOM      8  C   UNL     1      -1.496  11.698  18.321  0.00  0.00    +0.000 A 
ATOM      9  N   UNL     1      -0.829  12.869  18.407  0.00  0.00    +0.000 NA
ATOM     10  H   UNL     1       0.556  14.821  18.562  0.00  0.00    +0.000 HD
ENDROOT
BRANCH   6  11
ATOM     11  C   UNL     1       1.349   9.257  18.844  0.00  0.00    +0.000 A 
ATOM     12  C   UNL     1       2.157   8.826  17.762  0.00  0.00    +0.000 A 
ATOM     13  C   UNL     1       2.906   7.649  17.804  0.00  0.00    +0.000 A 
ATOM     14  C   UNL     1       2.889   6.865  18.945  0.00  0.00    +0.000 A 
ATOM     15  C   UNL     1       2.128   7.265  20.041  0.00  0.00    +0.000 A 
ATOM     16  C   UNL     1       1.369   8.450  20.010  0.00  0.00    +0.000 A 
BRANCH  16  17
ATOM     17  O   UNL     1       0.578   8.805  21.082  0.00  0.00    +0.000 OA
ATOM     18  C   UNL     1       1.276   9.192  22.265  0.00  0.00    +0.000 C 
ENDBRANCH  16  17
ENDBRANCH   6  11
BRANCH   8  19
ATOM     19  C   UNL     1      -2.980  11.715  18.113  0.00  0.00    +0.000 A 
ATOM     20  C   UNL     1      -3.820  11.980  19.228  0.00  0.00    +0.000 A 
ATOM     21  C   UNL     1      -5.214  11.946  19.158  0.00  0.00    +0.000 A 
ATOM     22  C   UNL     1      -5.830  11.662  17.954  0.00  0.00    +0.000 A 
ATOM     23  C   UNL     1      -5.049  11.421  16.826  0.00  0.00    +0.000 A 
ATOM     24  C   UNL     1      -3.638  11.456  16.883  0.00  0.00    +0.000 A 
BRANCH  24  25
ATOM     25  O   UNL     1      -2.873  11.183  15.773  0.00  0.00    +0.000 OA
ATOM     26  C   UNL     1      -2.986   9.862  15.244  0.00  0.00    +0.000 C 
ENDBRANCH  24  25
ENDBRANCH   8  19
BRANCH   1  28
ATOM     27  C   UNL     1       3.307  16.230  17.395  0.00  0.00    +0.000 C 
ATOM     28  C   UNL     1       2.988  15.597  18.743  0.00  0.00    +0.000 C 
ENDBRANCH   1  28
TORSDOF 5
ENDMDL
MODEL 3
REMARK VINA RESULT:      -7.3      4.465      9.497
REMARK  Name = 
REMARK  8 active torsions:
REMARK  status: ('A' for Active; 'I' for Inactive)
REMARK    1  A    between atoms: C_1  and  C_2
REMARK    2  A    between atoms: C_2  and  C_3
REMARK    3  A    between atoms: C_8  and  C_9
REMARK    4  A    between atoms: C_14  and  O_15
REMARK    5  A    between atoms: O_15  and  C_16
REMARK    6  A    between atoms: C_18  and  C_19
REMARK    7  A    between atoms: C_24  and  O_25
REMARK    8  A    between atoms: O_25  and  C_26
REMARK                            x       y       z     vdW  Elec       q    Type
REMARK                         _______ _______ _______ _____ _____    ______ ____
ROOT
ATOM      1  C   UNL     1       3.249   2.994  20.628  0.00  0.00    +0.000 C 
ATOM      2  O   UNL     1       4.283   2.654  20.058  0.00  0.00    +0.000 OA
ATOM      3  N   UNL     1       2.572   4.177  20.462  0.00  0.00    +0.000 N 
ATOM      4  C   UNL     1       2.911   5.148  19.524  0.00  0.00    +0.000 A 
ATOM      5  N   UNL     1       3.813   4.860  18.581  0.00  0.00    +0.000 NA
ATOM      6  C   UNL     1       4.133   5.803  17.690  0.00  0.00    +0.000 A 
ATOM      7  C   UNL     1       3.554   7.056  17.785  0.00  0.00    +0.000 A 
ATOM      8  C   UNL     1       2.611   7.302  18.778  0.00  0.00    +0.000 A 
ATOM      9  N   UNL     1       2.267   6.323  19.643  0.00  0.00    +0.000 NA
ATOM     10  H   UNL     1       1.832   4.458  21.086  0.00  0.00    +0.000 HD
ENDROOT
BRANCH   6  11
ATOM     11  C   UNL     1       5.151   5.465  16.655  0.00  0.00    +0.000 A 
ATOM     12  C   UNL     1       4.753   4.687  15.539  0.00  0.00    +0.000 A 
ATOM     13  C   UNL     1       5.646   4.288  14.542  0.00  0.00    +0.000 A 
ATOM     14  C   UNL     1       6.973   4.673  14.617  0.00  0.00    +0.000 A 
ATOM     15  C   UNL     1       7.401   5.459  15.684  0.00  0.00    +0.000 A 
ATOM     16  C   UNL     1       6.510   5.867  16.694  0.00  0.00    +0.000 A 
BRANCH  16  17
ATOM     17  O   UNL     1       6.959   6.600  17.773  0.00  0.00    +0.000 OA
ATOM     18  C   UNL     1       7.709   5.873  18.745  0.00  0.00    +0.000 C 
ENDBRANCH  16  17
ENDBRANCH   6  11
BRANCH   8  19
ATOM     19  C   UNL     1       1.940   8.637  18.878  0.00  0.00    +0.000 A 
ATOM     20  C   UNL     1       2.025   9.526  17.773  0.00  0.00    +0.000 A 
ATOM     21  C   UNL     1       1.499  10.819  17.791  0.00  0.00    +0.000 A 
ATOM     22  C   UNL     1       0.844  11.274  18.920  0.00  0.00    +0.000 A 
ATOM     23  C   UNL     1       0.712  10.429  20.020  0.00  0.00    +0.000 A 
ATOM     24  C   UNL     1       1.236   9.118  20.012  0.00  0.00    +0.000 A 
BRANCH  24  25
ATOM     25  O   UNL     1       1.133   8.303  21.116  0.00  0.00    +0.000 OA
ATOM     26  C   UNL     1       1.100   8.963  22.381  0.00  0.00    +0.000 C 
ENDBRANCH  24  25
ENDBRANCH   8  19
BRANCH   1  28
ATOM     27  C   UNL     1       1.186   2.554  21.981  0.00  0.00    +0.000 C 
ATOM     28  C   UNL     1       2.591   2.077  21.641  0.00  0.00    +0.000 C 
ENDBRANCH   1  28
TORSDOF 5
ENDMDL
MODEL 4
REMARK VINA RESULT:      -7.0      4.208      7.921
REMARK  Name = 
REMARK  8 active torsions:
REMARK  status: ('A' for Active; 'I' for Inactive)
REMARK    1  A    between atoms: C_1  and  C_2
REMARK    2  A    between atoms: C_2  and  C_3
REMARK    3  A    between atoms: C_8  and  C_9
REMARK    4  A    between atoms: C_14  and  O_15
REMARK    5  A    between atoms: O_15  and  C_16
REMARK    6  A    between atoms: C_18  and  C_19
REMARK    7  A    between atoms: C_24  and  O_25
REMARK    8  A    between atoms: O_25  and  C_26
REMARK                            x       y       z     vdW  Elec       q    Type
REMARK                         _______ _______ _______ _____ _____    ______ ____
ROOT
ATOM      1  C   UNL     1       1.678   9.260  18.903  0.00  0.00    +0.000 C 
ATOM      2  O   UNL     1       1.314   8.697  19.933  0.00  0.00    +0.000 OA
ATOM      3  N   UNL     1       2.496   8.742  17.930  0.00  0.00    +0.000 N 
ATOM      4  C   UNL     1       2.964   7.430  17.918  0.00  0.00    +0.000 A 
ATOM      5  N   UNL     1       2.447   6.543  18.772  0.00  0.00    +0.000 NA
ATOM      6  C   UNL     1       2.909   5.290  18.753  0.00  0.00    +0.000 A 
ATOM      7  C   UNL     1       3.927   4.950  17.880  0.00  0.00    +0.000 A 
ATOM      8  C   UNL     1       4.422   5.908  17.001  0.00  0.00    +0.000 A 
ATOM      9  N   UNL     1       3.913   7.159  17.004  0.00  0.00    +0.000 NA
ATOM     10  H   UNL     1       2.889   9.319  17.203  0.00  0.00    +0.000 HD
ENDROOT
BRANCH   6  11
ATOM     11  C   UNL     1       2.328   4.319  19.724  0.00  0.00    +0.000 A 
ATOM     12  C   UNL     1       2.513   4.550  21.110  0.00  0.00    +0.000 A 
ATOM     13  C   UNL     1       2.041   3.674  22.090  0.00  0.00    +0.000 A 
ATOM     14  C   UNL     1       1.343   2.539  21.715  0.00  0.00    +0.000 A 
ATOM     15  C   UNL     1       1.117   2.286  20.365  0.00  0.00    +0.000 A 
ATOM     16  C   UNL     1       1.589   3.162  19.368  0.00  0.00    +0.000 A 
BRANCH  16  17
ATOM     17  O   UNL     1       1.404   2.872  18.033  0.00  0.00    +0.000 OA
ATOM     18  C   UNL     1       2.366   1.992  17.453  0.00  0.00    +0.000 C 
ENDBRANCH  16  17
ENDBRANCH   6  11
BRANCH   8  19
ATOM     19  C   UNL     1       5.497   5.558  16.018  0.00  0.00    +0.000 A 
ATOM     20  C   UNL     1       5.119   4.995  14.770  0.00  0.00    +0.000 A 
ATOM     21  C   UNL     1       6.044   4.565  13.815  0.00  0.00    +0.000 A 
ATOM     22  C   UNL     1       7.396   4.701  14.065  0.00  0.00    +0.000 A 
ATOM     23  C   UNL     1       7.815   5.272  15.265  0.00  0.00    +0.000 A 
ATOM     24  C   UNL     1       6.891   5.713  16.236  0.00  0.00    +0.000 A 
BRANCH  24  25
ATOM     25  O   UNL     1       7.313   6.244  17.433  0.00  0.00    +0.000 OA
ATOM     26  C   UNL     1       7.582   7.645  17.438  0.00  0.00    +0.000 C 
ENDBRANCH  24  25
ENDBRANCH   8  19
BRANCH   1  28
ATOM     27  C   UNL     1      -0.286  10.796  18.643  0.00  0.00    +0.000 C 
ATOM     28  C   UNL     1       1.232  10.678  18.602  0.00  0.00    +0.000 C 
ENDBRANCH   1  28
TORSDOF 5
ENDMDL
MODEL 5
REMARK VINA RESULT:      -7.0      7.011     10.421
REMARK  Name = 
REMARK  8 active torsions:
REMARK  status: ('A' for Active; 'I' for Inactive)
REMARK    1  A    between atoms: C_1  and  C_2
REMARK    2  A    between atoms: C_2  and  C_3
REMARK    3  A    between atoms: C_8  and  C_9
REMARK    4  A    between atoms: C_14  and  O_15
REMARK    5  A    between atoms: O_15  and  C_16
REMARK    6  A    between atoms: C_18  and  C_19
REMARK    7  A    between atoms: C_24  and  O_25
REMARK    8  A    between atoms: O_25  and  C_26
REMARK                            x       y       z     vdW  Elec       q    Type
REMARK                         _______ _______ _______ _____ _____    ______ ____
ROOT
ATOM      1  C   UNL     1       6.886   4.498  13.407  0.00  0.00    +0.000 C 
ATOM      2  O   UNL     1       7.865   5.153  13.756  0.00  0.00    +0.000 OA
ATOM      3  N   UNL     1       5.785   4.199  14.170  0.00  0.00    +0.000 N 
ATOM      4  C   UNL     1       5.563   4.695  15.453  0.00  0.00    +0.000 A 
ATOM      5  N   UNL     1       6.342   5.675  15.920  0.00  0.00    +0.000 NA
ATOM      6  C   UNL     1       6.122   6.137  17.153  0.00  0.00    +0.000 A 
ATOM      7  C   UNL     1       5.123   5.572  17.926  0.00  0.00    +0.000 A 
ATOM      8  C   UNL     1       4.331   4.562  17.389  0.00  0.00    +0.000 A 
ATOM      9  N   UNL     1       4.539   4.137  16.124  0.00  0.00    +0.000 NA
ATOM     10  H   UNL     1       5.103   3.517  13.877  0.00  0.00    +0.000 HD
ENDROOT
BRANCH   6  11
ATOM     11  C   UNL     1       7.011   7.221  17.659  0.00  0.00    +0.000 A 
ATOM     12  C   UNL     1       6.799   8.545  17.199  0.00  0.00    +0.000 A 
ATOM     13  C   UNL     1       7.607   9.616  17.586  0.00  0.00    +0.000 A 
ATOM     14  C   UNL     1       8.651   9.402  18.469  0.00  0.00    +0.000 A 
ATOM     15  C   UNL     1       8.880   8.121  18.965  0.00  0.00    +0.000 A 
ATOM     16  C   UNL     1       8.071   7.034  18.582  0.00  0.00    +0.000 A 
BRANCH  16  17
ATOM     17  O   UNL     1       8.342   5.762  19.039  0.00  0.00    +0.000 OA
ATOM     18  C   UNL     1       8.094   5.536  20.426  0.00  0.00    +0.000 C 
ENDBRANCH  16  17
ENDBRANCH   6  11
BRANCH   8  19
ATOM     19  C   UNL     1       3.217   3.959  18.189  0.00  0.00    +0.000 A 
ATOM     20  C   UNL     1       3.189   2.549  18.361  0.00  0.00    +0.000 A 
ATOM     21  C   UNL     1       2.158   1.881  19.025  0.00  0.00    +0.000 A 
ATOM     22  C   UNL     1       1.113   2.605  19.566  0.00  0.00    +0.000 A 
ATOM     23  C   UNL     1       1.110   3.993  19.446  0.00  0.00    +0.000 A 
ATOM     24  C   UNL     1       2.148   4.681  18.780  0.00  0.00    +0.000 A 
BRANCH  24  25
ATOM     25  O   UNL     1       2.119   6.049  18.636  0.00  0.00    +0.000 OA
ATOM     26  C   UNL     1       2.339   6.809  19.823  0.00  0.00    +0.000 C 
ENDBRANCH  24  25
ENDBRANCH   8  19
BRANCH   1  28
ATOM     27  C   UNL     1       5.610   2.987  11.868  0.00  0.00    +0.000 C 
ATOM     28  C   UNL     1       6.810   3.914  12.010  0.00  0.00    +0.000 C 
ENDBRANCH   1  28
TORSDOF 5
ENDMDL
MODEL 6
REMARK VINA RESULT:      -6.9      8.339     10.189
REMARK  Name = 
REMARK  8 active torsions:
REMARK  status: ('A' for Active; 'I' for Inactive)
REMARK    1  A    between atoms: C_1  and  C_2
REMARK    2  A    between atoms: C_2  and  C_3
REMARK    3  A    between atoms: C_8  and  C_9
REMARK    4  A    between atoms: C_14  and  O_15
REMARK    5  A    between atoms: O_15  and  C_16
REMARK    6  A    between atoms: C_18  and  C_19
REMARK    7  A    between atoms: C_24  and  O_25
REMARK    8  A    between atoms: O_25  and  C_26
REMARK                            x       y       z     vdW  Elec       q    Type
REMARK                         _______ _______ _______ _____ _____    ______ ____
ROOT
ATOM      1  C   UNL     1       7.785   7.484  17.653  0.00  0.00    +0.000 C 
ATOM      2  O   UNL     1       7.996   7.607  16.449  0.00  0.00    +0.000 OA
ATOM      3  N   UNL     1       6.878   6.640  18.245  0.00  0.00    +0.000 N 
ATOM      4  C   UNL     1       6.116   5.701  17.555  0.00  0.00    +0.000 A 
ATOM      5  N   UNL     1       6.402   5.439  16.276  0.00  0.00    +0.000 NA
ATOM      6  C   UNL     1       5.659   4.540  15.625  0.00  0.00    +0.000 A 
ATOM      7  C   UNL     1       4.599   3.931  16.273  0.00  0.00    +0.000 A 
ATOM      8  C   UNL     1       4.351   4.229  17.609  0.00  0.00    +0.000 A 
ATOM      9  N   UNL     1       5.139   5.108  18.265  0.00  0.00    +0.000 NA
ATOM     10  H   UNL     1       6.638   6.717  19.221  0.00  0.00    +0.000 HD
ENDROOT
BRANCH   6  11
ATOM     11  C   UNL     1       5.987   4.272  14.195  0.00  0.00    +0.000 A 
ATOM     12  C   UNL     1       5.091   3.486  13.428  0.00  0.00    +0.000 A 
ATOM     13  C   UNL     1       5.336   3.149  12.095  0.00  0.00    +0.000 A 
ATOM     14  C   UNL     1       6.483   3.607  11.472  0.00  0.00    +0.000 A 
ATOM     15  C   UNL     1       7.379   4.403  12.182  0.00  0.00    +0.000 A 
ATOM     16  C   UNL     1       7.142   4.749  13.527  0.00  0.00    +0.000 A 
BRANCH  16  17
ATOM     17  O   UNL     1       8.064   5.492  14.233  0.00  0.00    +0.000 OA
ATOM     18  C   UNL     1       9.136   6.039  13.467  0.00  0.00    +0.000 C 
ENDBRANCH  16  17
ENDBRANCH   6  11
BRANCH   8  19
ATOM     19  C   UNL     1       3.234   3.556  18.346  0.00  0.00    +0.000 A 
ATOM     20  C   UNL     1       1.897   3.822  17.944  0.00  0.00    +0.000 A 
ATOM     21  C   UNL     1       0.784   3.305  18.609  0.00  0.00    +0.000 A 
ATOM     22  C   UNL     1       0.964   2.478  19.701  0.00  0.00    +0.000 A 
ATOM     23  C   UNL     1       2.257   2.168  20.117  0.00  0.00    +0.000 A 
ATOM     24  C   UNL     1       3.391   2.681  19.451  0.00  0.00    +0.000 A 
BRANCH  24  25
ATOM     25  O   UNL     1       4.664   2.397  19.890  0.00  0.00    +0.000 OA
ATOM     26  C   UNL     1       4.760   1.511  21.003  0.00  0.00    +0.000 C 
ENDBRANCH  24  25
ENDBRANCH   8  19
BRANCH   1  28
ATOM     27  C   UNL     1       8.607   9.780  18.232  0.00  0.00    +0.000 C 
ATOM     28  C   UNL     1       8.554   8.319  18.658  0.00  0.00    +0.000 C 
ENDBRANCH   1  28
TORSDOF 5
ENDMDL
MODEL 7
REMARK VINA RESULT:      -6.9      8.278     10.633
REMARK  Name = 
REMARK  8 active torsions:
REMARK  status: ('A' for Active; 'I' for Inactive)
REMARK    1  A    between atoms: C_1  and  C_2
REMARK    2  A    between atoms: C_2  and  C_3
REMARK    3  A    between atoms: C_8  and  C_9
REMARK    4  A    between atoms: C_14  and  O_15
REMARK    5  A    between atoms: O_15  and  C_16
REMARK    6  A    between atoms: C_18  and  C_19
REMARK    7  A    between atoms: C_24  and  O_25
REMARK    8  A    between atoms: O_25  and  C_26
REMARK                            x       y       z     vdW  Elec       q    Type
REMARK                         _______ _______ _______ _____ _____    ______ ____
ROOT
ATOM      1  C   UNL     1       7.019   4.526  13.361  0.00  0.00    +0.000 C 
ATOM      2  O   UNL     1       7.980   5.191  13.737  0.00  0.00    +0.000 OA
ATOM      3  N   UNL     1       5.913   4.191  14.103  0.00  0.00    +0.000 N 
ATOM      4  C   UNL     1       5.664   4.657  15.391  0.00  0.00    +0.000 A 
ATOM      5  N   UNL     1       6.418   5.642  15.888  0.00  0.00    +0.000 NA
ATOM      6  C   UNL     1       6.171   6.074  17.127  0.00  0.00    +0.000 A 
ATOM      7  C   UNL     1       5.173   5.475  17.875  0.00  0.00    +0.000 A 
ATOM      8  C   UNL     1       4.408   4.462  17.307  0.00  0.00    +0.000 A 
ATOM      9  N   UNL     1       4.642   4.066  16.037  0.00  0.00    +0.000 NA
ATOM     10  H   UNL     1       5.249   3.502  13.786  0.00  0.00    +0.000 HD
ENDROOT
BRANCH   6  11
ATOM     11  C   UNL     1       7.033   7.165  17.667  0.00  0.00    +0.000 A 
ATOM     12  C   UNL     1       6.824   8.489  17.204  0.00  0.00    +0.000 A 
ATOM     13  C   UNL     1       7.609   9.565  17.622  0.00  0.00    +0.000 A 
ATOM     14  C   UNL     1       8.624   9.358  18.540  0.00  0.00    +0.000 A 
ATOM     15  C   UNL     1       8.848   8.078  19.039  0.00  0.00    +0.000 A 
ATOM     16  C   UNL     1       8.063   6.985  18.625  0.00  0.00    +0.000 A 
BRANCH  16  17
ATOM     17  O   UNL     1       8.330   5.713  19.086  0.00  0.00    +0.000 OA
ATOM     18  C   UNL     1       8.147   5.512  20.487  0.00  0.00    +0.000 C 
ENDBRANCH  16  17
ENDBRANCH   6  11
BRANCH   8  19
ATOM     19  C   UNL     1       3.295   3.822  18.079  0.00  0.00    +0.000 A 
ATOM     20  C   UNL     1       1.960   4.228  17.810  0.00  0.00    +0.000 A 
ATOM     21  C   UNL     1       0.859   3.749  18.523  0.00  0.00    +0.000 A 
ATOM     22  C   UNL     1       1.048   2.823  19.531  0.00  0.00    +0.000 A 
ATOM     23  C   UNL     1       2.337   2.376  19.815  0.00  0.00    +0.000 A 
ATOM     24  C   UNL     1       3.458   2.849  19.098  0.00  0.00    +0.000 A 
BRANCH  24  25
ATOM     25  O   UNL     1       4.731   2.428  19.408  0.00  0.00    +0.000 OA
ATOM     26  C   UNL     1       4.914   1.901  20.721  0.00  0.00    +0.000 C 
ENDBRANCH  24  25
ENDBRANCH   8  19
BRANCH   1  28
ATOM     27  C   UNL     1       5.825   2.981  11.790  0.00  0.00    +0.000 C 
ATOM     28  C   UNL     1       6.972   3.967  11.952  0.00  0.00    +0.000 C 
ENDBRANCH   1  28
TORSDOF 5
ENDMDL
MODEL 8
REMARK VINA RESULT:      -6.9      7.069      9.940
REMARK  Name = 
REMARK  8 active torsions:
REMARK  status: ('A' for Active; 'I' for Inactive)
REMARK    1  A    between atoms: C_1  and  C_2
REMARK    2  A    between atoms: C_2  and  C_3
REMARK    3  A    between atoms: C_8  and  C_9
REMARK    4  A    between atoms: C_14  and  O_15
REMARK    5  A    between atoms: O_15  and  C_16
REMARK    6  A    between atoms: C_18  and  C_19
REMARK    7  A    between atoms: C_24  and  O_25
REMARK    8  A    between atoms: O_25  and  C_26
REMARK                            x       y       z     vdW  Elec       q    Type
REMARK                         _______ _______ _______ _____ _____    ______ ____
ROOT
ATOM      1  C   UNL     1       7.796   7.532  17.599  0.00  0.00    +0.000 C 
ATOM      2  O   UNL     1       8.028   7.613  16.395  0.00  0.00    +0.000 OA
ATOM      3  N   UNL     1       6.848   6.741  18.200  0.00  0.00    +0.000 N 
ATOM      4  C   UNL     1       6.060   5.814  17.524  0.00  0.00    +0.000 A 
ATOM      5  N   UNL     1       6.352   5.505  16.257  0.00  0.00    +0.000 NA
ATOM      6  C   UNL     1       5.583   4.618  15.620  0.00  0.00    +0.000 A 
ATOM      7  C   UNL     1       4.491   4.069  16.268  0.00  0.00    +0.000 A 
ATOM      8  C   UNL     1       4.237   4.414  17.592  0.00  0.00    +0.000 A 
ATOM      9  N   UNL     1       5.050   5.279  18.236  0.00  0.00    +0.000 NA
ATOM     10  H   UNL     1       6.599   6.854  19.170  0.00  0.00    +0.000 HD
ENDROOT
BRANCH   6  11
ATOM     11  C   UNL     1       5.920   4.299  14.203  0.00  0.00    +0.000 A 
ATOM     12  C   UNL     1       5.024   3.493  13.457  0.00  0.00    +0.000 A 
ATOM     13  C   UNL     1       5.276   3.108  12.138  0.00  0.00    +0.000 A 
ATOM     14  C   UNL     1       6.432   3.537  11.508  0.00  0.00    +0.000 A 
ATOM     15  C   UNL     1       7.327   4.351  12.197  0.00  0.00    +0.000 A 
ATOM     16  C   UNL     1       7.084   4.745  13.527  0.00  0.00    +0.000 A 
BRANCH  16  17
ATOM     17  O   UNL     1       8.005   5.506  14.214  0.00  0.00    +0.000 OA
ATOM     18  C   UNL     1       9.121   5.964  13.452  0.00  0.00    +0.000 C 
ENDBRANCH  16  17
ENDBRANCH   6  11
BRANCH   8  19
ATOM     19  C   UNL     1       3.085   3.805  18.330  0.00  0.00    +0.000 A 
ATOM     20  C   UNL     1       2.858   2.408  18.204  0.00  0.00    +0.000 A 
ATOM     21  C   UNL     1       1.772   1.755  18.789  0.00  0.00    +0.000 A 
ATOM     22  C   UNL     1       0.869   2.477  19.548  0.00  0.00    +0.000 A 
ATOM     23  C   UNL     1       1.064   3.845  19.721  0.00  0.00    +0.000 A 
ATOM     24  C   UNL     1       2.160   4.516  19.138  0.00  0.00    +0.000 A 
BRANCH  24  25
ATOM     25  O   UNL     1       2.325   5.875  19.286  0.00  0.00    +0.000 OA
ATOM     26  C   UNL     1       1.833   6.437  20.501  0.00  0.00    +0.000 C 
ENDBRANCH  24  25
ENDBRANCH   8  19
BRANCH   1  28
ATOM     27  C   UNL     1       8.583   9.835  18.199  0.00  0.00    +0.000 C 
ATOM     28  C   UNL     1       8.583   8.364  18.592  0.00  0.00    +0.000 C 
ENDBRANCH   1  28
TORSDOF 5
ENDMDL
MODEL 9
REMARK VINA RESULT:      -6.9      1.178      2.030
REMARK  Name = 
REMARK  8 active torsions:
REMARK  status: ('A' for Active; 'I' for Inactive)
REMARK    1  A    between atoms: C_1  and  C_2
REMARK    2  A    between atoms: C_2  and  C_3
REMARK    3  A    between atoms: C_8  and  C_9
REMARK    4  A    between atoms: C_14  and  O_15
REMARK    5  A    between atoms: O_15  and  C_16
REMARK    6  A    between atoms: C_18  and  C_19
REMARK    7  A    between atoms: C_24  and  O_25
REMARK    8  A    between atoms: O_25  and  C_26
REMARK                            x       y       z     vdW  Elec       q    Type
REMARK                         _______ _______ _______ _____ _____    ______ ____
ROOT
ATOM      1  C   UNL     1       0.686  15.306  18.766  0.00  0.00    +0.000 C 
ATOM      2  O   UNL     1      -0.504  15.548  18.949  0.00  0.00    +0.000 OA
ATOM      3  N   UNL     1       1.264  14.065  18.658  0.00  0.00    +0.000 N 
ATOM      4  C   UNL     1       0.550  12.869  18.637  0.00  0.00    +0.000 A 
ATOM      5  N   UNL     1      -0.779  12.902  18.509  0.00  0.00    +0.000 NA
ATOM      6  C   UNL     1      -1.451  11.747  18.496  0.00  0.00    +0.000 A 
ATOM      7  C   UNL     1      -0.764  10.556  18.647  0.00  0.00    +0.000 A 
ATOM      8  C   UNL     1       0.622  10.575  18.764  0.00  0.00    +0.000 A 
ATOM      9  N   UNL     1       1.289  11.749  18.731  0.00  0.00    +0.000 NA
ATOM     10  H   UNL     1       2.264  13.939  18.681  0.00  0.00    +0.000 HD
ENDROOT
BRANCH   6  11
ATOM     11  C   UNL     1      -2.935  11.808  18.367  0.00  0.00    +0.000 A 
ATOM     12  C   UNL     1      -3.531  11.368  17.158  0.00  0.00    +0.000 A 
ATOM     13  C   UNL     1      -4.907  11.426  16.932  0.00  0.00    +0.000 A 
ATOM     14  C   UNL     1      -5.745  11.911  17.922  0.00  0.00    +0.000 A 
ATOM     15  C   UNL     1      -5.203  12.331  19.134  0.00  0.00    +0.000 A 
ATOM     16  C   UNL     1      -3.817  12.277  19.373  0.00  0.00    +0.000 A 
BRANCH  16  17
ATOM     17  O   UNL     1      -3.289  12.746  20.558  0.00  0.00    +0.000 OA
ATOM     18  C   UNL     1      -4.166  12.709  21.683  0.00  0.00    +0.000 C 
ENDBRANCH  16  17
ENDBRANCH   6  11
BRANCH   8  19
ATOM     19  C   UNL     1       1.394   9.297  18.889  0.00  0.00    +0.000 A 
ATOM     20  C   UNL     1       2.177   8.865  17.785  0.00  0.00    +0.000 A 
ATOM     21  C   UNL     1       2.874   7.655  17.772  0.00  0.00    +0.000 A 
ATOM     22  C   UNL     1       2.831   6.830  18.879  0.00  0.00    +0.000 A 
ATOM     23  C   UNL     1       2.098   7.223  19.996  0.00  0.00    +0.000 A 
ATOM     24  C   UNL     1       1.392   8.446  20.024  0.00  0.00    +0.000 A 
BRANCH  24  25
ATOM     25  O   UNL     1       0.641   8.810  21.118  0.00  0.00    +0.000 OA
ATOM     26  C   UNL     1       1.373   9.137  22.299  0.00  0.00    +0.000 C 
ENDBRANCH  24  25
ENDBRANCH   8  19
BRANCH   1  28
ATOM     27  C   UNL     1       2.968  15.962  17.963  0.00  0.00    +0.000 C 
ATOM     28  C   UNL     1       1.692  16.434  18.646  0.00  0.00    +0.000 C 
ENDBRANCH   1  28
TORSDOF 5
ENDMDL
