MODEL 1
REMARK VINA RESULT:      -8.6      0.000      0.000
REMARK  Name = 
REMARK  7 active torsions:
REMARK  status: ('A' for Active; 'I' for Inactive)
REMARK    1  A    between atoms: N_1  and  C_2
REMARK    2  A    between atoms: C_2  and  C_3
REMARK    3  A    between atoms: C_3  and  N_4
REMARK    4  A    between atoms: N_4  and  C_5
REMARK    5  A    between atoms: C_7  and  N_8
REMARK    6  A    between atoms: C_12  and  C_14
REMARK    7  A    between atoms: C_14  and  C_15
REMARK                            x       y       z     vdW  Elec       q    Type
REMARK                         _______ _______ _______ _____ _____    ______ ____
ROOT
ATOM      1  C   UNL     1       0.777  10.556  19.485  0.00  0.00    +0.000 A 
ATOM      2  C   UNL     1       1.469   9.364  19.257  0.00  0.00    +0.000 A 
ATOM      3  C   UNL     1       1.445   8.306  20.159  0.00  0.00    +0.000 A 
ATOM      4  N   UNL     1       0.752   8.423  21.307  0.00  0.00    +0.000 NA
ATOM      5  C   UNL     1       0.127   9.582  21.593  0.00  0.00    +0.000 A 
ATOM      6  C   UNL     1      -0.524   9.684  22.818  0.00  0.00    +0.000 A 
ATOM      7  C   UNL     1      -1.197  10.843  23.211  0.00  0.00    +0.000 A 
ATOM      8  C   UNL     1      -1.237  11.935  22.357  0.00  0.00    +0.000 A 
ATOM      9  C   UNL     1      -0.594  11.861  21.122  0.00  0.00    +0.000 A 
ATOM     10  C   UNL     1       0.104  10.694  20.720  0.00  0.00    +0.000 A 
ENDROOT
BRANCH   3  11
ATOM     11  N   UNL     1       2.113   7.129  19.886  0.00  0.00    +0.000 N 
ATOM     12  C   UNL     1       2.066   5.973  20.791  0.00  0.00    +0.000 C 
ATOM     13  C   UNL     1       1.518   4.743  20.058  0.00  0.00    +0.000 C 
ATOM     14  N   UNL     1       2.278   4.477  18.837  0.00  0.00    +0.000 N 
ATOM     15  C   UNL     1       2.707   3.186  18.590  0.00  0.00    +0.000 C 
ATOM     16  O   UNL     1       2.452   2.257  19.361  0.00  0.00    +0.000 OA
ATOM     17  C   UNL     1       2.313   5.620  17.909  0.00  0.00    +0.000 C 
ATOM     18  C   UNL     1       2.780   6.923  18.593  0.00  0.00    +0.000 C 
BRANCH  15  19
ATOM     19  C   UNL     1       3.556   2.915  17.359  0.00  0.00    +0.000 C 
BRANCH  19  20
ATOM     20  C   UNL     1       4.876   3.641  17.341  0.00  0.00    +0.000 A 
ATOM     21  C   UNL     1       5.549   3.860  16.130  0.00  0.00    +0.000 A 
ATOM     22  C   UNL     1       6.733   4.595  16.108  0.00  0.00    +0.000 A 
ATOM     23  F   UNL     1       7.355   4.800  14.939  0.00  0.00    +0.000 F 
ATOM     24  C   UNL     1       7.270   5.128  17.270  0.00  0.00    +0.000 A 
ATOM     25  C   UNL     1       6.608   4.909  18.469  0.00  0.00    +0.000 A 
ATOM     26  F   UNL     1       7.110   5.423  19.600  0.00  0.00    +0.000 F 
ATOM     27  C   UNL     1       5.422   4.177  18.517  0.00  0.00    +0.000 A 
ENDBRANCH  19  20
ENDBRANCH  15  19
ENDBRANCH   3  11
BRANCH   1  28
ATOM     28  N   UNL     1       0.856  11.599  18.544  0.00  0.00    +0.000 N 
ATOM     29  H   UNL     1       0.223  11.530  17.755  0.00  0.00    +0.000 HD
BRANCH  28  30
ATOM     30  C   UNL     1       2.181  12.090  18.147  0.00  0.00    +0.000 C 
BRANCH  30  31
ATOM     31  C   UNL     1       2.329  13.596  18.455  0.00  0.00    +0.000 C 
BRANCH  31  32
ATOM     32  N   UNL     1       3.465  14.215  17.770  0.00  0.00    +0.000 NA
ATOM     33  H   UNL     1       3.257  15.195  17.587  0.00  0.00    +0.000 HD
ATOM     34  H   UNL     1       3.594  13.773  16.860  0.00  0.00    +0.000 HD
ENDBRANCH  31  32
ENDBRANCH  30  31
ENDBRANCH  28  30
ENDBRANCH   1  28
TORSDOF 7
ENDMDL
MODEL 2
REMARK VINA RESULT:      -8.5      1.460      2.001
REMARK  Name = 
REMARK  7 active torsions:
REMARK  status: ('A' for Active; 'I' for Inactive)
REMARK    1  A    between atoms: N_1  and  C_2
REMARK    2  A    between atoms: C_2  and  C_3
REMARK    3  A    between atoms: C_3  and  N_4
REMARK    4  A    between atoms: N_4  and  C_5
REMARK    5  A    between atoms: C_7  and  N_8
REMARK    6  A    between atoms: C_12  and  C_14
REMARK    7  A    between atoms: C_14  and  C_15
REMARK                            x       y       z     vdW  Elec       q    Type
REMARK                         _______ _______ _______ _____ _____    ______ ____
ROOT
ATOM      1  C   UNL     1      -0.190  10.553  19.156  0.00  0.00    +0.000 A 
ATOM      2  C   UNL     1       0.667   9.459  19.007  0.00  0.00    +0.000 A 
ATOM      3  C   UNL     1       1.056   8.668  20.082  0.00  0.00    +0.000 A 
ATOM      4  N   UNL     1       0.618   8.962  21.321  0.00  0.00    +0.000 NA
ATOM      5  C   UNL     1      -0.155  10.048  21.514  0.00  0.00    +0.000 A 
ATOM      6  C   UNL     1      -0.533  10.354  22.817  0.00  0.00    +0.000 A 
ATOM      7  C   UNL     1      -1.329  11.461  23.124  0.00  0.00    +0.000 A 
ATOM      8  C   UNL     1      -1.775  12.287  22.104  0.00  0.00    +0.000 A 
ATOM      9  C   UNL     1      -1.413  12.005  20.787  0.00  0.00    +0.000 A 
ATOM     10  C   UNL     1      -0.593  10.892  20.467  0.00  0.00    +0.000 A 
ENDROOT
BRANCH   3  11
ATOM     11  N   UNL     1       1.876   7.573  19.894  0.00  0.00    +0.000 N 
ATOM     12  C   UNL     1       2.060   6.545  20.927  0.00  0.00    +0.000 C 
ATOM     13  C   UNL     1       1.661   5.167  20.385  0.00  0.00    +0.000 C 
ATOM     14  N   UNL     1       2.377   4.862  19.147  0.00  0.00    +0.000 N 
ATOM     15  C   UNL     1       2.980   3.625  19.016  0.00  0.00    +0.000 C 
ATOM     16  O   UNL     1       2.916   2.773  19.906  0.00  0.00    +0.000 OA
ATOM     17  C   UNL     1       2.183   5.874  18.094  0.00  0.00    +0.000 C 
ATOM     18  C   UNL     1       2.488   7.306  18.585  0.00  0.00    +0.000 C 
BRANCH  15  19
ATOM     19  C   UNL     1       3.785   3.327  17.761  0.00  0.00    +0.000 C 
BRANCH  19  20
ATOM     20  C   UNL     1       5.087   4.077  17.664  0.00  0.00    +0.000 A 
ATOM     21  C   UNL     1       5.661   4.343  16.413  0.00  0.00    +0.000 A 
ATOM     22  C   UNL     1       6.828   5.100  16.322  0.00  0.00    +0.000 A 
ATOM     23  F   UNL     1       7.354   5.350  15.114  0.00  0.00    +0.000 F 
ATOM     24  C   UNL     1       7.446   5.608  17.454  0.00  0.00    +0.000 A 
ATOM     25  C   UNL     1       6.882   5.342  18.694  0.00  0.00    +0.000 A 
ATOM     26  F   UNL     1       7.462   5.832  19.798  0.00  0.00    +0.000 F 
ATOM     27  C   UNL     1       5.715   4.588  18.810  0.00  0.00    +0.000 A 
ENDBRANCH  19  20
ENDBRANCH  15  19
ENDBRANCH   3  11
BRANCH   1  28
ATOM     28  N   UNL     1      -0.531  11.329  18.033  0.00  0.00    +0.000 N 
ATOM     29  H   UNL     1      -0.111  12.252  17.991  0.00  0.00    +0.000 HD
BRANCH  28  30
ATOM     30  C   UNL     1      -1.927  11.336  17.580  0.00  0.00    +0.000 C 
BRANCH  30  31
ATOM     31  C   UNL     1      -2.211  10.144  16.642  0.00  0.00    +0.000 C 
BRANCH  31  32
ATOM     32  N   UNL     1      -2.681  10.551  15.317  0.00  0.00    +0.000 NA
ATOM     33  H   UNL     1      -1.948  10.380  14.631  0.00  0.00    +0.000 HD
ATOM     34  H   UNL     1      -2.850  11.558  15.313  0.00  0.00    +0.000 HD
ENDBRANCH  31  32
ENDBRANCH  30  31
ENDBRANCH  28  30
ENDBRANCH   1  28
TORSDOF 7
ENDMDL
MODEL 3
REMARK VINA RESULT:      -8.5      1.461      2.459
REMARK  Name = 
REMARK  7 active torsions:
REMARK  status: ('A' for Active; 'I' for Inactive)
REMARK    1  A    between atoms: N_1  and  C_2
REMARK    2  A    between atoms: C_2  and  C_3
REMARK    3  A    between atoms: C_3  and  N_4
REMARK    4  A    between atoms: N_4  and  C_5
REMARK    5  A    between atoms: C_7  and  N_8
REMARK    6  A    between atoms: C_12  and  C_14
REMARK    7  A    between atoms: C_14  and  C_15
REMARK                            x       y       z     vdW  Elec       q    Type
REMARK                         _______ _______ _______ _____ _____    ______ ____
ROOT
ATOM      1  C   UNL     1      -0.184  10.233  19.187  0.00  0.00    +0.000 A 
ATOM      2  C   UNL     1       0.674   9.139  19.036  0.00  0.00    +0.000 A 
ATOM      3  C   UNL     1       1.106   8.379  20.117  0.00  0.00    +0.000 A 
ATOM      4  N   UNL     1       0.712   8.703  21.362  0.00  0.00    +0.000 NA
ATOM      5  C   UNL     1      -0.060   9.790  21.555  0.00  0.00    +0.000 A 
ATOM      6  C   UNL     1      -0.393  10.128  22.862  0.00  0.00    +0.000 A 
ATOM      7  C   UNL     1      -1.184  11.238  23.168  0.00  0.00    +0.000 A 
ATOM      8  C   UNL     1      -1.672  12.035  22.144  0.00  0.00    +0.000 A 
ATOM      9  C   UNL     1      -1.356  11.720  20.823  0.00  0.00    +0.000 A 
ATOM     10  C   UNL     1      -0.542  10.604  20.503  0.00  0.00    +0.000 A 
ENDROOT
BRANCH   3  11
ATOM     11  N   UNL     1       1.926   7.284  19.928  0.00  0.00    +0.000 N 
ATOM     12  C   UNL     1       2.049   6.215  20.928  0.00  0.00    +0.000 C 
ATOM     13  C   UNL     1       1.667   4.863  20.315  0.00  0.00    +0.000 C 
ATOM     14  N   UNL     1       2.441   4.598  19.102  0.00  0.00    +0.000 N 
ATOM     15  C   UNL     1       3.040   3.361  18.955  0.00  0.00    +0.000 C 
ATOM     16  O   UNL     1       2.925   2.477  19.807  0.00  0.00    +0.000 OA
ATOM     17  C   UNL     1       2.307   5.650  18.080  0.00  0.00    +0.000 C 
ATOM     18  C   UNL     1       2.599   7.060  18.641  0.00  0.00    +0.000 C 
BRANCH  15  19
ATOM     19  C   UNL     1       3.903   3.103  17.730  0.00  0.00    +0.000 C 
BRANCH  19  20
ATOM     20  C   UNL     1       5.106   4.001  17.616  0.00  0.00    +0.000 A 
ATOM     21  C   UNL     1       5.708   4.531  18.765  0.00  0.00    +0.000 A 
ATOM     22  C   UNL     1       6.865   5.303  18.661  0.00  0.00    +0.000 A 
ATOM     23  F   UNL     1       7.428   5.792  19.774  0.00  0.00    +0.000 F 
ATOM     24  C   UNL     1       7.447   5.562  17.430  0.00  0.00    +0.000 A 
ATOM     25  C   UNL     1       6.850   5.043  16.290  0.00  0.00    +0.000 A 
ATOM     26  F   UNL     1       7.405   5.277  15.093  0.00  0.00    +0.000 F 
ATOM     27  C   UNL     1       5.694   4.267  16.369  0.00  0.00    +0.000 A 
ENDBRANCH  19  20
ENDBRANCH  15  19
ENDBRANCH   3  11
BRANCH   1  28
ATOM     28  N   UNL     1      -0.570  10.977  18.057  0.00  0.00    +0.000 N 
ATOM     29  H   UNL     1      -0.670  11.976  18.201  0.00  0.00    +0.000 HD
BRANCH  28  30
ATOM     30  C   UNL     1      -1.618  10.437  17.183  0.00  0.00    +0.000 C 
BRANCH  30  31
ATOM     31  C   UNL     1      -2.845  11.372  17.147  0.00  0.00    +0.000 C 
BRANCH  31  32
ATOM     32  N   UNL     1      -3.423  11.514  15.809  0.00  0.00    +0.000 NA
ATOM     33  H   UNL     1      -4.420  11.702  15.889  0.00  0.00    +0.000 HD
ATOM     34  H   UNL     1      -3.336  10.629  15.308  0.00  0.00    +0.000 HD
ENDBRANCH  31  32
ENDBRANCH  30  31
ENDBRANCH  28  30
ENDBRANCH   1  28
TORSDOF 7
ENDMDL
MODEL 4
REMARK VINA RESULT:      -8.4      0.333      1.511
REMARK  Name = 
REMARK  7 active torsions:
REMARK  status: ('A' for Active; 'I' for Inactive)
REMARK    1  A    between atoms: N_1  and  C_2
REMARK    2  A    between atoms: C_2  and  C_3
REMARK    3  A    between atoms: C_3  and  N_4
REMARK    4  A    between atoms: N_4  and  C_5
REMARK    5  A    between atoms: C_7  and  N_8
REMARK    6  A    between atoms: C_12  and  C_14
REMARK    7  A    between atoms: C_14  and  C_15
REMARK                            x       y       z     vdW  Elec       q    Type
REMARK                         _______ _______ _______ _____ _____    ______ ____
ROOT
ATOM      1  C   UNL     1       0.699  10.649  19.482  0.00  0.00    +0.000 A 
ATOM      2  C   UNL     1       1.409   9.466  19.256  0.00  0.00    +0.000 A 
ATOM      3  C   UNL     1       1.401   8.411  20.161  0.00  0.00    +0.000 A 
ATOM      4  N   UNL     1       0.707   8.519  21.309  0.00  0.00    +0.000 NA
ATOM      5  C   UNL     1       0.064   9.669  21.593  0.00  0.00    +0.000 A 
ATOM      6  C   UNL     1      -0.587   9.765  22.817  0.00  0.00    +0.000 A 
ATOM      7  C   UNL     1      -1.278  10.914  23.208  0.00  0.00    +0.000 A 
ATOM      8  C   UNL     1      -1.334  12.003  22.352  0.00  0.00    +0.000 A 
ATOM      9  C   UNL     1      -0.691  11.936  21.117  0.00  0.00    +0.000 A 
ATOM     10  C   UNL     1       0.025  10.779  20.717  0.00  0.00    +0.000 A 
ENDROOT
BRANCH   3  11
ATOM     11  N   UNL     1       2.087   7.243  19.890  0.00  0.00    +0.000 N 
ATOM     12  C   UNL     1       2.099   6.107  20.822  0.00  0.00    +0.000 C 
ATOM     13  C   UNL     1       1.555   4.849  20.135  0.00  0.00    +0.000 C 
ATOM     14  N   UNL     1       2.279   4.572  18.894  0.00  0.00    +0.000 N 
ATOM     15  C   UNL     1       2.729   3.286  18.661  0.00  0.00    +0.000 C 
ATOM     16  O   UNL     1       2.523   2.370  19.460  0.00  0.00    +0.000 OA
ATOM     17  C   UNL     1       2.254   5.694  17.941  0.00  0.00    +0.000 C 
ATOM     18  C   UNL     1       2.714   7.024  18.579  0.00  0.00    +0.000 C 
BRANCH  15  19
ATOM     19  C   UNL     1       3.541   3.008  17.406  0.00  0.00    +0.000 C 
BRANCH  19  20
ATOM     20  C   UNL     1       4.845   3.757  17.329  0.00  0.00    +0.000 A 
ATOM     21  C   UNL     1       5.442   4.263  18.493  0.00  0.00    +0.000 A 
ATOM     22  C   UNL     1       6.684   4.892  18.428  0.00  0.00    +0.000 A 
ATOM     23  F   UNL     1       7.241   5.360  19.554  0.00  0.00    +0.000 F 
ATOM     24  C   UNL     1       7.358   5.031  17.225  0.00  0.00    +0.000 A 
ATOM     25  C   UNL     1       6.767   4.534  16.071  0.00  0.00    +0.000 A 
ATOM     26  F   UNL     1       7.409   4.653  14.901  0.00  0.00    +0.000 F 
ATOM     27  C   UNL     1       5.526   3.901  16.111  0.00  0.00    +0.000 A 
ENDBRANCH  19  20
ENDBRANCH  15  19
ENDBRANCH   3  11
BRANCH   1  28
ATOM     28  N   UNL     1       0.763  11.691  18.539  0.00  0.00    +0.000 N 
ATOM     29  H   UNL     1       0.264  11.531  17.671  0.00  0.00    +0.000 HD
BRANCH  28  30
ATOM     30  C   UNL     1       2.047  12.366  18.322  0.00  0.00    +0.000 C 
BRANCH  30  31
ATOM     31  C   UNL     1       2.332  13.390  19.441  0.00  0.00    +0.000 C 
BRANCH  31  32
ATOM     32  N   UNL     1       3.475  14.258  19.152  0.00  0.00    +0.000 NA
ATOM     33  H   UNL     1       3.170  15.229  19.147  0.00  0.00    +0.000 HD
ATOM     34  H   UNL     1       3.821  14.060  18.212  0.00  0.00    +0.000 HD
ENDBRANCH  31  32
ENDBRANCH  30  31
ENDBRANCH  28  30
ENDBRANCH   1  28
TORSDOF 7
ENDMDL
MODEL 5
REMARK VINA RESULT:      -8.4      4.716     10.096
REMARK  Name = 
REMARK  7 active torsions:
REMARK  status: ('A' for Active; 'I' for Inactive)
REMARK    1  A    between atoms: N_1  and  C_2
REMARK    2  A    between atoms: C_2  and  C_3
REMARK    3  A    between atoms: C_3  and  N_4
REMARK    4  A    between atoms: N_4  and  C_5
REMARK    5  A    between atoms: C_7  and  N_8
REMARK    6  A    between atoms: C_12  and  C_14
REMARK    7  A    between atoms: C_14  and  C_15
REMARK                            x       y       z     vdW  Elec       q    Type
REMARK                         _______ _______ _______ _____ _____    ______ ____
ROOT
ATOM      1  C   UNL     1       2.487   4.825  18.531  0.00  0.00    +0.000 A 
ATOM      2  C   UNL     1       2.007   5.939  19.226  0.00  0.00    +0.000 A 
ATOM      3  C   UNL     1       2.438   7.231  18.946  0.00  0.00    +0.000 A 
ATOM      4  N   UNL     1       3.362   7.435  17.989  0.00  0.00    +0.000 NA
ATOM      5  C   UNL     1       3.897   6.380  17.344  0.00  0.00    +0.000 A 
ATOM      6  C   UNL     1       4.896   6.627  16.409  0.00  0.00    +0.000 A 
ATOM      7  C   UNL     1       5.517   5.603  15.690  0.00  0.00    +0.000 A 
ATOM      8  C   UNL     1       5.128   4.289  15.897  0.00  0.00    +0.000 A 
ATOM      9  C   UNL     1       4.128   4.010  16.828  0.00  0.00    +0.000 A 
ATOM     10  C   UNL     1       3.502   5.041  17.573  0.00  0.00    +0.000 A 
ENDROOT
BRANCH   3  11
ATOM     11  N   UNL     1       1.918   8.313  19.629  0.00  0.00    +0.000 N 
ATOM     12  C   UNL     1       1.507   9.547  18.945  0.00  0.00    +0.000 C 
ATOM     13  C   UNL     1       0.030   9.846  19.226  0.00  0.00    +0.000 C 
ATOM     14  N   UNL     1      -0.236   9.878  20.664  0.00  0.00    +0.000 N 
ATOM     15  C   UNL     1      -0.964  10.934  21.181  0.00  0.00    +0.000 C 
ATOM     16  O   UNL     1      -1.403  11.835  20.462  0.00  0.00    +0.000 OA
ATOM     17  C   UNL     1       0.148   8.637  21.358  0.00  0.00    +0.000 C 
ATOM     18  C   UNL     1       1.606   8.221  21.062  0.00  0.00    +0.000 C 
BRANCH  15  19
ATOM     19  C   UNL     1      -1.184  11.009  22.683  0.00  0.00    +0.000 C 
BRANCH  19  20
ATOM     20  C   UNL     1      -1.852  12.275  23.152  0.00  0.00    +0.000 A 
ATOM     21  C   UNL     1      -1.119  13.464  23.264  0.00  0.00    +0.000 A 
ATOM     22  C   UNL     1      -1.756  14.650  23.628  0.00  0.00    +0.000 A 
ATOM     23  F   UNL     1      -1.037  15.778  23.720  0.00  0.00    +0.000 F 
ATOM     24  C   UNL     1      -3.118  14.686  23.883  0.00  0.00    +0.000 A 
ATOM     25  C   UNL     1      -3.845  13.509  23.777  0.00  0.00    +0.000 A 
ATOM     26  F   UNL     1      -5.164  13.528  24.012  0.00  0.00    +0.000 F 
ATOM     27  C   UNL     1      -3.230  12.311  23.414  0.00  0.00    +0.000 A 
ENDBRANCH  19  20
ENDBRANCH  15  19
ENDBRANCH   3  11
BRANCH   1  28
ATOM     28  N   UNL     1       2.028   3.540  18.874  0.00  0.00    +0.000 N 
ATOM     29  H   UNL     1       1.799   2.931  18.096  0.00  0.00    +0.000 HD
BRANCH  28  30
ATOM     30  C   UNL     1       1.074   3.404  19.980  0.00  0.00    +0.000 C 
BRANCH  30  31
ATOM     31  C   UNL     1       1.617   2.454  21.068  0.00  0.00    +0.000 C 
BRANCH  31  32
ATOM     32  N   UNL     1       2.223   3.158  22.199  0.00  0.00    +0.000 NA
ATOM     33  H   UNL     1       2.762   3.950  21.855  0.00  0.00    +0.000 HD
ATOM     34  H   UNL     1       2.887   2.540  22.667  0.00  0.00    +0.000 HD
ENDBRANCH  31  32
ENDBRANCH  30  31
ENDBRANCH  28  30
ENDBRANCH   1  28
TORSDOF 7
ENDMDL
MODEL 6
REMARK VINA RESULT:      -8.3      4.673     10.064
REMARK  Name = 
REMARK  7 active torsions:
REMARK  status: ('A' for Active; 'I' for Inactive)
REMARK    1  A    between atoms: N_1  and  C_2
REMARK    2  A    between atoms: C_2  and  C_3
REMARK    3  A    between atoms: C_3  and  N_4
REMARK    4  A    between atoms: N_4  and  C_5
REMARK    5  A    between atoms: C_7  and  N_8
REMARK    6  A    between atoms: C_12  and  C_14
REMARK    7  A    between atoms: C_14  and  C_15
REMARK                            x       y       z     vdW  Elec       q    Type
REMARK                         _______ _______ _______ _____ _____    ______ ____
ROOT
ATOM      1  C   UNL     1       2.694   4.758  18.421  0.00  0.00    +0.000 A 
ATOM      2  C   UNL     1       2.201   5.866  19.116  0.00  0.00    +0.000 A 
ATOM      3  C   UNL     1       2.586   7.166  18.810  0.00  0.00    +0.000 A 
ATOM      4  N   UNL     1       3.478   7.385  17.826  0.00  0.00    +0.000 NA
ATOM      5  C   UNL     1       4.026   6.338  17.178  0.00  0.00    +0.000 A 
ATOM      6  C   UNL     1       4.992   6.603  16.213  0.00  0.00    +0.000 A 
ATOM      7  C   UNL     1       5.623   5.588  15.490  0.00  0.00    +0.000 A 
ATOM      8  C   UNL     1       5.278   4.266  15.722  0.00  0.00    +0.000 A 
ATOM      9  C   UNL     1       4.313   3.969  16.683  0.00  0.00    +0.000 A 
ATOM     10  C   UNL     1       3.677   4.991  17.433  0.00  0.00    +0.000 A 
ENDROOT
BRANCH   3  11
ATOM     11  N   UNL     1       2.053   8.241  19.494  0.00  0.00    +0.000 N 
ATOM     12  C   UNL     1       1.614   9.465  18.811  0.00  0.00    +0.000 C 
ATOM     13  C   UNL     1       0.134   9.738  19.103  0.00  0.00    +0.000 C 
ATOM     14  N   UNL     1      -0.119   9.770  20.544  0.00  0.00    +0.000 N 
ATOM     15  C   UNL     1      -0.860  10.815  21.064  0.00  0.00    +0.000 C 
ATOM     16  O   UNL     1      -1.322  11.705  20.347  0.00  0.00    +0.000 OA
ATOM     17  C   UNL     1       0.294   8.538  21.238  0.00  0.00    +0.000 C 
ATOM     18  C   UNL     1       1.756   8.148  20.930  0.00  0.00    +0.000 C 
BRANCH  15  19
ATOM     19  C   UNL     1      -1.069  10.891  22.569  0.00  0.00    +0.000 C 
BRANCH  19  20
ATOM     20  C   UNL     1      -1.728  12.159  23.043  0.00  0.00    +0.000 A 
ATOM     21  C   UNL     1      -3.080  12.161  23.412  0.00  0.00    +0.000 A 
ATOM     22  C   UNL     1      -3.668  13.318  23.920  0.00  0.00    +0.000 A 
ATOM     23  F   UNL     1      -4.960  13.295  24.276  0.00  0.00    +0.000 F 
ATOM     24  C   UNL     1      -2.939  14.487  24.075  0.00  0.00    +0.000 A 
ATOM     25  C   UNL     1      -1.601  14.489  23.705  0.00  0.00    +0.000 A 
ATOM     26  F   UNL     1      -0.880  15.608  23.856  0.00  0.00    +0.000 F 
ATOM     27  C   UNL     1      -0.991  13.343  23.196  0.00  0.00    +0.000 A 
ENDBRANCH  19  20
ENDBRANCH  15  19
ENDBRANCH   3  11
BRANCH   1  28
ATOM     28  N   UNL     1       2.283   3.464  18.791  0.00  0.00    +0.000 N 
ATOM     29  H   UNL     1       1.282   3.333  18.897  0.00  0.00    +0.000 HD
BRANCH  28  30
ATOM     30  C   UNL     1       3.045   2.750  19.821  0.00  0.00    +0.000 C 
BRANCH  30  31
ATOM     31  C   UNL     1       2.319   2.801  21.183  0.00  0.00    +0.000 C 
BRANCH  31  32
ATOM     32  N   UNL     1       0.871   2.971  21.057  0.00  0.00    +0.000 NA
ATOM     33  H   UNL     1       0.661   3.946  20.850  0.00  0.00    +0.000 HD
ATOM     34  H   UNL     1       0.427   2.767  21.954  0.00  0.00    +0.000 HD
ENDBRANCH  31  32
ENDBRANCH  30  31
ENDBRANCH  28  30
ENDBRANCH   1  28
TORSDOF 7
ENDMDL
MODEL 7
REMARK VINA RESULT:      -8.3      4.734      9.731
REMARK  Name = 
REMARK  7 active torsions:
REMARK  status: ('A' for Active; 'I' for Inactive)
REMARK    1  A    between atoms: N_1  and  C_2
REMARK    2  A    between atoms: C_2  and  C_3
REMARK    3  A    between atoms: C_3  and  N_4
REMARK    4  A    between atoms: N_4  and  C_5
REMARK    5  A    between atoms: C_7  and  N_8
REMARK    6  A    between atoms: C_12  and  C_14
REMARK    7  A    between atoms: C_14  and  C_15
REMARK                            x       y       z     vdW  Elec       q    Type
REMARK                         _______ _______ _______ _____ _____    ______ ____
ROOT
ATOM      1  C   UNL     1       3.799   5.711  17.442  0.00  0.00    +0.000 A 
ATOM      2  C   UNL     1       3.375   6.936  17.963  0.00  0.00    +0.000 A 
ATOM      3  C   UNL     1       2.342   7.033  18.889  0.00  0.00    +0.000 A 
ATOM      4  N   UNL     1       1.703   5.920  19.295  0.00  0.00    +0.000 NA
ATOM      5  C   UNL     1       2.038   4.728  18.765  0.00  0.00    +0.000 A 
ATOM      6  C   UNL     1       1.311   3.611  19.162  0.00  0.00    +0.000 A 
ATOM      7  C   UNL     1       1.577   2.332  18.669  0.00  0.00    +0.000 A 
ATOM      8  C   UNL     1       2.605   2.150  17.757  0.00  0.00    +0.000 A 
ATOM      9  C   UNL     1       3.353   3.251  17.341  0.00  0.00    +0.000 A 
ATOM     10  C   UNL     1       3.082   4.555  17.825  0.00  0.00    +0.000 A 
ENDROOT
BRANCH   3  11
ATOM     11  N   UNL     1       1.972   8.257  19.410  0.00  0.00    +0.000 N 
ATOM     12  C   UNL     1       1.779   9.442  18.564  0.00  0.00    +0.000 C 
ATOM     13  C   UNL     1       0.357   9.990  18.728  0.00  0.00    +0.000 C 
ATOM     14  N   UNL     1       0.049  10.241  20.136  0.00  0.00    +0.000 N 
ATOM     15  C   UNL     1      -0.524  11.450  20.485  0.00  0.00    +0.000 C 
ATOM     16  O   UNL     1      -0.794  12.309  19.642  0.00  0.00    +0.000 OA
ATOM     17  C   UNL     1       0.215   9.054  20.992  0.00  0.00    +0.000 C 
ATOM     18  C   UNL     1       1.600   8.393  20.825  0.00  0.00    +0.000 C 
BRANCH  15  19
ATOM     19  C   UNL     1      -0.782  11.745  21.954  0.00  0.00    +0.000 C 
BRANCH  19  20
ATOM     20  C   UNL     1      -2.186  12.195  22.261  0.00  0.00    +0.000 A 
ATOM     21  C   UNL     1      -3.021  12.664  21.237  0.00  0.00    +0.000 A 
ATOM     22  C   UNL     1      -4.343  13.011  21.513  0.00  0.00    +0.000 A 
ATOM     23  F   UNL     1      -5.126  13.448  20.517  0.00  0.00    +0.000 F 
ATOM     24  C   UNL     1      -4.864  12.900  22.792  0.00  0.00    +0.000 A 
ATOM     25  C   UNL     1      -4.038  12.440  23.808  0.00  0.00    +0.000 A 
ATOM     26  F   UNL     1      -4.528  12.319  25.050  0.00  0.00    +0.000 F 
ATOM     27  C   UNL     1      -2.712  12.087  23.557  0.00  0.00    +0.000 A 
ENDBRANCH  19  20
ENDBRANCH  15  19
ENDBRANCH   3  11
BRANCH   1  28
ATOM     28  N   UNL     1       4.836   5.679  16.492  0.00  0.00    +0.000 N 
ATOM     29  H   UNL     1       4.719   5.016  15.733  0.00  0.00    +0.000 HD
BRANCH  28  30
ATOM     30  C   UNL     1       6.225   5.739  16.962  0.00  0.00    +0.000 C 
BRANCH  30  31
ATOM     31  C   UNL     1       6.960   4.410  16.689  0.00  0.00    +0.000 C 
BRANCH  31  32
ATOM     32  N   UNL     1       8.083   4.175  17.598  0.00  0.00    +0.000 NA
ATOM     33  H   UNL     1       7.921   4.672  18.472  0.00  0.00    +0.000 HD
ATOM     34  H   UNL     1       8.933   4.571  17.196  0.00  0.00    +0.000 HD
ENDBRANCH  31  32
ENDBRANCH  30  31
ENDBRANCH  28  30
ENDBRANCH   1  28
TORSDOF 7
ENDMDL
MODEL 8
REMARK VINA RESULT:      -8.3      5.042     10.066
REMARK  Name = 
REMARK  7 active torsions:
REMARK  status: ('A' for Active; 'I' for Inactive)
REMARK    1  A    between atoms: N_1  and  C_2
REMARK    2  A    between atoms: C_2  and  C_3
REMARK    3  A    between atoms: C_3  and  N_4
REMARK    4  A    between atoms: N_4  and  C_5
REMARK    5  A    between atoms: C_7  and  N_8
REMARK    6  A    between atoms: C_12  and  C_14
REMARK    7  A    between atoms: C_14  and  C_15
REMARK                            x       y       z     vdW  Elec       q    Type
REMARK                         _______ _______ _______ _____ _____    ______ ____
ROOT
ATOM      1  C   UNL     1       3.194   5.823  18.358  0.00  0.00    +0.000 A 
ATOM      2  C   UNL     1       2.757   7.077  18.795  0.00  0.00    +0.000 A 
ATOM      3  C   UNL     1       1.920   7.230  19.895  0.00  0.00    +0.000 A 
ATOM      4  N   UNL     1       1.489   6.144  20.563  0.00  0.00    +0.000 NA
ATOM      5  C   UNL     1       1.835   4.915  20.131  0.00  0.00    +0.000 A 
ATOM      6  C   UNL     1       1.316   3.818  20.809  0.00  0.00    +0.000 A 
ATOM      7  C   UNL     1       1.610   2.503  20.439  0.00  0.00    +0.000 A 
ATOM      8  C   UNL     1       2.455   2.267  19.365  0.00  0.00    +0.000 A 
ATOM      9  C   UNL     1       2.990   3.348  18.666  0.00  0.00    +0.000 A 
ATOM     10  C   UNL     1       2.687   4.686  19.026  0.00  0.00    +0.000 A 
ENDROOT
BRANCH   3  11
ATOM     11  N   UNL     1       1.535   8.486  20.321  0.00  0.00    +0.000 N 
ATOM     12  C   UNL     1       1.102   9.532  19.385  0.00  0.00    +0.000 C 
ATOM     13  C   UNL     1      -0.316  10.002  19.729  0.00  0.00    +0.000 C 
ATOM     14  N   UNL     1      -0.407  10.419  21.128  0.00  0.00    +0.000 N 
ATOM     15  C   UNL     1      -1.018  11.624  21.423  0.00  0.00    +0.000 C 
ATOM     16  O   UNL     1      -1.499  12.342  20.543  0.00  0.00    +0.000 OA
ATOM     17  C   UNL     1       0.001   9.371  22.079  0.00  0.00    +0.000 C 
ATOM     18  C   UNL     1       1.393   8.786  21.752  0.00  0.00    +0.000 C 
BRANCH  15  19
ATOM     19  C   UNL     1      -1.055  12.095  22.868  0.00  0.00    +0.000 C 
BRANCH  19  20
ATOM     20  C   UNL     1      -2.290  12.873  23.238  0.00  0.00    +0.000 A 
ATOM     21  C   UNL     1      -3.434  12.209  23.702  0.00  0.00    +0.000 A 
ATOM     22  C   UNL     1      -4.550  12.937  24.113  0.00  0.00    +0.000 A 
ATOM     23  F   UNL     1      -5.630  12.281  24.561  0.00  0.00    +0.000 F 
ATOM     24  C   UNL     1      -4.558  14.322  24.078  0.00  0.00    +0.000 A 
ATOM     25  C   UNL     1      -3.428  14.982  23.616  0.00  0.00    +0.000 A 
ATOM     26  F   UNL     1      -3.415  16.321  23.584  0.00  0.00    +0.000 F 
ATOM     27  C   UNL     1      -2.299  14.276  23.200  0.00  0.00    +0.000 A 
ENDBRANCH  19  20
ENDBRANCH  15  19
ENDBRANCH   3  11
BRANCH   1  28
ATOM     28  N   UNL     1       4.024   5.731  17.226  0.00  0.00    +0.000 N 
ATOM     29  H   UNL     1       3.813   4.973  16.585  0.00  0.00    +0.000 HD
BRANCH  28  30
ATOM     30  C   UNL     1       5.469   5.925  17.394  0.00  0.00    +0.000 C 
BRANCH  30  31
ATOM     31  C   UNL     1       6.265   5.058  16.395  0.00  0.00    +0.000 C 
BRANCH  31  32
ATOM     32  N   UNL     1       5.877   3.646  16.422  0.00  0.00    +0.000 NA
ATOM     33  H   UNL     1       5.200   3.495  17.167  0.00  0.00    +0.000 HD
ATOM     34  H   UNL     1       6.692   3.076  16.654  0.00  0.00    +0.000 HD
ENDBRANCH  31  32
ENDBRANCH  30  31
ENDBRANCH  28  30
ENDBRANCH   1  28
TORSDOF 7
ENDMDL
MODEL 9
REMARK VINA RESULT:      -8.3      5.081      9.996
REMARK  Name = 
REMARK  7 active torsions:
REMARK  status: ('A' for Active; 'I' for Inactive)
REMARK    1  A    between atoms: N_1  and  C_2
REMARK    2  A    between atoms: C_2  and  C_3
REMARK    3  A    between atoms: C_3  and  N_4
REMARK    4  A    between atoms: N_4  and  C_5
REMARK    5  A    between atoms: C_7  and  N_8
REMARK    6  A    between atoms: C_12  and  C_14
REMARK    7  A    between atoms: C_14  and  C_15
REMARK                            x       y       z     vdW  Elec       q    Type
REMARK                         _______ _______ _______ _____ _____    ______ ____
ROOT
ATOM      1  C   UNL     1       3.216   5.919  18.372  0.00  0.00    +0.000 A 
ATOM      2  C   UNL     1       2.759   7.161  18.823  0.00  0.00    +0.000 A 
ATOM      3  C   UNL     1       1.921   7.288  19.925  0.00  0.00    +0.000 A 
ATOM      4  N   UNL     1       1.509   6.189  20.582  0.00  0.00    +0.000 NA
ATOM      5  C   UNL     1       1.874   4.970  20.137  0.00  0.00    +0.000 A 
ATOM      6  C   UNL     1       1.374   3.857  20.804  0.00  0.00    +0.000 A 
ATOM      7  C   UNL     1       1.689   2.552  20.419  0.00  0.00    +0.000 A 
ATOM      8  C   UNL     1       2.536   2.341  19.341  0.00  0.00    +0.000 A 
ATOM      9  C   UNL     1       3.053   3.438  18.653  0.00  0.00    +0.000 A 
ATOM     10  C   UNL     1       2.728   4.767  19.028  0.00  0.00    +0.000 A 
ENDROOT
BRANCH   3  11
ATOM     11  N   UNL     1       1.516   8.533  20.364  0.00  0.00    +0.000 N 
ATOM     12  C   UNL     1       1.058   9.579  19.441  0.00  0.00    +0.000 C 
ATOM     13  C   UNL     1      -0.367  10.020  19.799  0.00  0.00    +0.000 C 
ATOM     14  N   UNL     1      -0.454  10.423  21.202  0.00  0.00    +0.000 N 
ATOM     15  C   UNL     1      -1.086  11.614  21.513  0.00  0.00    +0.000 C 
ATOM     16  O   UNL     1      -1.586  12.331  20.643  0.00  0.00    +0.000 OA
ATOM     17  C   UNL     1      -0.021   9.375  22.141  0.00  0.00    +0.000 C 
ATOM     18  C   UNL     1       1.379   8.818  21.799  0.00  0.00    +0.000 C 
BRANCH  15  19
ATOM     19  C   UNL     1      -1.120  12.072  22.962  0.00  0.00    +0.000 C 
BRANCH  19  20
ATOM     20  C   UNL     1      -2.316  12.913  23.321  0.00  0.00    +0.000 A 
ATOM     21  C   UNL     1      -2.263  14.309  23.205  0.00  0.00    +0.000 A 
ATOM     22  C   UNL     1      -3.395  15.080  23.467  0.00  0.00    +0.000 A 
ATOM     23  F   UNL     1      -3.324  16.412  23.341  0.00  0.00    +0.000 F 
ATOM     24  C   UNL     1      -4.593  14.493  23.845  0.00  0.00    +0.000 A 
ATOM     25  C   UNL     1      -4.646  13.111  23.965  0.00  0.00    +0.000 A 
ATOM     26  F   UNL     1      -5.799  12.527  24.321  0.00  0.00    +0.000 F 
ATOM     27  C   UNL     1      -3.528  12.320  23.707  0.00  0.00    +0.000 A 
ENDBRANCH  19  20
ENDBRANCH  15  19
ENDBRANCH   3  11
BRANCH   1  28
ATOM     28  N   UNL     1       4.046   5.852  17.237  0.00  0.00    +0.000 N 
ATOM     29  H   UNL     1       4.093   4.948  16.779  0.00  0.00    +0.000 HD
BRANCH  28  30
ATOM     30  C   UNL     1       5.352   6.519  17.280  0.00  0.00    +0.000 C 
BRANCH  30  31
ATOM     31  C   UNL     1       6.498   5.505  17.077  0.00  0.00    +0.000 C 
BRANCH  31  32
ATOM     32  N   UNL     1       7.335   5.806  15.914  0.00  0.00    +0.000 NA
ATOM     33  H   UNL     1       6.816   5.602  15.062  0.00  0.00    +0.000 HD
ATOM     34  H   UNL     1       8.146   5.187  15.911  0.00  0.00    +0.000 HD
ENDBRANCH  31  32
ENDBRANCH  30  31
ENDBRANCH  28  30
ENDBRANCH   1  28
TORSDOF 7
ENDMDL
