MODEL 1
REMARK VINA RESULT:      -8.7      0.000      0.000
REMARK  Name = 
REMARK  6 active torsions:
REMARK  status: ('A' for Active; 'I' for Inactive)
REMARK    1  A    between atoms: C_1  and  C_2
REMARK    2  A    between atoms: N_5  and  C_6
REMARK    3  A    between atoms: C_9  and  S_10
REMARK    4  A    between atoms: S_10  and  C_13
REMARK    5  A    between atoms: N_21  and  C_22
REMARK    6  A    between atoms: C_22  and  C_23
REMARK                            x       y       z     vdW  Elec       q    Type
REMARK                         _______ _______ _______ _____ _____    ______ ____
ROOT
ATOM      1  C   UNL     1       4.083   2.559  17.546  0.00  0.00    +0.000 C 
ATOM      2  C   UNL     1       3.954   3.936  16.935  0.00  0.00    +0.000 C 
ATOM      3  C   UNL     1       2.877   4.761  17.625  0.00  0.00    +0.000 C 
ATOM      4  O   UNL     1       1.731   4.348  17.793  0.00  0.00    +0.000 OA
ATOM      5  N   UNL     1       3.387   6.010  17.912  0.00  0.00    +0.000 N 
ATOM      6  C   UNL     1       4.701   6.079  17.489  0.00  0.00    +0.000 C 
ATOM      7  O   UNL     1       5.445   7.049  17.471  0.00  0.00    +0.000 OA
ATOM      8  N   UNL     1       5.093   4.802  17.095  0.00  0.00    +0.000 N 
ENDROOT
BRANCH   5   9
ATOM      9  C   UNL     1       2.698   7.040  18.609  0.00  0.00    +0.000 A 
ATOM     10  C   UNL     1       2.284   8.202  17.933  0.00  0.00    +0.000 A 
ATOM     11  C   UNL     1       1.538   9.197  18.572  0.00  0.00    +0.000 A 
ATOM     12  C   UNL     1       1.206   9.044  19.918  0.00  0.00    +0.000 A 
ATOM     13  C   UNL     1       1.634   7.924  20.627  0.00  0.00    +0.000 A 
ATOM     14  C   UNL     1       2.362   6.924  19.968  0.00  0.00    +0.000 A 
BRANCH  12  15
ATOM     15  S   UNL     1       0.305  10.350  20.742  0.00  0.00    +0.000 S 
ATOM     16  O   UNL     1       1.300  11.356  21.080  0.00  0.00    +0.000 OA
ATOM     17  O   UNL     1      -0.787  10.713  19.849  0.00  0.00    +0.000 OA
BRANCH  15  18
ATOM     18  C   UNL     1      -0.328   9.534  22.250  0.00  0.00    +0.000 C 
ATOM     19  F   UNL     1      -1.244  10.290  22.918  0.00  0.00    +0.000 F 
ATOM     20  F   UNL     1      -0.940   8.344  21.982  0.00  0.00    +0.000 F 
ATOM     21  F   UNL     1       0.663   9.259  23.145  0.00  0.00    +0.000 F 
ENDBRANCH  15  18
ENDBRANCH  12  15
ENDBRANCH   5   9
BRANCH   8  22
ATOM     22  C   UNL     1       6.409   4.480  16.570  0.00  0.00    +0.000 C 
BRANCH  22  23
ATOM     23  C   UNL     1       6.477   4.471  15.054  0.00  0.00    +0.000 A 
ATOM     24  C   UNL     1       7.439   5.242  14.383  0.00  0.00    +0.000 A 
ATOM     25  C   UNL     1       7.581   5.162  12.993  0.00  0.00    +0.000 A 
ATOM     26  C   UNL     1       6.760   4.313  12.253  0.00  0.00    +0.000 A 
ATOM     27  C   UNL     1       5.790   3.555  12.901  0.00  0.00    +0.000 A 
ATOM     28  C   UNL     1       5.650   3.635  14.291  0.00  0.00    +0.000 A 
ENDBRANCH  22  23
ENDBRANCH   8  22
TORSDOF 5
ENDMDL
MODEL 2
REMARK VINA RESULT:      -8.6      1.522      2.007
REMARK  Name = 
REMARK  6 active torsions:
REMARK  status: ('A' for Active; 'I' for Inactive)
REMARK    1  A    between atoms: C_1  and  C_2
REMARK    2  A    between atoms: N_5  and  C_6
REMARK    3  A    between atoms: C_9  and  S_10
REMARK    4  A    between atoms: S_10  and  C_13
REMARK    5  A    between atoms: N_21  and  C_22
REMARK    6  A    between atoms: C_22  and  C_23
REMARK                            x       y       z     vdW  Elec       q    Type
REMARK                         _______ _______ _______ _____ _____    ______ ____
ROOT
ATOM      1  C   UNL     1       3.644   2.509  17.891  0.00  0.00    +0.000 C 
ATOM      2  C   UNL     1       3.615   3.819  17.137  0.00  0.00    +0.000 C 
ATOM      3  C   UNL     1       2.554   4.762  17.686  0.00  0.00    +0.000 C 
ATOM      4  O   UNL     1       1.381   4.425  17.839  0.00  0.00    +0.000 OA
ATOM      5  N   UNL     1       3.116   6.009  17.870  0.00  0.00    +0.000 N 
ATOM      6  C   UNL     1       4.450   5.970  17.506  0.00  0.00    +0.000 C 
ATOM      7  O   UNL     1       5.244   6.896  17.426  0.00  0.00    +0.000 OA
ATOM      8  N   UNL     1       4.790   4.641  17.264  0.00  0.00    +0.000 N 
ENDROOT
BRANCH   5   9
ATOM      9  C   UNL     1       2.453   7.138  18.423  0.00  0.00    +0.000 A 
ATOM     10  C   UNL     1       2.164   7.188  19.799  0.00  0.00    +0.000 A 
ATOM     11  C   UNL     1       1.582   8.316  20.386  0.00  0.00    +0.000 A 
ATOM     12  C   UNL     1       1.266   9.416  19.589  0.00  0.00    +0.000 A 
ATOM     13  C   UNL     1       1.504   9.383  18.217  0.00  0.00    +0.000 A 
ATOM     14  C   UNL     1       2.108   8.254  17.645  0.00  0.00    +0.000 A 
BRANCH  12  15
ATOM     15  S   UNL     1       0.467  10.828  20.338  0.00  0.00    +0.000 S 
ATOM     16  O   UNL     1       0.120  10.410  21.687  0.00  0.00    +0.000 OA
ATOM     17  O   UNL     1       1.380  11.950  20.163  0.00  0.00    +0.000 OA
BRANCH  15  18
ATOM     18  C   UNL     1      -1.036  11.045  19.321  0.00  0.00    +0.000 C 
ATOM     19  F   UNL     1      -1.567   9.863  18.898  0.00  0.00    +0.000 F 
ATOM     20  F   UNL     1      -2.034  11.688  19.994  0.00  0.00    +0.000 F 
ATOM     21  F   UNL     1      -0.800  11.779  18.197  0.00  0.00    +0.000 F 
ENDBRANCH  15  18
ENDBRANCH  12  15
ENDBRANCH   5   9
BRANCH   8  22
ATOM     22  C   UNL     1       6.109   4.204  16.839  0.00  0.00    +0.000 C 
BRANCH  22  23
ATOM     23  C   UNL     1       6.338   4.314  15.344  0.00  0.00    +0.000 A 
ATOM     24  C   UNL     1       7.331   5.169  14.840  0.00  0.00    +0.000 A 
ATOM     25  C   UNL     1       7.623   5.201  13.472  0.00  0.00    +0.000 A 
ATOM     26  C   UNL     1       6.923   4.384  12.586  0.00  0.00    +0.000 A 
ATOM     27  C   UNL     1       5.924   3.544  13.068  0.00  0.00    +0.000 A 
ATOM     28  C   UNL     1       5.634   3.511  14.435  0.00  0.00    +0.000 A 
ENDBRANCH  22  23
ENDBRANCH   8  22
TORSDOF 5
ENDMDL
MODEL 3
REMARK VINA RESULT:      -8.6      1.549      1.754
REMARK  Name = 
REMARK  6 active torsions:
REMARK  status: ('A' for Active; 'I' for Inactive)
REMARK    1  A    between atoms: C_1  and  C_2
REMARK    2  A    between atoms: N_5  and  C_6
REMARK    3  A    between atoms: C_9  and  S_10
REMARK    4  A    between atoms: S_10  and  C_13
REMARK    5  A    between atoms: N_21  and  C_22
REMARK    6  A    between atoms: C_22  and  C_23
REMARK                            x       y       z     vdW  Elec       q    Type
REMARK                         _______ _______ _______ _____ _____    ______ ____
ROOT
ATOM      1  C   UNL     1       3.341   2.423  17.824  0.00  0.00    +0.000 C 
ATOM      2  C   UNL     1       3.424   3.756  17.114  0.00  0.00    +0.000 C 
ATOM      3  C   UNL     1       2.430   4.760  17.682  0.00  0.00    +0.000 C 
ATOM      4  O   UNL     1       1.233   4.510  17.808  0.00  0.00    +0.000 OA
ATOM      5  N   UNL     1       3.084   5.952  17.915  0.00  0.00    +0.000 N 
ATOM      6  C   UNL     1       4.416   5.822  17.567  0.00  0.00    +0.000 C 
ATOM      7  O   UNL     1       5.281   6.686  17.529  0.00  0.00    +0.000 OA
ATOM      8  N   UNL     1       4.657   4.480  17.284  0.00  0.00    +0.000 N 
ENDROOT
BRANCH   5   9
ATOM      9  C   UNL     1       2.502   7.110  18.498  0.00  0.00    +0.000 A 
ATOM     10  C   UNL     1       2.170   8.219  17.698  0.00  0.00    +0.000 A 
ATOM     11  C   UNL     1       1.526   9.341  18.229  0.00  0.00    +0.000 A 
ATOM     12  C   UNL     1       1.215   9.371  19.588  0.00  0.00    +0.000 A 
ATOM     13  C   UNL     1       1.565   8.306  20.415  0.00  0.00    +0.000 A 
ATOM     14  C   UNL     1       2.190   7.179  19.866  0.00  0.00    +0.000 A 
BRANCH  12  15
ATOM     15  S   UNL     1       0.448  10.835  20.269  0.00  0.00    +0.000 S 
ATOM     16  O   UNL     1       0.139  10.507  21.652  0.00  0.00    +0.000 OA
ATOM     17  O   UNL     1       1.363  11.935  19.995  0.00  0.00    +0.000 OA
BRANCH  15  18
ATOM     18  C   UNL     1      -1.084  11.000  19.286  0.00  0.00    +0.000 C 
ATOM     19  F   UNL     1      -2.070  11.668  19.947  0.00  0.00    +0.000 F 
ATOM     20  F   UNL     1      -0.885  11.675  18.117  0.00  0.00    +0.000 F 
ATOM     21  F   UNL     1      -1.610   9.789  18.941  0.00  0.00    +0.000 F 
ENDBRANCH  15  18
ENDBRANCH  12  15
ENDBRANCH   5   9
BRANCH   8  22
ATOM     22  C   UNL     1       5.945   3.955  16.863  0.00  0.00    +0.000 C 
BRANCH  22  23
ATOM     23  C   UNL     1       6.245   4.181  15.393  0.00  0.00    +0.000 A 
ATOM     24  C   UNL     1       7.270   5.058  15.004  0.00  0.00    +0.000 A 
ATOM     25  C   UNL     1       7.626   5.195  13.658  0.00  0.00    +0.000 A 
ATOM     26  C   UNL     1       6.959   4.461  12.679  0.00  0.00    +0.000 A 
ATOM     27  C   UNL     1       5.930   3.600  13.046  0.00  0.00    +0.000 A 
ATOM     28  C   UNL     1       5.576   3.462  14.391  0.00  0.00    +0.000 A 
ENDBRANCH  22  23
ENDBRANCH   8  22
TORSDOF 5
ENDMDL
MODEL 4
REMARK VINA RESULT:      -8.6      4.875      8.671
REMARK  Name = 
REMARK  6 active torsions:
REMARK  status: ('A' for Active; 'I' for Inactive)
REMARK    1  A    between atoms: C_1  and  C_2
REMARK    2  A    between atoms: N_5  and  C_6
REMARK    3  A    between atoms: C_9  and  S_10
REMARK    4  A    between atoms: S_10  and  C_13
REMARK    5  A    between atoms: N_21  and  C_22
REMARK    6  A    between atoms: C_22  and  C_23
REMARK                            x       y       z     vdW  Elec       q    Type
REMARK                         _______ _______ _______ _____ _____    ______ ____
ROOT
ATOM      1  C   UNL     1      -0.645  11.217  21.882  0.00  0.00    +0.000 C 
ATOM      2  C   UNL     1       0.537  10.924  20.986  0.00  0.00    +0.000 C 
ATOM      3  C   UNL     1       1.174   9.581  21.315  0.00  0.00    +0.000 C 
ATOM      4  O   UNL     1       1.518   9.271  22.454  0.00  0.00    +0.000 OA
ATOM      5  N   UNL     1       1.362   8.878  20.142  0.00  0.00    +0.000 N 
ATOM      6  C   UNL     1       0.897   9.626  19.077  0.00  0.00    +0.000 C 
ATOM      7  O   UNL     1       0.989   9.388  17.881  0.00  0.00    +0.000 OA
ATOM      8  N   UNL     1       0.235  10.739  19.590  0.00  0.00    +0.000 N 
ENDROOT
BRANCH   5   9
ATOM      9  C   UNL     1       1.878   7.557  20.049  0.00  0.00    +0.000 A 
ATOM     10  C   UNL     1       1.328   6.522  20.828  0.00  0.00    +0.000 A 
ATOM     11  C   UNL     1       1.763   5.199  20.702  0.00  0.00    +0.000 A 
ATOM     12  C   UNL     1       2.776   4.894  19.793  0.00  0.00    +0.000 A 
ATOM     13  C   UNL     1       3.368   5.902  19.036  0.00  0.00    +0.000 A 
ATOM     14  C   UNL     1       2.908   7.221  19.156  0.00  0.00    +0.000 A 
BRANCH  12  15
ATOM     15  S   UNL     1       3.366   3.211  19.685  0.00  0.00    +0.000 S 
ATOM     16  O   UNL     1       4.735   3.308  19.205  0.00  0.00    +0.000 OA
ATOM     17  O   UNL     1       3.119   2.612  20.990  0.00  0.00    +0.000 OA
BRANCH  15  18
ATOM     18  C   UNL     1       2.284   2.470  18.412  0.00  0.00    +0.000 C 
ATOM     19  F   UNL     1       1.725   3.398  17.584  0.00  0.00    +0.000 F 
ATOM     20  F   UNL     1       2.951   1.595  17.605  0.00  0.00    +0.000 F 
ATOM     21  F   UNL     1       1.246   1.772  18.956  0.00  0.00    +0.000 F 
ENDBRANCH  15  18
ENDBRANCH  12  15
ENDBRANCH   5   9
BRANCH   8  22
ATOM     22  C   UNL     1      -0.377  11.772  18.771  0.00  0.00    +0.000 C 
BRANCH  22  23
ATOM     23  C   UNL     1      -1.811  11.471  18.379  0.00  0.00    +0.000 A 
ATOM     24  C   UNL     1      -2.093  10.471  17.434  0.00  0.00    +0.000 A 
ATOM     25  C   UNL     1      -3.413  10.112  17.142  0.00  0.00    +0.000 A 
ATOM     26  C   UNL     1      -4.472  10.750  17.786  0.00  0.00    +0.000 A 
ATOM     27  C   UNL     1      -4.210  11.754  18.712  0.00  0.00    +0.000 A 
ATOM     28  C   UNL     1      -2.890  12.112  19.005  0.00  0.00    +0.000 A 
ENDBRANCH  22  23
ENDBRANCH   8  22
TORSDOF 5
ENDMDL
MODEL 5
REMARK VINA RESULT:      -8.5      4.791      8.848
REMARK  Name = 
REMARK  6 active torsions:
REMARK  status: ('A' for Active; 'I' for Inactive)
REMARK    1  A    between atoms: C_1  and  C_2
REMARK    2  A    between atoms: N_5  and  C_6
REMARK    3  A    between atoms: C_9  and  S_10
REMARK    4  A    between atoms: S_10  and  C_13
REMARK    5  A    between atoms: N_21  and  C_22
REMARK    6  A    between atoms: C_22  and  C_23
REMARK                            x       y       z     vdW  Elec       q    Type
REMARK                         _______ _______ _______ _____ _____    ______ ____
ROOT
ATOM      1  C   UNL     1      -0.702  11.169  22.136  0.00  0.00    +0.000 C 
ATOM      2  C   UNL     1       0.428  10.950  21.155  0.00  0.00    +0.000 C 
ATOM      3  C   UNL     1       1.120   9.613  21.381  0.00  0.00    +0.000 C 
ATOM      4  O   UNL     1       1.544   9.263  22.480  0.00  0.00    +0.000 OA
ATOM      5  N   UNL     1       1.250   8.968  20.168  0.00  0.00    +0.000 N 
ATOM      6  C   UNL     1       0.697   9.748  19.169  0.00  0.00    +0.000 C 
ATOM      7  O   UNL     1       0.719   9.566  17.961  0.00  0.00    +0.000 OA
ATOM      8  N   UNL     1       0.041  10.818  19.774  0.00  0.00    +0.000 N 
ENDROOT
BRANCH   5   9
ATOM      9  C   UNL     1       1.794   7.668  19.982  0.00  0.00    +0.000 A 
ATOM     10  C   UNL     1       1.369   6.597  20.789  0.00  0.00    +0.000 A 
ATOM     11  C   UNL     1       1.827   5.293  20.580  0.00  0.00    +0.000 A 
ATOM     12  C   UNL     1       2.740   5.045  19.555  0.00  0.00    +0.000 A 
ATOM     13  C   UNL     1       3.210   6.089  18.763  0.00  0.00    +0.000 A 
ATOM     14  C   UNL     1       2.726   7.388  18.969  0.00  0.00    +0.000 A 
BRANCH  12  15
ATOM     15  S   UNL     1       3.367   3.385  19.336  0.00  0.00    +0.000 S 
ATOM     16  O   UNL     1       4.569   3.526  18.529  0.00  0.00    +0.000 OA
ATOM     17  O   UNL     1       3.479   2.816  20.673  0.00  0.00    +0.000 OA
BRANCH  15  18
ATOM     18  C   UNL     1       2.042   2.560  18.385  0.00  0.00    +0.000 C 
ATOM     19  F   UNL     1       1.276   1.732  19.149  0.00  0.00    +0.000 F 
ATOM     20  F   UNL     1       1.181   3.449  17.809  0.00  0.00    +0.000 F 
ATOM     21  F   UNL     1       2.533   1.794  17.370  0.00  0.00    +0.000 F 
ENDBRANCH  15  18
ENDBRANCH  12  15
ENDBRANCH   5   9
BRANCH   8  22
ATOM     22  C   UNL     1      -0.649  11.868  19.043  0.00  0.00    +0.000 C 
BRANCH  22  23
ATOM     23  C   UNL     1      -2.115  11.572  18.788  0.00  0.00    +0.000 A 
ATOM     24  C   UNL     1      -3.111  12.279  19.481  0.00  0.00    +0.000 A 
ATOM     25  C   UNL     1      -4.465  12.091  19.180  0.00  0.00    +0.000 A 
ATOM     26  C   UNL     1      -4.843  11.190  18.186  0.00  0.00    +0.000 A 
ATOM     27  C   UNL     1      -3.869  10.469  17.502  0.00  0.00    +0.000 A 
ATOM     28  C   UNL     1      -2.516  10.659  17.802  0.00  0.00    +0.000 A 
ENDBRANCH  22  23
ENDBRANCH   8  22
TORSDOF 5
ENDMDL
MODEL 6
REMARK VINA RESULT:      -8.5      0.564      1.293
REMARK  Name = 
REMARK  6 active torsions:
REMARK  status: ('A' for Active; 'I' for Inactive)
REMARK    1  A    between atoms: C_1  and  C_2
REMARK    2  A    between atoms: N_5  and  C_6
REMARK    3  A    between atoms: C_9  and  S_10
REMARK    4  A    between atoms: S_10  and  C_13
REMARK    5  A    between atoms: N_21  and  C_22
REMARK    6  A    between atoms: C_22  and  C_23
REMARK                            x       y       z     vdW  Elec       q    Type
REMARK                         _______ _______ _______ _____ _____    ______ ____
ROOT
ATOM      1  C   UNL     1       3.613   2.374  18.181  0.00  0.00    +0.000 C 
ATOM      2  C   UNL     1       3.561   3.719  17.493  0.00  0.00    +0.000 C 
ATOM      3  C   UNL     1       2.486   4.617  18.089  0.00  0.00    +0.000 C 
ATOM      4  O   UNL     1       1.319   4.253  18.227  0.00  0.00    +0.000 OA
ATOM      5  N   UNL     1       3.029   5.862  18.332  0.00  0.00    +0.000 N 
ATOM      6  C   UNL     1       4.362   5.863  17.965  0.00  0.00    +0.000 C 
ATOM      7  O   UNL     1       5.141   6.804  17.929  0.00  0.00    +0.000 OA
ATOM      8  N   UNL     1       4.723   4.553  17.657  0.00  0.00    +0.000 N 
ENDROOT
BRANCH   5   9
ATOM      9  C   UNL     1       2.349   6.951  18.942  0.00  0.00    +0.000 A 
ATOM     10  C   UNL     1       2.014   6.906  20.308  0.00  0.00    +0.000 A 
ATOM     11  C   UNL     1       1.414   7.992  20.953  0.00  0.00    +0.000 A 
ATOM     12  C   UNL     1       1.127   9.146  20.225  0.00  0.00    +0.000 A 
ATOM     13  C   UNL     1       1.410   9.209  18.863  0.00  0.00    +0.000 A 
ATOM     14  C   UNL     1       2.031   8.121  18.233  0.00  0.00    +0.000 A 
BRANCH  12  15
ATOM     15  S   UNL     1       0.305  10.505  21.045  0.00  0.00    +0.000 S 
ATOM     16  O   UNL     1       1.349  11.473  21.338  0.00  0.00    +0.000 OA
ATOM     17  O   UNL     1      -0.794  10.898  20.172  0.00  0.00    +0.000 OA
BRANCH  15  18
ATOM     18  C   UNL     1      -0.325   9.745  22.583  0.00  0.00    +0.000 C 
ATOM     19  F   UNL     1      -0.969   8.564  22.368  0.00  0.00    +0.000 F 
ATOM     20  F   UNL     1       0.670   9.477  23.478  0.00  0.00    +0.000 F 
ATOM     21  F   UNL     1      -1.214  10.550  23.233  0.00  0.00    +0.000 F 
ENDBRANCH  15  18
ENDBRANCH  12  15
ENDBRANCH   5   9
BRANCH   8  22
ATOM     22  C   UNL     1       6.048   4.158  17.210  0.00  0.00    +0.000 C 
BRANCH  22  23
ATOM     23  C   UNL     1       6.259   4.313  15.716  0.00  0.00    +0.000 A 
ATOM     24  C   UNL     1       7.161   5.270  15.223  0.00  0.00    +0.000 A 
ATOM     25  C   UNL     1       7.444   5.351  13.855  0.00  0.00    +0.000 A 
ATOM     26  C   UNL     1       6.826   4.481  12.958  0.00  0.00    +0.000 A 
ATOM     27  C   UNL     1       5.917   3.539  13.429  0.00  0.00    +0.000 A 
ATOM     28  C   UNL     1       5.636   3.457  14.796  0.00  0.00    +0.000 A 
ENDBRANCH  22  23
ENDBRANCH   8  22
TORSDOF 5
ENDMDL
MODEL 7
REMARK VINA RESULT:      -8.3      1.858      2.244
REMARK  Name = 
REMARK  6 active torsions:
REMARK  status: ('A' for Active; 'I' for Inactive)
REMARK    1  A    between atoms: C_1  and  C_2
REMARK    2  A    between atoms: N_5  and  C_6
REMARK    3  A    between atoms: C_9  and  S_10
REMARK    4  A    between atoms: S_10  and  C_13
REMARK    5  A    between atoms: N_21  and  C_22
REMARK    6  A    between atoms: C_22  and  C_23
REMARK                            x       y       z     vdW  Elec       q    Type
REMARK                         _______ _______ _______ _____ _____    ______ ____
ROOT
ATOM      1  C   UNL     1       4.329   3.028  19.391  0.00  0.00    +0.000 C 
ATOM      2  C   UNL     1       3.946   4.009  18.306  0.00  0.00    +0.000 C 
ATOM      3  C   UNL     1       2.810   4.922  18.747  0.00  0.00    +0.000 C 
ATOM      4  O   UNL     1       1.757   4.493  19.213  0.00  0.00    +0.000 OA
ATOM      5  N   UNL     1       3.144   6.226  18.445  0.00  0.00    +0.000 N 
ATOM      6  C   UNL     1       4.397   6.258  17.861  0.00  0.00    +0.000 C 
ATOM      7  O   UNL     1       4.981   7.210  17.363  0.00  0.00    +0.000 OA
ATOM      8  N   UNL     1       4.949   4.983  17.959  0.00  0.00    +0.000 N 
ENDROOT
BRANCH   5   9
ATOM      9  C   UNL     1       2.361   7.370  18.760  0.00  0.00    +0.000 A 
ATOM     10  C   UNL     1       1.942   7.604  20.082  0.00  0.00    +0.000 A 
ATOM     11  C   UNL     1       1.236   8.757  20.436  0.00  0.00    +0.000 A 
ATOM     12  C   UNL     1       0.926   9.698  19.454  0.00  0.00    +0.000 A 
ATOM     13  C   UNL     1       1.292   9.478  18.128  0.00  0.00    +0.000 A 
ATOM     14  C   UNL     1       2.018   8.327  17.791  0.00  0.00    +0.000 A 
BRANCH  12  15
ATOM     15  S   UNL     1      -0.030  11.139  19.905  0.00  0.00    +0.000 S 
ATOM     16  O   UNL     1      -0.384  10.950  21.303  0.00  0.00    +0.000 OA
ATOM     17  O   UNL     1       0.779  12.292  19.535  0.00  0.00    +0.000 OA
BRANCH  15  18
ATOM     18  C   UNL     1      -1.509  11.010  18.839  0.00  0.00    +0.000 C 
ATOM     19  F   UNL     1      -1.308  11.511  17.588  0.00  0.00    +0.000 F 
ATOM     20  F   UNL     1      -1.920   9.720  18.670  0.00  0.00    +0.000 F 
ATOM     21  F   UNL     1      -2.577  11.685  19.351  0.00  0.00    +0.000 F 
ENDBRANCH  15  18
ENDBRANCH  12  15
ENDBRANCH   5   9
BRANCH   8  22
ATOM     22  C   UNL     1       6.255   4.619  17.438  0.00  0.00    +0.000 C 
BRANCH  22  23
ATOM     23  C   UNL     1       6.312   4.550  15.924  0.00  0.00    +0.000 A 
ATOM     24  C   UNL     1       7.380   5.137  15.227  0.00  0.00    +0.000 A 
ATOM     25  C   UNL     1       7.499   4.991  13.840  0.00  0.00    +0.000 A 
ATOM     26  C   UNL     1       6.549   4.260  13.129  0.00  0.00    +0.000 A 
ATOM     27  C   UNL     1       5.476   3.686  13.802  0.00  0.00    +0.000 A 
ATOM     28  C   UNL     1       5.359   3.831  15.188  0.00  0.00    +0.000 A 
ENDBRANCH  22  23
ENDBRANCH   8  22
TORSDOF 5
ENDMDL
MODEL 8
REMARK VINA RESULT:      -8.3      4.610      8.619
REMARK  Name = 
REMARK  6 active torsions:
REMARK  status: ('A' for Active; 'I' for Inactive)
REMARK    1  A    between atoms: C_1  and  C_2
REMARK    2  A    between atoms: N_5  and  C_6
REMARK    3  A    between atoms: C_9  and  S_10
REMARK    4  A    between atoms: S_10  and  C_13
REMARK    5  A    between atoms: N_21  and  C_22
REMARK    6  A    between atoms: C_22  and  C_23
REMARK                            x       y       z     vdW  Elec       q    Type
REMARK                         _______ _______ _______ _____ _____    ______ ____
ROOT
ATOM      1  C   UNL     1      -0.861  10.392  21.559  0.00  0.00    +0.000 C 
ATOM      2  C   UNL     1       0.424  10.413  20.762  0.00  0.00    +0.000 C 
ATOM      3  C   UNL     1       1.201   9.112  20.910  0.00  0.00    +0.000 C 
ATOM      4  O   UNL     1       1.480   8.627  22.004  0.00  0.00    +0.000 OA
ATOM      5  N   UNL     1       1.582   8.676  19.657  0.00  0.00    +0.000 N 
ATOM      6  C   UNL     1       1.118   9.560  18.701  0.00  0.00    +0.000 C 
ATOM      7  O   UNL     1       1.346   9.570  17.500  0.00  0.00    +0.000 OA
ATOM      8  N   UNL     1       0.273  10.470  19.331  0.00  0.00    +0.000 N 
ENDROOT
BRANCH   5   9
ATOM      9  C   UNL     1       2.274   7.465  19.383  0.00  0.00    +0.000 A 
ATOM     10  C   UNL     1       2.116   6.349  20.226  0.00  0.00    +0.000 A 
ATOM     11  C   UNL     1       2.721   5.122  19.941  0.00  0.00    +0.000 A 
ATOM     12  C   UNL     1       3.514   4.999  18.800  0.00  0.00    +0.000 A 
ATOM     13  C   UNL     1       3.722   6.095  17.966  0.00  0.00    +0.000 A 
ATOM     14  C   UNL     1       3.092   7.314  18.252  0.00  0.00    +0.000 A 
BRANCH  12  15
ATOM     15  S   UNL     1       4.333   3.444  18.478  0.00  0.00    +0.000 S 
ATOM     16  O   UNL     1       4.927   3.582  17.157  0.00  0.00    +0.000 OA
ATOM     17  O   UNL     1       5.206   3.203  19.619  0.00  0.00    +0.000 OA
BRANCH  15  18
ATOM     18  C   UNL     1       2.955   2.244  18.445  0.00  0.00    +0.000 C 
ATOM     19  F   UNL     1       3.329   1.017  17.987  0.00  0.00    +0.000 F 
ATOM     20  F   UNL     1       2.412   2.039  19.680  0.00  0.00    +0.000 F 
ATOM     21  F   UNL     1       1.931   2.653  17.642  0.00  0.00    +0.000 F 
ENDBRANCH  15  18
ENDBRANCH  12  15
ENDBRANCH   5   9
BRANCH   8  22
ATOM     22  C   UNL     1      -0.394  11.567  18.651  0.00  0.00    +0.000 C 
BRANCH  22  23
ATOM     23  C   UNL     1      -1.810  11.243  18.211  0.00  0.00    +0.000 A 
ATOM     24  C   UNL     1      -2.906  11.846  18.849  0.00  0.00    +0.000 A 
ATOM     25  C   UNL     1      -4.209  11.637  18.385  0.00  0.00    +0.000 A 
ATOM     26  C   UNL     1      -4.438  10.818  17.281  0.00  0.00    +0.000 A 
ATOM     27  C   UNL     1      -3.364  10.199  16.648  0.00  0.00    +0.000 A 
ATOM     28  C   UNL     1      -2.061  10.410  17.111  0.00  0.00    +0.000 A 
ENDBRANCH  22  23
ENDBRANCH   8  22
TORSDOF 5
ENDMDL
MODEL 9
REMARK VINA RESULT:      -8.2      4.891      8.508
REMARK  Name = 
REMARK  6 active torsions:
REMARK  status: ('A' for Active; 'I' for Inactive)
REMARK    1  A    between atoms: C_1  and  C_2
REMARK    2  A    between atoms: N_5  and  C_6
REMARK    3  A    between atoms: C_9  and  S_10
REMARK    4  A    between atoms: S_10  and  C_13
REMARK    5  A    between atoms: N_21  and  C_22
REMARK    6  A    between atoms: C_22  and  C_23
REMARK                            x       y       z     vdW  Elec       q    Type
REMARK                         _______ _______ _______ _____ _____    ______ ____
ROOT
ATOM      1  C   UNL     1      -0.511  11.173  21.885  0.00  0.00    +0.000 C 
ATOM      2  C   UNL     1       0.643  10.842  20.966  0.00  0.00    +0.000 C 
ATOM      3  C   UNL     1       1.251   9.484  21.291  0.00  0.00    +0.000 C 
ATOM      4  O   UNL     1       1.612   9.173  22.424  0.00  0.00    +0.000 OA
ATOM      5  N   UNL     1       1.394   8.768  20.120  0.00  0.00    +0.000 N 
ATOM      6  C   UNL     1       0.925   9.520  19.059  0.00  0.00    +0.000 C 
ATOM      7  O   UNL     1       0.985   9.271  17.864  0.00  0.00    +0.000 OA
ATOM      8  N   UNL     1       0.305  10.655  19.578  0.00  0.00    +0.000 N 
ENDROOT
BRANCH   5   9
ATOM      9  C   UNL     1       1.872   7.432  20.026  0.00  0.00    +0.000 A 
ATOM     10  C   UNL     1       2.963   7.125  19.192  0.00  0.00    +0.000 A 
ATOM     11  C   UNL     1       3.504   5.837  19.136  0.00  0.00    +0.000 A 
ATOM     12  C   UNL     1       2.944   4.825  19.915  0.00  0.00    +0.000 A 
ATOM     13  C   UNL     1       1.839   5.088  20.722  0.00  0.00    +0.000 A 
ATOM     14  C   UNL     1       1.320   6.388  20.785  0.00  0.00    +0.000 A 
BRANCH  12  15
ATOM     15  S   UNL     1       3.604   3.169  19.791  0.00  0.00    +0.000 S 
ATOM     16  O   UNL     1       4.991   3.331  19.384  0.00  0.00    +0.000 OA
ATOM     17  O   UNL     1       3.315   2.522  21.063  0.00  0.00    +0.000 OA
BRANCH  15  18
ATOM     18  C   UNL     1       2.617   2.427  18.442  0.00  0.00    +0.000 C 
ATOM     19  F   UNL     1       3.321   1.521  17.706  0.00  0.00    +0.000 F 
ATOM     20  F   UNL     1       1.515   1.768  18.903  0.00  0.00    +0.000 F 
ATOM     21  F   UNL     1       2.161   3.361  17.560  0.00  0.00    +0.000 F 
ENDBRANCH  15  18
ENDBRANCH  12  15
ENDBRANCH   5   9
BRANCH   8  22
ATOM     22  C   UNL     1      -0.296  11.698  18.765  0.00  0.00    +0.000 C 
BRANCH  22  23
ATOM     23  C   UNL     1       0.546  12.956  18.664  0.00  0.00    +0.000 A 
ATOM     24  C   UNL     1      -0.004  14.205  18.993  0.00  0.00    +0.000 A 
ATOM     25  C   UNL     1       0.789  15.357  19.005  0.00  0.00    +0.000 A 
ATOM     26  C   UNL     1       2.143  15.279  18.684  0.00  0.00    +0.000 A 
ATOM     27  C   UNL     1       2.700  14.051  18.339  0.00  0.00    +0.000 A 
ATOM     28  C   UNL     1       1.906  12.900  18.329  0.00  0.00    +0.000 A 
ENDBRANCH  22  23
ENDBRANCH   8  22
TORSDOF 5
ENDMDL
