MODEL 1
REMARK VINA RESULT:      -7.8      0.000      0.000
REMARK  Name = 
REMARK  6 active torsions:
REMARK  status: ('A' for Active; 'I' for Inactive)
REMARK    1  A    between atoms: N_5  and  C_6
REMARK    2  A    between atoms: C_6  and  C_7
REMARK    3  A    between atoms: C_7  and  N_8
REMARK    4  A    between atoms: N_11  and  N_12
REMARK    5  A    between atoms: N_12  and  C_13
REMARK    6  A    between atoms: C_13  and  C_14
REMARK                            x       y       z     vdW  Elec       q    Type
REMARK                         _______ _______ _______ _____ _____    ______ ____
ROOT
ATOM      1  N   UNL     1       0.301  10.841  22.264  0.00  0.00    +0.000 NA
ATOM      2  C   UNL     1       0.264   9.473  22.816  0.00  0.00    +0.000 C 
ATOM      3  C   UNL     1      -0.379   8.457  21.853  0.00  0.00    +0.000 C 
ATOM      4  N   UNL     1       0.412   8.283  20.614  0.00  0.00    +0.000 NA
ATOM      5  C   UNL     1       0.542   9.620  19.972  0.00  0.00    +0.000 C 
ATOM      6  C   UNL     1       0.946  10.793  20.921  0.00  0.00    +0.000 C 
ENDROOT
BRANCH   4   7
ATOM      7  N   UNL     1       1.759   7.739  20.873  0.00  0.00    +0.000 NA
ATOM      8  H   UNL     1       1.766   7.062  21.637  0.00  0.00    +0.000 HD
BRANCH   7   9
ATOM      9  C   UNL     1       2.363   7.135  19.673  0.00  0.00    +0.000 C 
BRANCH   9  10
ATOM     10  C   UNL     1       2.236   5.623  19.696  0.00  0.00    +0.000 A 
ATOM     11  C   UNL     1       1.433   5.052  20.696  0.00  0.00    +0.000 A 
ATOM     12  C   UNL     1       1.264   3.673  20.782  0.00  0.00    +0.000 A 
ATOM     13  C   UNL     1       1.902   2.838  19.870  0.00  0.00    +0.000 A 
ATOM     14  C   UNL     1       2.703   3.382  18.864  0.00  0.00    +0.000 A 
ATOM     15 CL   UNL     1       3.454   2.269  17.769  0.00  0.00    +0.000 Cl
ATOM     16  C   UNL     1       2.874   4.775  18.764  0.00  0.00    +0.000 A 
ATOM     17 CL   UNL     1       3.857   5.431  17.490  0.00  0.00    +0.000 Cl
ENDBRANCH   9  10
ENDBRANCH   7   9
ENDBRANCH   4   7
BRANCH   1  18
ATOM     18  C   UNL     1      -1.040  11.450  22.185  0.00  0.00    +0.000 C 
BRANCH  18  19
ATOM     19  C   UNL     1      -1.184  12.605  21.164  0.00  0.00    +0.000 C 
BRANCH  19  24
ATOM     20  O   UNL     1      -5.996  12.620  20.434  0.00  0.00    +0.000 OA
ATOM     21  C   UNL     1      -4.806  12.528  20.243  0.00  0.00    +0.000 C 
ATOM     22  C   UNL     1      -3.665  12.856  21.241  0.00  0.00    +0.000 C 
ATOM     23  O   UNL     1      -3.814  13.214  22.390  0.00  0.00    +0.000 OA
ATOM     24  N   UNL     1      -2.491  12.604  20.548  0.00  0.00    +0.000 N 
ATOM     25  C   UNL     1      -2.763  12.118  19.260  0.00  0.00    +0.000 A 
ATOM     26  C   UNL     1      -1.864  11.706  18.290  0.00  0.00    +0.000 A 
ATOM     27  C   UNL     1      -2.390  11.225  17.085  0.00  0.00    +0.000 A 
ATOM     28  C   UNL     1      -3.782  11.158  16.870  0.00  0.00    +0.000 A 
ATOM     29  C   UNL     1      -4.676  11.575  17.854  0.00  0.00    +0.000 A 
ATOM     30  C   UNL     1      -4.137  12.056  19.034  0.00  0.00    +0.000 A 
ENDBRANCH  19  24
ENDBRANCH  18  19
ENDBRANCH   1  18
TORSDOF 6
ENDMDL
MODEL 2
REMARK VINA RESULT:      -7.6      0.988      1.541
REMARK  Name = 
REMARK  6 active torsions:
REMARK  status: ('A' for Active; 'I' for Inactive)
REMARK    1  A    between atoms: N_5  and  C_6
REMARK    2  A    between atoms: C_6  and  C_7
REMARK    3  A    between atoms: C_7  and  N_8
REMARK    4  A    between atoms: N_11  and  N_12
REMARK    5  A    between atoms: N_12  and  C_13
REMARK    6  A    between atoms: C_13  and  C_14
REMARK                            x       y       z     vdW  Elec       q    Type
REMARK                         _______ _______ _______ _____ _____    ______ ____
ROOT
ATOM      1  N   UNL     1       0.285  11.027  22.083  0.00  0.00    +0.000 NA
ATOM      2  C   UNL     1       0.219   9.684  22.691  0.00  0.00    +0.000 C 
ATOM      3  C   UNL     1      -0.406   8.633  21.756  0.00  0.00    +0.000 C 
ATOM      4  N   UNL     1       0.417   8.400  20.548  0.00  0.00    +0.000 NA
ATOM      5  C   UNL     1       0.577   9.706  19.854  0.00  0.00    +0.000 C 
ATOM      6  C   UNL     1       0.966  10.915  20.762  0.00  0.00    +0.000 C 
ENDROOT
BRANCH   4   7
ATOM      7  N   UNL     1       1.751   7.856  20.867  0.00  0.00    +0.000 NA
ATOM      8  H   UNL     1       2.150   8.270  21.711  0.00  0.00    +0.000 HD
BRANCH   7   9
ATOM      9  C   UNL     1       1.746   6.388  20.994  0.00  0.00    +0.000 C 
BRANCH   9  10
ATOM     10  C   UNL     1       2.305   5.728  19.747  0.00  0.00    +0.000 A 
ATOM     11  C   UNL     1       3.131   6.501  18.916  0.00  0.00    +0.000 A 
ATOM     12  C   UNL     1       3.685   5.966  17.756  0.00  0.00    +0.000 A 
ATOM     13  C   UNL     1       3.417   4.646  17.403  0.00  0.00    +0.000 A 
ATOM     14  C   UNL     1       2.601   3.857  18.216  0.00  0.00    +0.000 A 
ATOM     15 CL   UNL     1       2.325   2.225  17.704  0.00  0.00    +0.000 Cl
ATOM     16  C   UNL     1       2.042   4.386  19.394  0.00  0.00    +0.000 A 
ATOM     17 CL   UNL     1       1.049   3.378  20.402  0.00  0.00    +0.000 Cl
ENDBRANCH   9  10
ENDBRANCH   7   9
ENDBRANCH   4   7
BRANCH   1  18
ATOM     18  C   UNL     1      -1.048  11.643  21.940  0.00  0.00    +0.000 C 
BRANCH  18  19
ATOM     19  C   UNL     1      -1.189  12.654  20.776  0.00  0.00    +0.000 C 
BRANCH  19  24
ATOM     20  O   UNL     1      -6.002  12.543  20.056  0.00  0.00    +0.000 OA
ATOM     21  C   UNL     1      -4.811  12.443  19.874  0.00  0.00    +0.000 C 
ATOM     22  C   UNL     1      -3.673  12.886  20.830  0.00  0.00    +0.000 C 
ATOM     23  O   UNL     1      -3.824  13.359  21.936  0.00  0.00    +0.000 OA
ATOM     24  N   UNL     1      -2.497  12.575  20.166  0.00  0.00    +0.000 N 
ATOM     25  C   UNL     1      -2.764  11.955  18.936  0.00  0.00    +0.000 A 
ATOM     26  C   UNL     1      -1.861  11.454  18.013  0.00  0.00    +0.000 A 
ATOM     27  C   UNL     1      -2.383  10.844  16.865  0.00  0.00    +0.000 A 
ATOM     28  C   UNL     1      -3.774  10.740  16.660  0.00  0.00    +0.000 A 
ATOM     29  C   UNL     1      -4.673  11.249  17.597  0.00  0.00    +0.000 A 
ATOM     30  C   UNL     1      -4.137  11.855  18.720  0.00  0.00    +0.000 A 
ENDBRANCH  19  24
ENDBRANCH  18  19
ENDBRANCH   1  18
TORSDOF 6
ENDMDL
MODEL 3
REMARK VINA RESULT:      -7.4      4.698      9.225
REMARK  Name = 
REMARK  6 active torsions:
REMARK  status: ('A' for Active; 'I' for Inactive)
REMARK    1  A    between atoms: N_5  and  C_6
REMARK    2  A    between atoms: C_6  and  C_7
REMARK    3  A    between atoms: C_7  and  N_8
REMARK    4  A    between atoms: N_11  and  N_12
REMARK    5  A    between atoms: N_12  and  C_13
REMARK    6  A    between atoms: C_13  and  C_14
REMARK                            x       y       z     vdW  Elec       q    Type
REMARK                         _______ _______ _______ _____ _____    ______ ____
ROOT
ATOM      1  N   UNL     1       1.829   9.364  18.985  0.00  0.00    +0.000 NA
ATOM      2  C   UNL     1       1.029  10.206  18.074  0.00  0.00    +0.000 C 
ATOM      3  C   UNL     1      -0.481   9.914  18.160  0.00  0.00    +0.000 C 
ATOM      4  N   UNL     1      -1.041  10.251  19.488  0.00  0.00    +0.000 NA
ATOM      5  C   UNL     1      -0.287   9.471  20.506  0.00  0.00    +0.000 C 
ATOM      6  C   UNL     1       1.268   9.489  20.359  0.00  0.00    +0.000 C 
ENDROOT
BRANCH   4   7
ATOM      7  N   UNL     1      -0.930  11.689  19.800  0.00  0.00    +0.000 NA
ATOM      8  H   UNL     1       0.023  12.039  19.698  0.00  0.00    +0.000 HD
BRANCH   7   9
ATOM      9  C   UNL     1      -1.848  12.513  18.994  0.00  0.00    +0.000 C 
BRANCH   9  10
ATOM     10  C   UNL     1      -3.284  12.348  19.457  0.00  0.00    +0.000 A 
ATOM     11  C   UNL     1      -3.604  12.777  20.754  0.00  0.00    +0.000 A 
ATOM     12  C   UNL     1      -4.899  12.662  21.250  0.00  0.00    +0.000 A 
ATOM     13  C   UNL     1      -5.900  12.109  20.457  0.00  0.00    +0.000 A 
ATOM     14  C   UNL     1      -5.606  11.678  19.161  0.00  0.00    +0.000 A 
ATOM     15 CL   UNL     1      -6.913  11.006  18.242  0.00  0.00    +0.000 Cl
ATOM     16  C   UNL     1      -4.302  11.796  18.648  0.00  0.00    +0.000 A 
ATOM     17 CL   UNL     1      -3.965  11.274  17.025  0.00  0.00    +0.000 Cl
ENDBRANCH   9  10
ENDBRANCH   7   9
ENDBRANCH   4   7
BRANCH   1  18
ATOM     18  C   UNL     1       1.866   7.954  18.555  0.00  0.00    +0.000 C 
BRANCH  18  19
ATOM     19  C   UNL     1       2.670   7.002  19.474  0.00  0.00    +0.000 C 
BRANCH  19  24
ATOM     20  O   UNL     1       4.527   3.863  16.251  0.00  0.00    +0.000 OA
ATOM     21  C   UNL     1       3.884   4.324  17.165  0.00  0.00    +0.000 C 
ATOM     22  C   UNL     1       3.966   5.763  17.740  0.00  0.00    +0.000 C 
ATOM     23  O   UNL     1       4.667   6.655  17.312  0.00  0.00    +0.000 OA
ATOM     24  N   UNL     1       3.049   5.793  18.778  0.00  0.00    +0.000 N 
ATOM     25  C   UNL     1       2.377   4.566  18.891  0.00  0.00    +0.000 A 
ATOM     26  C   UNL     1       1.361   4.221  19.766  0.00  0.00    +0.000 A 
ATOM     27  C   UNL     1       0.826   2.932  19.658  0.00  0.00    +0.000 A 
ATOM     28  C   UNL     1       1.300   2.022  18.690  0.00  0.00    +0.000 A 
ATOM     29  C   UNL     1       2.324   2.382  17.815  0.00  0.00    +0.000 A 
ATOM     30  C   UNL     1       2.845   3.657  17.945  0.00  0.00    +0.000 A 
ENDBRANCH  19  24
ENDBRANCH  18  19
ENDBRANCH   1  18
TORSDOF 6
ENDMDL
MODEL 4
REMARK VINA RESULT:      -7.3      1.832      2.630
REMARK  Name = 
REMARK  6 active torsions:
REMARK  status: ('A' for Active; 'I' for Inactive)
REMARK    1  A    between atoms: N_5  and  C_6
REMARK    2  A    between atoms: C_6  and  C_7
REMARK    3  A    between atoms: C_7  and  N_8
REMARK    4  A    between atoms: N_11  and  N_12
REMARK    5  A    between atoms: N_12  and  C_13
REMARK    6  A    between atoms: C_13  and  C_14
REMARK                            x       y       z     vdW  Elec       q    Type
REMARK                         _______ _______ _______ _____ _____    ______ ____
ROOT
ATOM      1  N   UNL     1      -0.235  11.076  22.840  0.00  0.00    +0.000 NA
ATOM      2  C   UNL     1       0.078   9.642  22.988  0.00  0.00    +0.000 C 
ATOM      3  C   UNL     1      -0.606   8.767  21.922  0.00  0.00    +0.000 C 
ATOM      4  N   UNL     1      -0.118   9.065  20.556  0.00  0.00    +0.000 NA
ATOM      5  C   UNL     1      -0.359  10.510  20.298  0.00  0.00    +0.000 C 
ATOM      6  C   UNL     1       0.069  11.485  21.440  0.00  0.00    +0.000 C 
ENDROOT
BRANCH   4   7
ATOM      7  N   UNL     1       1.321   8.778  20.395  0.00  0.00    +0.000 NA
ATOM      8  H   UNL     1       1.909   9.411  20.939  0.00  0.00    +0.000 HD
BRANCH   7   9
ATOM      9  C   UNL     1       1.659   7.383  20.725  0.00  0.00    +0.000 C 
BRANCH   9  10
ATOM     10  C   UNL     1       2.417   6.719  19.591  0.00  0.00    +0.000 A 
ATOM     11  C   UNL     1       2.882   7.538  18.550  0.00  0.00    +0.000 A 
ATOM     12  C   UNL     1       3.588   7.004  17.476  0.00  0.00    +0.000 A 
ATOM     13  C   UNL     1       3.838   5.636  17.421  0.00  0.00    +0.000 A 
ATOM     14  C   UNL     1       3.389   4.801  18.447  0.00  0.00    +0.000 A 
ATOM     15 CL   UNL     1       3.748   3.112  18.299  0.00  0.00    +0.000 Cl
ATOM     16  C   UNL     1       2.680   5.332  19.540  0.00  0.00    +0.000 A 
ATOM     17 CL   UNL     1       2.151   4.277  20.815  0.00  0.00    +0.000 Cl
ENDBRANCH   9  10
ENDBRANCH   7   9
ENDBRANCH   4   7
BRANCH   1  18
ATOM     18  C   UNL     1      -1.635  11.382  23.188  0.00  0.00    +0.000 C 
BRANCH  18  19
ATOM     19  C   UNL     1      -2.081  12.841  22.922  0.00  0.00    +0.000 C 
BRANCH  19  24
ATOM     20  O   UNL     1      -6.857  12.866  23.857  0.00  0.00    +0.000 OA
ATOM     21  C   UNL     1      -5.803  12.858  23.266  0.00  0.00    +0.000 C 
ATOM     22  C   UNL     1      -4.382  12.988  23.874  0.00  0.00    +0.000 C 
ATOM     23  O   UNL     1      -4.125  13.069  25.056  0.00  0.00    +0.000 OA
ATOM     24  N   UNL     1      -3.517  12.938  22.792  0.00  0.00    +0.000 N 
ATOM     25  C   UNL     1      -4.222  12.750  21.594  0.00  0.00    +0.000 A 
ATOM     26  C   UNL     1      -3.715  12.599  20.314  0.00  0.00    +0.000 A 
ATOM     27  C   UNL     1      -4.631  12.388  19.276  0.00  0.00    +0.000 A 
ATOM     28  C   UNL     1      -6.018  12.327  19.527  0.00  0.00    +0.000 A 
ATOM     29  C   UNL     1      -6.516  12.480  20.820  0.00  0.00    +0.000 A 
ATOM     30  C   UNL     1      -5.594  12.696  21.830  0.00  0.00    +0.000 A 
ENDBRANCH  19  24
ENDBRANCH  18  19
ENDBRANCH   1  18
TORSDOF 6
ENDMDL
MODEL 5
REMARK VINA RESULT:      -7.3      4.697      9.247
REMARK  Name = 
REMARK  6 active torsions:
REMARK  status: ('A' for Active; 'I' for Inactive)
REMARK    1  A    between atoms: N_5  and  C_6
REMARK    2  A    between atoms: C_6  and  C_7
REMARK    3  A    between atoms: C_7  and  N_8
REMARK    4  A    between atoms: N_11  and  N_12
REMARK    5  A    between atoms: N_12  and  C_13
REMARK    6  A    between atoms: C_13  and  C_14
REMARK                            x       y       z     vdW  Elec       q    Type
REMARK                         _______ _______ _______ _____ _____    ______ ____
ROOT
ATOM      1  N   UNL     1       0.848   8.320  19.992  0.00  0.00    +0.000 NA
ATOM      2  C   UNL     1       0.631   8.198  21.446  0.00  0.00    +0.000 C 
ATOM      3  C   UNL     1       1.460   9.208  22.261  0.00  0.00    +0.000 C 
ATOM      4  N   UNL     1       1.060  10.608  21.991  0.00  0.00    +0.000 NA
ATOM      5  C   UNL     1       1.214  10.845  20.530  0.00  0.00    +0.000 C 
ATOM      6  C   UNL     1       0.626   9.739  19.596  0.00  0.00    +0.000 C 
ENDROOT
BRANCH   4   7
ATOM      7  N   UNL     1      -0.337  10.883  22.381  0.00  0.00    +0.000 NA
ATOM      8  H   UNL     1      -0.553  10.549  23.321  0.00  0.00    +0.000 HD
BRANCH   7   9
ATOM      9  C   UNL     1      -0.680  12.311  22.273  0.00  0.00    +0.000 C 
BRANCH   9  10
ATOM     10  C   UNL     1      -2.183  12.510  22.204  0.00  0.00    +0.000 A 
ATOM     11  C   UNL     1      -2.883  12.615  23.417  0.00  0.00    +0.000 A 
ATOM     12  C   UNL     1      -4.263  12.801  23.437  0.00  0.00    +0.000 A 
ATOM     13  C   UNL     1      -4.969  12.881  22.240  0.00  0.00    +0.000 A 
ATOM     14  C   UNL     1      -4.295  12.784  21.021  0.00  0.00    +0.000 A 
ATOM     15 CL   UNL     1      -5.253  12.899  19.582  0.00  0.00    +0.000 Cl
ATOM     16  C   UNL     1      -2.900  12.602  20.990  0.00  0.00    +0.000 A 
ATOM     17 CL   UNL     1      -2.079  12.507  19.462  0.00  0.00    +0.000 Cl
ENDBRANCH   9  10
ENDBRANCH   7   9
ENDBRANCH   4   7
BRANCH   1  18
ATOM     18  C   UNL     1       2.191   7.861  19.586  0.00  0.00    +0.000 C 
BRANCH  18  19
ATOM     19  C   UNL     1       2.315   7.394  18.115  0.00  0.00    +0.000 C 
BRANCH  19  24
ATOM     20  O   UNL     1       6.018   4.431  17.022  0.00  0.00    +0.000 OA
ATOM     21  C   UNL     1       4.937   4.832  17.383  0.00  0.00    +0.000 C 
ATOM     22  C   UNL     1       4.489   6.307  17.554  0.00  0.00    +0.000 C 
ATOM     23  O   UNL     1       5.162   7.283  17.298  0.00  0.00    +0.000 OA
ATOM     24  N   UNL     1       3.178   6.241  18.000  0.00  0.00    +0.000 N 
ATOM     25  C   UNL     1       2.744   4.910  18.085  0.00  0.00    +0.000 A 
ATOM     26  C   UNL     1       1.491   4.437  18.439  0.00  0.00    +0.000 A 
ATOM     27  C   UNL     1       1.294   3.050  18.415  0.00  0.00    +0.000 A 
ATOM     28  C   UNL     1       2.331   2.171  18.040  0.00  0.00    +0.000 A 
ATOM     29  C   UNL     1       3.588   2.660  17.686  0.00  0.00    +0.000 A 
ATOM     30  C   UNL     1       3.764   4.032  17.725  0.00  0.00    +0.000 A 
ENDBRANCH  19  24
ENDBRANCH  18  19
ENDBRANCH   1  18
TORSDOF 6
ENDMDL
MODEL 6
REMARK VINA RESULT:      -7.3      5.154      9.548
REMARK  Name = 
REMARK  6 active torsions:
REMARK  status: ('A' for Active; 'I' for Inactive)
REMARK    1  A    between atoms: N_5  and  C_6
REMARK    2  A    between atoms: C_6  and  C_7
REMARK    3  A    between atoms: C_7  and  N_8
REMARK    4  A    between atoms: N_11  and  N_12
REMARK    5  A    between atoms: N_12  and  C_13
REMARK    6  A    between atoms: C_13  and  C_14
REMARK                            x       y       z     vdW  Elec       q    Type
REMARK                         _______ _______ _______ _____ _____    ______ ____
ROOT
ATOM      1  N   UNL     1       1.351   3.718  18.933  0.00  0.00    +0.000 NA
ATOM      2  C   UNL     1       0.909   4.035  20.305  0.00  0.00    +0.000 C 
ATOM      3  C   UNL     1       1.977   4.788  21.119  0.00  0.00    +0.000 C 
ATOM      4  N   UNL     1       2.268   6.126  20.557  0.00  0.00    +0.000 NA
ATOM      5  C   UNL     1       2.706   5.936  19.148  0.00  0.00    +0.000 C 
ATOM      6  C   UNL     1       1.827   4.973  18.287  0.00  0.00    +0.000 C 
ENDROOT
BRANCH   4   7
ATOM      7  N   UNL     1       1.094   7.019  20.582  0.00  0.00    +0.000 NA
ATOM      8  H   UNL     1       0.623   7.021  21.488  0.00  0.00    +0.000 HD
BRANCH   7   9
ATOM      9  C   UNL     1       1.428   8.401  20.197  0.00  0.00    +0.000 C 
BRANCH   9  10
ATOM     10  C   UNL     1       0.671   9.405  21.046  0.00  0.00    +0.000 A 
ATOM     11  C   UNL     1       0.077   8.941  22.230  0.00  0.00    +0.000 A 
ATOM     12  C   UNL     1      -0.633   9.802  23.063  0.00  0.00    +0.000 A 
ATOM     13  C   UNL     1      -0.765  11.145  22.723  0.00  0.00    +0.000 A 
ATOM     14  C   UNL     1      -0.179  11.631  21.552  0.00  0.00    +0.000 A 
ATOM     15 CL   UNL     1      -0.390  13.316  21.210  0.00  0.00    +0.000 Cl
ATOM     16  C   UNL     1       0.545  10.771  20.707  0.00  0.00    +0.000 A 
ATOM     17 CL   UNL     1       1.284  11.403  19.267  0.00  0.00    +0.000 Cl
ENDBRANCH   9  10
ENDBRANCH   7   9
ENDBRANCH   4   7
BRANCH   1  18
ATOM     18  C   UNL     1       2.400   2.681  18.909  0.00  0.00    +0.000 C 
BRANCH  18  19
ATOM     19  C   UNL     1       3.304   2.682  17.652  0.00  0.00    +0.000 C 
BRANCH  19  24
ATOM     20  O   UNL     1       7.019   4.977  19.803  0.00  0.00    +0.000 OA
ATOM     21  C   UNL     1       6.267   4.552  18.958  0.00  0.00    +0.000 C 
ATOM     22  C   UNL     1       5.080   3.574  19.161  0.00  0.00    +0.000 C 
ATOM     23  O   UNL     1       4.707   3.129  20.225  0.00  0.00    +0.000 OA
ATOM     24  N   UNL     1       4.544   3.383  17.897  0.00  0.00    +0.000 N 
ATOM     25  C   UNL     1       5.224   4.155  16.942  0.00  0.00    +0.000 A 
ATOM     26  C   UNL     1       4.957   4.276  15.589  0.00  0.00    +0.000 A 
ATOM     27  C   UNL     1       5.766   5.145  14.846  0.00  0.00    +0.000 A 
ATOM     28  C   UNL     1       6.809   5.873  15.455  0.00  0.00    +0.000 A 
ATOM     29  C   UNL     1       7.068   5.742  16.819  0.00  0.00    +0.000 A 
ATOM     30  C   UNL     1       6.263   4.872  17.533  0.00  0.00    +0.000 A 
ENDBRANCH  19  24
ENDBRANCH  18  19
ENDBRANCH   1  18
TORSDOF 6
ENDMDL
MODEL 7
REMARK VINA RESULT:      -7.1      5.215      9.468
REMARK  Name = 
REMARK  6 active torsions:
REMARK  status: ('A' for Active; 'I' for Inactive)
REMARK    1  A    between atoms: N_5  and  C_6
REMARK    2  A    between atoms: C_6  and  C_7
REMARK    3  A    between atoms: C_7  and  N_8
REMARK    4  A    between atoms: N_11  and  N_12
REMARK    5  A    between atoms: N_12  and  C_13
REMARK    6  A    between atoms: C_13  and  C_14
REMARK                            x       y       z     vdW  Elec       q    Type
REMARK                         _______ _______ _______ _____ _____    ______ ____
ROOT
ATOM      1  N   UNL     1       0.630   8.673  19.708  0.00  0.00    +0.000 NA
ATOM      2  C   UNL     1       0.528   8.488  21.169  0.00  0.00    +0.000 C 
ATOM      3  C   UNL     1       1.483   9.405  21.956  0.00  0.00    +0.000 C 
ATOM      4  N   UNL     1       1.149  10.837  21.788  0.00  0.00    +0.000 NA
ATOM      5  C   UNL     1       1.195  11.141  20.332  0.00  0.00    +0.000 C 
ATOM      6  C   UNL     1       0.464  10.122  19.401  0.00  0.00    +0.000 C 
ENDROOT
BRANCH   4   7
ATOM      7  N   UNL     1      -0.190  11.171  22.310  0.00  0.00    +0.000 NA
ATOM      8  H   UNL     1      -0.307  10.902  23.287  0.00  0.00    +0.000 HD
BRANCH   7   9
ATOM      9  C   UNL     1      -0.517  12.599  22.149  0.00  0.00    +0.000 C 
BRANCH   9  10
ATOM     10  C   UNL     1      -1.685  12.997  23.033  0.00  0.00    +0.000 A 
ATOM     11  C   UNL     1      -2.692  12.043  23.250  0.00  0.00    +0.000 A 
ATOM     12  C   UNL     1      -3.794  12.332  24.051  0.00  0.00    +0.000 A 
ATOM     13  C   UNL     1      -3.910  13.584  24.647  0.00  0.00    +0.000 A 
ATOM     14  C   UNL     1      -2.919  14.548  24.449  0.00  0.00    +0.000 A 
ATOM     15 CL   UNL     1      -3.143  16.077  25.232  0.00  0.00    +0.000 Cl
ATOM     16  C   UNL     1      -1.798  14.264  23.647  0.00  0.00    +0.000 A 
ATOM     17 CL   UNL     1      -0.566  15.470  23.433  0.00  0.00    +0.000 Cl
ENDBRANCH   9  10
ENDBRANCH   7   9
ENDBRANCH   4   7
BRANCH   1  18
ATOM     18  C   UNL     1       1.903   8.161  19.166  0.00  0.00    +0.000 C 
BRANCH  18  19
ATOM     19  C   UNL     1       2.412   6.845  19.804  0.00  0.00    +0.000 C 
BRANCH  19  24
ATOM     20  O   UNL     1       2.246   2.609  17.411  0.00  0.00    +0.000 OA
ATOM     21  C   UNL     1       2.546   3.735  17.733  0.00  0.00    +0.000 C 
ATOM     22  C   UNL     1       1.894   4.602  18.842  0.00  0.00    +0.000 C 
ATOM     23  O   UNL     1       1.006   4.244  19.587  0.00  0.00    +0.000 OA
ATOM     24  N   UNL     1       2.576   5.808  18.810  0.00  0.00    +0.000 N 
ATOM     25  C   UNL     1       3.598   5.781  17.849  0.00  0.00    +0.000 A 
ATOM     26  C   UNL     1       4.525   6.767  17.554  0.00  0.00    +0.000 A 
ATOM     27  C   UNL     1       5.476   6.485  16.566  0.00  0.00    +0.000 A 
ATOM     28  C   UNL     1       5.492   5.241  15.901  0.00  0.00    +0.000 A 
ATOM     29  C   UNL     1       4.553   4.257  16.207  0.00  0.00    +0.000 A 
ATOM     30  C   UNL     1       3.617   4.559  17.180  0.00  0.00    +0.000 A 
ENDBRANCH  19  24
ENDBRANCH  18  19
ENDBRANCH   1  18
TORSDOF 6
ENDMDL
MODEL 8
REMARK VINA RESULT:      -7.1      3.169      5.125
REMARK  Name = 
REMARK  6 active torsions:
REMARK  status: ('A' for Active; 'I' for Inactive)
REMARK    1  A    between atoms: N_5  and  C_6
REMARK    2  A    between atoms: C_6  and  C_7
REMARK    3  A    between atoms: C_7  and  N_8
REMARK    4  A    between atoms: N_11  and  N_12
REMARK    5  A    between atoms: N_12  and  C_13
REMARK    6  A    between atoms: C_13  and  C_14
REMARK                            x       y       z     vdW  Elec       q    Type
REMARK                         _______ _______ _______ _____ _____    ______ ____
ROOT
ATOM      1  N   UNL     1       2.395   6.395  20.441  0.00  0.00    +0.000 NA
ATOM      2  C   UNL     1       2.252   4.985  20.853  0.00  0.00    +0.000 C 
ATOM      3  C   UNL     1       1.226   4.214  20.002  0.00  0.00    +0.000 C 
ATOM      4  N   UNL     1       1.649   4.095  18.589  0.00  0.00    +0.000 NA
ATOM      5  C   UNL     1       1.853   5.472  18.063  0.00  0.00    +0.000 C 
ATOM      6  C   UNL     1       2.676   6.434  18.978  0.00  0.00    +0.000 C 
ENDROOT
BRANCH   4   7
ATOM      7  N   UNL     1       2.900   3.329  18.434  0.00  0.00    +0.000 NA
ATOM      8  H   UNL     1       2.800   2.355  18.724  0.00  0.00    +0.000 HD
BRANCH   7   9
ATOM      9  C   UNL     1       3.428   3.382  17.060  0.00  0.00    +0.000 C 
BRANCH   9  10
ATOM     10  C   UNL     1       4.824   3.978  17.032  0.00  0.00    +0.000 A 
ATOM     11  C   UNL     1       5.447   4.237  18.263  0.00  0.00    +0.000 A 
ATOM     12  C   UNL     1       6.727   4.780  18.320  0.00  0.00    +0.000 A 
ATOM     13  C   UNL     1       7.407   5.079  17.143  0.00  0.00    +0.000 A 
ATOM     14  C   UNL     1       6.810   4.827  15.906  0.00  0.00    +0.000 A 
ATOM     15 CL   UNL     1       7.730   5.225  14.493  0.00  0.00    +0.000 Cl
ATOM     16  C   UNL     1       5.519   4.272  15.837  0.00  0.00    +0.000 A 
ATOM     17 CL   UNL     1       4.805   3.945  14.288  0.00  0.00    +0.000 Cl
ENDBRANCH   9  10
ENDBRANCH   7   9
ENDBRANCH   4   7
BRANCH   1  18
ATOM     18  C   UNL     1       1.204   7.199  20.772  0.00  0.00    +0.000 C 
BRANCH  18  19
ATOM     19  C   UNL     1       1.491   8.648  21.235  0.00  0.00    +0.000 C 
BRANCH  19  24
ATOM     20  O   UNL     1      -0.701  11.779  18.221  0.00  0.00    +0.000 OA
ATOM     21  C   UNL     1      -0.419  11.144  19.210  0.00  0.00    +0.000 C 
ATOM     22  C   UNL     1       0.613   9.992  19.324  0.00  0.00    +0.000 C 
ATOM     23  O   UNL     1       1.329   9.593  18.430  0.00  0.00    +0.000 OA
ATOM     24  N   UNL     1       0.558   9.583  20.648  0.00  0.00    +0.000 N 
ATOM     25  C   UNL     1      -0.348  10.368  21.378  0.00  0.00    +0.000 A 
ATOM     26  C   UNL     1      -0.643  10.305  22.729  0.00  0.00    +0.000 A 
ATOM     27  C   UNL     1      -1.568  11.228  23.232  0.00  0.00    +0.000 A 
ATOM     28  C   UNL     1      -2.171  12.189  22.394  0.00  0.00    +0.000 A 
ATOM     29  C   UNL     1      -1.865  12.242  21.035  0.00  0.00    +0.000 A 
ATOM     30  C   UNL     1      -0.956  11.315  20.557  0.00  0.00    +0.000 A 
ENDBRANCH  19  24
ENDBRANCH  18  19
ENDBRANCH   1  18
TORSDOF 6
ENDMDL
MODEL 9
REMARK VINA RESULT:      -7.1      1.479      2.316
REMARK  Name = 
REMARK  6 active torsions:
REMARK  status: ('A' for Active; 'I' for Inactive)
REMARK    1  A    between atoms: N_5  and  C_6
REMARK    2  A    between atoms: C_6  and  C_7
REMARK    3  A    between atoms: C_7  and  N_8
REMARK    4  A    between atoms: N_11  and  N_12
REMARK    5  A    between atoms: N_12  and  C_13
REMARK    6  A    between atoms: C_13  and  C_14
REMARK                            x       y       z     vdW  Elec       q    Type
REMARK                         _______ _______ _______ _____ _____    ______ ____
ROOT
ATOM      1  N   UNL     1       0.681  11.167  21.171  0.00  0.00    +0.000 NA
ATOM      2  C   UNL     1       0.876  10.065  22.133  0.00  0.00    +0.000 C 
ATOM      3  C   UNL     1       0.109   8.788  21.744  0.00  0.00    +0.000 C 
ATOM      4  N   UNL     1       0.605   8.203  20.477  0.00  0.00    +0.000 NA
ATOM      5  C   UNL     1       0.481   9.244  19.422  0.00  0.00    +0.000 C 
ATOM      6  C   UNL     1       1.002  10.666  19.805  0.00  0.00    +0.000 C 
ENDROOT
BRANCH   4   7
ATOM      7  N   UNL     1       2.013   7.770  20.567  0.00  0.00    +0.000 NA
ATOM      8  H   UNL     1       2.196   7.206  21.398  0.00  0.00    +0.000 HD
BRANCH   7   9
ATOM      9  C   UNL     1       2.455   7.039  19.367  0.00  0.00    +0.000 C 
BRANCH   9  10
ATOM     10  C   UNL     1       2.267   5.542  19.536  0.00  0.00    +0.000 A 
ATOM     11  C   UNL     1       1.477   5.102  20.609  0.00  0.00    +0.000 A 
ATOM     12  C   UNL     1       1.256   3.745  20.830  0.00  0.00    +0.000 A 
ATOM     13  C   UNL     1       1.827   2.802  19.980  0.00  0.00    +0.000 A 
ATOM     14  C   UNL     1       2.614   3.216  18.903  0.00  0.00    +0.000 A 
ATOM     15 CL   UNL     1       3.281   1.974  17.895  0.00  0.00    +0.000 Cl
ATOM     16  C   UNL     1       2.838   4.585  18.668  0.00  0.00    +0.000 A 
ATOM     17 CL   UNL     1       3.801   5.077  17.309  0.00  0.00    +0.000 Cl
ENDBRANCH   9  10
ENDBRANCH   7   9
ENDBRANCH   4   7
BRANCH   1  18
ATOM     18  C   UNL     1      -0.685  11.722  21.224  0.00  0.00    +0.000 C 
BRANCH  18  19
ATOM     19  C   UNL     1      -1.107  12.561  19.993  0.00  0.00    +0.000 C 
BRANCH  19  24
ATOM     20  O   UNL     1      -4.754  11.046  17.147  0.00  0.00    +0.000 OA
ATOM     21  C   UNL     1      -4.144  11.509  18.082  0.00  0.00    +0.000 C 
ATOM     22  C   UNL     1      -2.605  11.544  18.276  0.00  0.00    +0.000 C 
ATOM     23  O   UNL     1      -1.784  11.146  17.478  0.00  0.00    +0.000 OA
ATOM     24  N   UNL     1      -2.406  12.159  19.502  0.00  0.00    +0.000 N 
ATOM     25  C   UNL     1      -3.628  12.549  20.072  0.00  0.00    +0.000 A 
ATOM     26  C   UNL     1      -3.842  13.232  21.257  0.00  0.00    +0.000 A 
ATOM     27  C   UNL     1      -5.166  13.538  21.596  0.00  0.00    +0.000 A 
ATOM     28  C   UNL     1      -6.239  13.168  20.758  0.00  0.00    +0.000 A 
ATOM     29  C   UNL     1      -6.010  12.480  19.568  0.00  0.00    +0.000 A 
ATOM     30  C   UNL     1      -4.695  12.180  19.256  0.00  0.00    +0.000 A 
ENDBRANCH  19  24
ENDBRANCH  18  19
ENDBRANCH   1  18
TORSDOF 6
ENDMDL
