MODEL 1
REMARK VINA RESULT:      -7.3      0.000      0.000
REMARK  Name = 
REMARK  7 active torsions:
REMARK  status: ('A' for Active; 'I' for Inactive)
REMARK    1  A    between atoms: C_2  and  C_3
REMARK    2  A    between atoms: C_3  and  C_4
REMARK    3  A    between atoms: C_4  and  N_5
REMARK    4  A    between atoms: N_15  and  C_16
REMARK    5  A    between atoms: C_16  and  C_17
REMARK    6  A    between atoms: C_17  and  O_18
REMARK    7  A    between atoms: C_17  and  C_19
REMARK                            x       y       z     vdW  Elec       q    Type
REMARK                         _______ _______ _______ _____ _____    ______ ____
ROOT
ATOM      1  O   UNL     1       7.479   5.625  15.091  0.00  0.00    +0.000 OA
ATOM      2  C   UNL     1       6.546   5.870  15.849  0.00  0.00    +0.000 C 
ATOM      3  N   UNL     1       6.546   6.931  16.727  0.00  0.00    +0.000 N 
ATOM      4  H   UNL     1       5.870   6.949  17.484  0.00  0.00    +0.000 HD
ENDROOT
BRANCH   2   5
ATOM      5  C   UNL     1       5.256   5.089  15.844  0.00  0.00    +0.000 C 
BRANCH   5   6
ATOM      6  C   UNL     1       5.376   3.859  16.737  0.00  0.00    +0.000 C 
BRANCH   6   7
ATOM      7  N   UNL     1       4.808   4.091  18.042  0.00  0.00    +0.000 N 
ATOM      8  C   UNL     1       5.454   4.661  19.119  0.00  0.00    +0.000 A 
ATOM      9  O   UNL     1       6.628   5.011  19.149  0.00  0.00    +0.000 OA
ATOM     10  O   UNL     1       4.582   4.822  20.205  0.00  0.00    +0.000 OA
ATOM     11  C   UNL     1       3.381   4.362  19.691  0.00  0.00    +0.000 A 
ATOM     12  C   UNL     1       2.178   4.345  20.363  0.00  0.00    +0.000 A 
ATOM     13  C   UNL     1       1.064   3.862  19.672  0.00  0.00    +0.000 A 
ATOM     14  C   UNL     1       1.178   3.414  18.341  0.00  0.00    +0.000 A 
ATOM     15  C   UNL     1       2.409   3.440  17.680  0.00  0.00    +0.000 A 
ATOM     16  C   UNL     1       3.489   3.919  18.388  0.00  0.00    +0.000 A 
ENDBRANCH   6   7
ENDBRANCH   5   6
ENDBRANCH   2   5
BRANCH   3  17
ATOM     17  C   UNL     1       7.738   7.741  16.907  0.00  0.00    +0.000 C 
BRANCH  17  18
ATOM     18  C   UNL     1       7.877   8.271  18.347  0.00  0.00    +0.000 C 
BRANCH  18  19
ATOM     19  C   UNL     1       8.540   9.633  18.477  0.00  0.00    +0.000 A 
ATOM     20  C   UNL     1       9.525   9.912  19.440  0.00  0.00    +0.000 A 
ATOM     21  C   UNL     1      10.101  11.182  19.531  0.00  0.00    +0.000 A 
ATOM     22  C   UNL     1       9.702  12.190  18.660  0.00  0.00    +0.000 A 
ATOM     23 CL   UNL     1      10.401  13.755  18.790  0.00  0.00    +0.000 Cl
ATOM     24  C   UNL     1       8.738  11.935  17.689  0.00  0.00    +0.000 A 
ATOM     25  C   UNL     1       8.163  10.663  17.598  0.00  0.00    +0.000 A 
ENDBRANCH  18  19
BRANCH  18  26
ATOM     26  O   UNL     1       8.633   7.304  19.095  0.00  0.00    +0.000 OA
ATOM     27  H   UNL     1       9.348   7.787  19.546  0.00  0.00    +0.000 HD
ENDBRANCH  18  26
ENDBRANCH  17  18
ENDBRANCH   3  17
TORSDOF 7
ENDMDL
MODEL 2
REMARK VINA RESULT:      -7.3      3.848      9.313
REMARK  Name = 
REMARK  7 active torsions:
REMARK  status: ('A' for Active; 'I' for Inactive)
REMARK    1  A    between atoms: C_2  and  C_3
REMARK    2  A    between atoms: C_3  and  C_4
REMARK    3  A    between atoms: C_4  and  N_5
REMARK    4  A    between atoms: N_15  and  C_16
REMARK    5  A    between atoms: C_16  and  C_17
REMARK    6  A    between atoms: C_17  and  O_18
REMARK    7  A    between atoms: C_17  and  C_19
REMARK                            x       y       z     vdW  Elec       q    Type
REMARK                         _______ _______ _______ _____ _____    ______ ____
ROOT
ATOM      1  O   UNL     1       8.538   7.414  18.881  0.00  0.00    +0.000 OA
ATOM      2  C   UNL     1       8.085   8.249  18.104  0.00  0.00    +0.000 C 
ATOM      3  N   UNL     1       7.055   7.986  17.230  0.00  0.00    +0.000 N 
ATOM      4  H   UNL     1       6.882   8.623  16.459  0.00  0.00    +0.000 HD
ENDROOT
BRANCH   2   5
ATOM      5  C   UNL     1       8.547   9.684  18.080  0.00  0.00    +0.000 C 
BRANCH   5   6
ATOM      6  C   UNL     1       9.392   9.991  19.312  0.00  0.00    +0.000 C 
BRANCH   6   7
ATOM      7  N   UNL     1       9.529  11.411  19.522  0.00  0.00    +0.000 N 
ATOM      8  C   UNL     1       9.163  12.103  20.658  0.00  0.00    +0.000 A 
ATOM      9  O   UNL     1       8.616  11.625  21.644  0.00  0.00    +0.000 OA
ATOM     10  O   UNL     1       9.519  13.456  20.564  0.00  0.00    +0.000 OA
ATOM     11  C   UNL     1      10.157  13.510  19.335  0.00  0.00    +0.000 A 
ATOM     12  C   UNL     1      10.737  14.631  18.783  0.00  0.00    +0.000 A 
ATOM     13  C   UNL     1      11.355  14.488  17.538  0.00  0.00    +0.000 A 
ATOM     14  C   UNL     1      11.379  13.240  16.883  0.00  0.00    +0.000 A 
ATOM     15  C   UNL     1      10.782  12.116  17.462  0.00  0.00    +0.000 A 
ATOM     16  C   UNL     1      10.179  12.290  18.688  0.00  0.00    +0.000 A 
ENDBRANCH   6   7
ENDBRANCH   5   6
ENDBRANCH   2   5
BRANCH   3  17
ATOM     17  C   UNL     1       6.542   6.635  17.077  0.00  0.00    +0.000 C 
BRANCH  17  18
ATOM     18  C   UNL     1       5.109   6.611  16.513  0.00  0.00    +0.000 C 
BRANCH  18  19
ATOM     19  C   UNL     1       4.210   5.518  17.068  0.00  0.00    +0.000 A 
ATOM     20  C   UNL     1       4.475   4.149  16.889  0.00  0.00    +0.000 A 
ATOM     21  C   UNL     1       3.614   3.177  17.408  0.00  0.00    +0.000 A 
ATOM     22  C   UNL     1       2.480   3.560  18.115  0.00  0.00    +0.000 A 
ATOM     23 CL   UNL     1       1.418   2.359  18.735  0.00  0.00    +0.000 Cl
ATOM     24  C   UNL     1       2.203   4.908  18.318  0.00  0.00    +0.000 A 
ATOM     25  C   UNL     1       3.065   5.880  17.799  0.00  0.00    +0.000 A 
ENDBRANCH  18  19
BRANCH  18  26
ATOM     26  O   UNL     1       5.205   6.464  15.086  0.00  0.00    +0.000 OA
ATOM     27  H   UNL     1       4.923   5.557  14.872  0.00  0.00    +0.000 HD
ENDBRANCH  18  26
ENDBRANCH  17  18
ENDBRANCH   3  17
TORSDOF 7
ENDMDL
MODEL 3
REMARK VINA RESULT:      -7.1      1.839      2.378
REMARK  Name = 
REMARK  7 active torsions:
REMARK  status: ('A' for Active; 'I' for Inactive)
REMARK    1  A    between atoms: C_2  and  C_3
REMARK    2  A    between atoms: C_3  and  C_4
REMARK    3  A    between atoms: C_4  and  N_5
REMARK    4  A    between atoms: N_15  and  C_16
REMARK    5  A    between atoms: C_16  and  C_17
REMARK    6  A    between atoms: C_17  and  O_18
REMARK    7  A    between atoms: C_17  and  C_19
REMARK                            x       y       z     vdW  Elec       q    Type
REMARK                         _______ _______ _______ _____ _____    ______ ____
ROOT
ATOM      1  O   UNL     1       7.765   6.742  16.281  0.00  0.00    +0.000 OA
ATOM      2  C   UNL     1       7.226   6.962  17.361  0.00  0.00    +0.000 C 
ATOM      3  N   UNL     1       7.395   8.133  18.064  0.00  0.00    +0.000 N 
ATOM      4  H   UNL     1       7.126   8.169  19.042  0.00  0.00    +0.000 HD
ENDROOT
BRANCH   2   5
ATOM      5  C   UNL     1       6.247   6.008  18.000  0.00  0.00    +0.000 C 
BRANCH   5   6
ATOM      6  C   UNL     1       4.821   6.361  17.595  0.00  0.00    +0.000 C 
BRANCH   6   7
ATOM      7  N   UNL     1       3.942   5.222  17.697  0.00  0.00    +0.000 N 
ATOM      8  C   UNL     1       3.982   4.093  16.905  0.00  0.00    +0.000 A 
ATOM      9  O   UNL     1       4.738   3.906  15.959  0.00  0.00    +0.000 OA
ATOM     10  O   UNL     1       3.045   3.142  17.333  0.00  0.00    +0.000 OA
ATOM     11  C   UNL     1       2.489   3.752  18.445  0.00  0.00    +0.000 A 
ATOM     12  C   UNL     1       1.526   3.202  19.263  0.00  0.00    +0.000 A 
ATOM     13  C   UNL     1       1.100   3.961  20.355  0.00  0.00    +0.000 A 
ATOM     14  C   UNL     1       1.641   5.239  20.601  0.00  0.00    +0.000 A 
ATOM     15  C   UNL     1       2.617   5.778  19.757  0.00  0.00    +0.000 A 
ATOM     16  C   UNL     1       3.015   5.006  18.688  0.00  0.00    +0.000 A 
ENDBRANCH   6   7
ENDBRANCH   5   6
ENDBRANCH   2   5
BRANCH   3  17
ATOM     17  C   UNL     1       8.357   9.128  17.623  0.00  0.00    +0.000 C 
BRANCH  17  18
ATOM     18  C   UNL     1       8.632  10.196  18.698  0.00  0.00    +0.000 C 
BRANCH  18  19
ATOM     19  C   UNL     1       9.369  11.434  18.210  0.00  0.00    +0.000 A 
ATOM     20  C   UNL     1      10.704  11.403  17.771  0.00  0.00    +0.000 A 
ATOM     21  C   UNL     1      11.345  12.568  17.341  0.00  0.00    +0.000 A 
ATOM     22  C   UNL     1      10.662  13.778  17.341  0.00  0.00    +0.000 A 
ATOM     23 CL   UNL     1      11.463  15.210  16.827  0.00  0.00    +0.000 Cl
ATOM     24  C   UNL     1       9.335  13.833  17.757  0.00  0.00    +0.000 A 
ATOM     25  C   UNL     1       8.693  12.667  18.187  0.00  0.00    +0.000 A 
ENDBRANCH  18  19
BRANCH  18  26
ATOM     26  O   UNL     1       9.396   9.575  19.745  0.00  0.00    +0.000 OA
ATOM     27  H   UNL     1      10.299   9.934  19.692  0.00  0.00    +0.000 HD
ENDBRANCH  18  26
ENDBRANCH  17  18
ENDBRANCH   3  17
TORSDOF 7
ENDMDL
MODEL 4
REMARK VINA RESULT:      -7.1      4.129      5.731
REMARK  Name = 
REMARK  7 active torsions:
REMARK  status: ('A' for Active; 'I' for Inactive)
REMARK    1  A    between atoms: C_2  and  C_3
REMARK    2  A    between atoms: C_3  and  C_4
REMARK    3  A    between atoms: C_4  and  N_5
REMARK    4  A    between atoms: N_15  and  C_16
REMARK    5  A    between atoms: C_16  and  C_17
REMARK    6  A    between atoms: C_17  and  O_18
REMARK    7  A    between atoms: C_17  and  C_19
REMARK                            x       y       z     vdW  Elec       q    Type
REMARK                         _______ _______ _______ _____ _____    ______ ____
ROOT
ATOM      1  O   UNL     1       4.949   7.137  15.862  0.00  0.00    +0.000 OA
ATOM      2  C   UNL     1       4.864   6.879  17.059  0.00  0.00    +0.000 C 
ATOM      3  N   UNL     1       5.954   6.594  17.849  0.00  0.00    +0.000 N 
ATOM      4  H   UNL     1       5.810   6.161  18.756  0.00  0.00    +0.000 HD
ENDROOT
BRANCH   2   5
ATOM      5  C   UNL     1       3.562   6.930  17.819  0.00  0.00    +0.000 C 
BRANCH   5   6
ATOM      6  C   UNL     1       3.757   6.421  19.242  0.00  0.00    +0.000 C 
BRANCH   6   7
ATOM      7  N   UNL     1       2.717   5.498  19.624  0.00  0.00    +0.000 N 
ATOM      8  C   UNL     1       1.641   5.780  20.439  0.00  0.00    +0.000 A 
ATOM      9  O   UNL     1       1.430   6.844  21.008  0.00  0.00    +0.000 OA
ATOM     10  O   UNL     1       0.774   4.682  20.530  0.00  0.00    +0.000 OA
ATOM     11  C   UNL     1       1.373   3.761  19.687  0.00  0.00    +0.000 A 
ATOM     12  C   UNL     1       0.882   2.506  19.394  0.00  0.00    +0.000 A 
ATOM     13  C   UNL     1       1.616   1.722  18.501  0.00  0.00    +0.000 A 
ATOM     14  C   UNL     1       2.809   2.205  17.928  0.00  0.00    +0.000 A 
ATOM     15  C   UNL     1       3.288   3.481  18.240  0.00  0.00    +0.000 A 
ATOM     16  C   UNL     1       2.544   4.229  19.125  0.00  0.00    +0.000 A 
ENDBRANCH   6   7
ENDBRANCH   5   6
ENDBRANCH   2   5
BRANCH   3  17
ATOM     17  C   UNL     1       7.272   6.436  17.261  0.00  0.00    +0.000 C 
BRANCH  17  18
ATOM     18  C   UNL     1       7.566   4.979  16.859  0.00  0.00    +0.000 C 
BRANCH  18  19
ATOM     19  C   UNL     1       6.911   4.516  15.567  0.00  0.00    +0.000 A 
ATOM     20  C   UNL     1       5.757   3.713  15.542  0.00  0.00    +0.000 A 
ATOM     21  C   UNL     1       5.194   3.302  14.331  0.00  0.00    +0.000 A 
ATOM     22  C   UNL     1       5.773   3.690  13.129  0.00  0.00    +0.000 A 
ATOM     23 CL   UNL     1       5.085   3.166  11.643  0.00  0.00    +0.000 Cl
ATOM     24  C   UNL     1       6.907   4.497  13.125  0.00  0.00    +0.000 A 
ATOM     25  C   UNL     1       7.470   4.909  14.338  0.00  0.00    +0.000 A 
ENDBRANCH  18  19
BRANCH  18  26
ATOM     26  O   UNL     1       7.132   4.133  17.937  0.00  0.00    +0.000 OA
ATOM     27  H   UNL     1       7.467   3.237  17.751  0.00  0.00    +0.000 HD
ENDBRANCH  18  26
ENDBRANCH  17  18
ENDBRANCH   3  17
TORSDOF 7
ENDMDL
MODEL 5
REMARK VINA RESULT:      -7.0      3.756      5.623
REMARK  Name = 
REMARK  7 active torsions:
REMARK  status: ('A' for Active; 'I' for Inactive)
REMARK    1  A    between atoms: C_2  and  C_3
REMARK    2  A    between atoms: C_3  and  C_4
REMARK    3  A    between atoms: C_4  and  N_5
REMARK    4  A    between atoms: N_15  and  C_16
REMARK    5  A    between atoms: C_16  and  C_17
REMARK    6  A    between atoms: C_17  and  O_18
REMARK    7  A    between atoms: C_17  and  C_19
REMARK                            x       y       z     vdW  Elec       q    Type
REMARK                         _______ _______ _______ _____ _____    ______ ____
ROOT
ATOM      1  O   UNL     1       2.001   3.109  18.537  0.00  0.00    +0.000 OA
ATOM      2  C   UNL     1       2.321   4.292  18.593  0.00  0.00    +0.000 C 
ATOM      3  N   UNL     1       3.192   4.882  17.706  0.00  0.00    +0.000 N 
ATOM      4  H   UNL     1       3.600   5.782  17.934  0.00  0.00    +0.000 HD
ENDROOT
BRANCH   2   5
ATOM      5  C   UNL     1       1.727   5.256  19.590  0.00  0.00    +0.000 C 
BRANCH   5   6
ATOM      6  C   UNL     1       2.713   6.378  19.896  0.00  0.00    +0.000 C 
BRANCH   6   7
ATOM      7  N   UNL     1       2.164   7.672  19.573  0.00  0.00    +0.000 N 
ATOM      8  C   UNL     1       2.260   8.314  18.356  0.00  0.00    +0.000 A 
ATOM      9  O   UNL     1       2.873   7.907  17.376  0.00  0.00    +0.000 OA
ATOM     10  O   UNL     1       1.536   9.514  18.358  0.00  0.00    +0.000 OA
ATOM     11  C   UNL     1       0.971   9.517  19.623  0.00  0.00    +0.000 A 
ATOM     12  C   UNL     1       0.121  10.482  20.118  0.00  0.00    +0.000 A 
ATOM     13  C   UNL     1      -0.369  10.304  21.414  0.00  0.00    +0.000 A 
ATOM     14  C   UNL     1      -0.001   9.177  22.176  0.00  0.00    +0.000 A 
ATOM     15  C   UNL     1       0.863   8.210  21.654  0.00  0.00    +0.000 A 
ATOM     16  C   UNL     1       1.331   8.415  20.374  0.00  0.00    +0.000 A 
ENDBRANCH   6   7
ENDBRANCH   5   6
ENDBRANCH   2   5
BRANCH   3  17
ATOM     17  C   UNL     1       3.905   4.080  16.727  0.00  0.00    +0.000 C 
BRANCH  17  18
ATOM     18  C   UNL     1       5.383   3.868  17.105  0.00  0.00    +0.000 C 
BRANCH  18  19
ATOM     19  C   UNL     1       6.163   5.136  17.416  0.00  0.00    +0.000 A 
ATOM     20  C   UNL     1       5.977   6.338  16.711  0.00  0.00    +0.000 A 
ATOM     21  C   UNL     1       6.724   7.477  17.024  0.00  0.00    +0.000 A 
ATOM     22  C   UNL     1       7.663   7.432  18.048  0.00  0.00    +0.000 A 
ATOM     23 CL   UNL     1       8.590   8.833  18.416  0.00  0.00    +0.000 Cl
ATOM     24  C   UNL     1       7.855   6.259  18.772  0.00  0.00    +0.000 A 
ATOM     25  C   UNL     1       7.107   5.119  18.458  0.00  0.00    +0.000 A 
ENDBRANCH  18  19
BRANCH  18  26
ATOM     26  O   UNL     1       6.017   3.180  16.014  0.00  0.00    +0.000 OA
ATOM     27  H   UNL     1       5.394   3.195  15.265  0.00  0.00    +0.000 HD
ENDBRANCH  18  26
ENDBRANCH  17  18
ENDBRANCH   3  17
TORSDOF 7
ENDMDL
MODEL 6
REMARK VINA RESULT:      -7.0      1.703      2.487
REMARK  Name = 
REMARK  7 active torsions:
REMARK  status: ('A' for Active; 'I' for Inactive)
REMARK    1  A    between atoms: C_2  and  C_3
REMARK    2  A    between atoms: C_3  and  C_4
REMARK    3  A    between atoms: C_4  and  N_5
REMARK    4  A    between atoms: N_15  and  C_16
REMARK    5  A    between atoms: C_16  and  C_17
REMARK    6  A    between atoms: C_17  and  O_18
REMARK    7  A    between atoms: C_17  and  C_19
REMARK                            x       y       z     vdW  Elec       q    Type
REMARK                         _______ _______ _______ _____ _____    ______ ____
ROOT
ATOM      1  O   UNL     1       7.654   5.491  20.281  0.00  0.00    +0.000 OA
ATOM      2  C   UNL     1       7.200   5.703  19.161  0.00  0.00    +0.000 C 
ATOM      3  N   UNL     1       7.623   6.738  18.358  0.00  0.00    +0.000 N 
ATOM      4  H   UNL     1       7.060   7.008  17.558  0.00  0.00    +0.000 HD
ENDROOT
BRANCH   2   5
ATOM      5  C   UNL     1       6.187   4.800  18.501  0.00  0.00    +0.000 C 
BRANCH   5   6
ATOM      6  C   UNL     1       4.856   5.525  18.337  0.00  0.00    +0.000 C 
BRANCH   6   7
ATOM      7  N   UNL     1       3.782   4.606  18.054  0.00  0.00    +0.000 N 
ATOM      8  C   UNL     1       3.661   3.819  16.927  0.00  0.00    +0.000 A 
ATOM      9  O   UNL     1       4.422   3.820  15.967  0.00  0.00    +0.000 OA
ATOM     10  O   UNL     1       2.545   2.975  17.016  0.00  0.00    +0.000 OA
ATOM     11  C   UNL     1       2.048   3.273  18.273  0.00  0.00    +0.000 A 
ATOM     12  C   UNL     1       0.956   2.674  18.865  0.00  0.00    +0.000 A 
ATOM     13  C   UNL     1       0.614   3.091  20.153  0.00  0.00    +0.000 A 
ATOM     14  C   UNL     1       1.364   4.086  20.813  0.00  0.00    +0.000 A 
ATOM     15  C   UNL     1       2.466   4.681  20.193  0.00  0.00    +0.000 A 
ATOM     16  C   UNL     1       2.777   4.250  18.922  0.00  0.00    +0.000 A 
ENDBRANCH   6   7
ENDBRANCH   5   6
ENDBRANCH   2   5
BRANCH   3  17
ATOM     17  C   UNL     1       8.542   7.740  18.868  0.00  0.00    +0.000 C 
BRANCH  17  18
ATOM     18  C   UNL     1       8.546   9.022  18.014  0.00  0.00    +0.000 C 
BRANCH  18  19
ATOM     19  C   UNL     1       9.045  10.273  18.721  0.00  0.00    +0.000 A 
ATOM     20  C   UNL     1       9.312  10.313  20.100  0.00  0.00    +0.000 A 
ATOM     21  C   UNL     1       9.760  11.489  20.711  0.00  0.00    +0.000 A 
ATOM     22  C   UNL     1       9.949  12.637  19.952  0.00  0.00    +0.000 A 
ATOM     23 CL   UNL     1      10.482  14.084  20.713  0.00  0.00    +0.000 Cl
ATOM     24  C   UNL     1       9.706  12.619  18.582  0.00  0.00    +0.000 A 
ATOM     25  C   UNL     1       9.258  11.443  17.971  0.00  0.00    +0.000 A 
ENDBRANCH  18  19
BRANCH  18  26
ATOM     26  O   UNL     1       7.202   9.244  17.555  0.00  0.00    +0.000 OA
ATOM     27  H   UNL     1       6.669   8.487  17.855  0.00  0.00    +0.000 HD
ENDBRANCH  18  26
ENDBRANCH  17  18
ENDBRANCH   3  17
TORSDOF 7
ENDMDL
MODEL 7
REMARK VINA RESULT:      -7.0      4.477      6.707
REMARK  Name = 
REMARK  7 active torsions:
REMARK  status: ('A' for Active; 'I' for Inactive)
REMARK    1  A    between atoms: C_2  and  C_3
REMARK    2  A    between atoms: C_3  and  C_4
REMARK    3  A    between atoms: C_4  and  N_5
REMARK    4  A    between atoms: N_15  and  C_16
REMARK    5  A    between atoms: C_16  and  C_17
REMARK    6  A    between atoms: C_17  and  O_18
REMARK    7  A    between atoms: C_17  and  C_19
REMARK                            x       y       z     vdW  Elec       q    Type
REMARK                         _______ _______ _______ _____ _____    ______ ____
ROOT
ATOM      1  O   UNL     1       2.232   4.796  17.820  0.00  0.00    +0.000 OA
ATOM      2  C   UNL     1       2.884   5.356  18.696  0.00  0.00    +0.000 C 
ATOM      3  N   UNL     1       2.822   6.711  18.932  0.00  0.00    +0.000 N 
ATOM      4  H   UNL     1       3.544   7.150  19.495  0.00  0.00    +0.000 HD
ENDROOT
BRANCH   2   5
ATOM      5  C   UNL     1       3.762   4.611  19.670  0.00  0.00    +0.000 C 
BRANCH   5   6
ATOM      6  C   UNL     1       4.706   3.674  18.925  0.00  0.00    +0.000 C 
BRANCH   6   7
ATOM      7  N   UNL     1       5.696   4.404  18.173  0.00  0.00    +0.000 N 
ATOM      8  C   UNL     1       6.759   5.108  18.701  0.00  0.00    +0.000 A 
ATOM      9  O   UNL     1       6.995   5.266  19.893  0.00  0.00    +0.000 OA
ATOM     10  O   UNL     1       7.579   5.622  17.686  0.00  0.00    +0.000 OA
ATOM     11  C   UNL     1       6.969   5.141  16.540  0.00  0.00    +0.000 A 
ATOM     12  C   UNL     1       7.418   5.337  15.252  0.00  0.00    +0.000 A 
ATOM     13  C   UNL     1       6.680   4.755  14.219  0.00  0.00    +0.000 A 
ATOM     14  C   UNL     1       5.524   3.997  14.495  0.00  0.00    +0.000 A 
ATOM     15  C   UNL     1       5.087   3.812  15.810  0.00  0.00    +0.000 A 
ATOM     16  C   UNL     1       5.834   4.400  16.806  0.00  0.00    +0.000 A 
ENDBRANCH   6   7
ENDBRANCH   5   6
ENDBRANCH   2   5
BRANCH   3  17
ATOM     17  C   UNL     1       2.078   7.584  18.041  0.00  0.00    +0.000 C 
BRANCH  17  18
ATOM     18  C   UNL     1       2.151   9.061  18.471  0.00  0.00    +0.000 C 
BRANCH  18  19
ATOM     19  C   UNL     1       1.254   9.444  19.638  0.00  0.00    +0.000 A 
ATOM     20  C   UNL     1       0.286  10.459  19.554  0.00  0.00    +0.000 A 
ATOM     21  C   UNL     1      -0.510  10.785  20.656  0.00  0.00    +0.000 A 
ATOM     22  C   UNL     1      -0.351  10.099  21.855  0.00  0.00    +0.000 A 
ATOM     23 CL   UNL     1      -1.321  10.518  23.211  0.00  0.00    +0.000 Cl
ATOM     24  C   UNL     1       0.591   9.080  21.959  0.00  0.00    +0.000 A 
ATOM     25  C   UNL     1       1.387   8.754  20.856  0.00  0.00    +0.000 A 
ENDBRANCH  18  19
BRANCH  18  26
ATOM     26  O   UNL     1       1.807   9.864  17.329  0.00  0.00    +0.000 OA
ATOM     27  H   UNL     1       1.588   9.251  16.604  0.00  0.00    +0.000 HD
ENDBRANCH  18  26
ENDBRANCH  17  18
ENDBRANCH   3  17
TORSDOF 7
ENDMDL
MODEL 8
REMARK VINA RESULT:      -7.0      4.626      6.840
REMARK  Name = 
REMARK  7 active torsions:
REMARK  status: ('A' for Active; 'I' for Inactive)
REMARK    1  A    between atoms: C_2  and  C_3
REMARK    2  A    between atoms: C_3  and  C_4
REMARK    3  A    between atoms: C_4  and  N_5
REMARK    4  A    between atoms: N_15  and  C_16
REMARK    5  A    between atoms: C_16  and  C_17
REMARK    6  A    between atoms: C_17  and  O_18
REMARK    7  A    between atoms: C_17  and  C_19
REMARK                            x       y       z     vdW  Elec       q    Type
REMARK                         _______ _______ _______ _____ _____    ______ ____
ROOT
ATOM      1  O   UNL     1       1.753   4.424  19.940  0.00  0.00    +0.000 OA
ATOM      2  C   UNL     1       2.000   4.852  18.816  0.00  0.00    +0.000 C 
ATOM      3  N   UNL     1       2.413   6.142  18.574  0.00  0.00    +0.000 N 
ATOM      4  H   UNL     1       2.373   6.507  17.628  0.00  0.00    +0.000 HD
ENDROOT
BRANCH   2   5
ATOM      5  C   UNL     1       1.962   3.987  17.581  0.00  0.00    +0.000 C 
BRANCH   5   6
ATOM      6  C   UNL     1       3.059   2.930  17.639  0.00  0.00    +0.000 C 
BRANCH   6   7
ATOM      7  N   UNL     1       4.366   3.527  17.757  0.00  0.00    +0.000 N 
ATOM      8  C   UNL     1       5.137   3.574  18.901  0.00  0.00    +0.000 A 
ATOM      9  O   UNL     1       4.806   3.163  20.007  0.00  0.00    +0.000 OA
ATOM     10  O   UNL     1       6.391   4.145  18.643  0.00  0.00    +0.000 OA
ATOM     11  C   UNL     1       6.333   4.384  17.280  0.00  0.00    +0.000 A 
ATOM     12  C   UNL     1       7.352   4.912  16.516  0.00  0.00    +0.000 A 
ATOM     13  C   UNL     1       7.117   5.061  15.147  0.00  0.00    +0.000 A 
ATOM     14  C   UNL     1       5.884   4.682  14.581  0.00  0.00    +0.000 A 
ATOM     15  C   UNL     1       4.864   4.149  15.375  0.00  0.00    +0.000 A 
ATOM     16  C   UNL     1       5.125   4.016  16.721  0.00  0.00    +0.000 A 
ENDBRANCH   6   7
ENDBRANCH   5   6
ENDBRANCH   2   5
BRANCH   3  17
ATOM     17  C   UNL     1       2.436   7.124  19.644  0.00  0.00    +0.000 C 
BRANCH  17  18
ATOM     18  C   UNL     1       1.966   8.514  19.177  0.00  0.00    +0.000 C 
BRANCH  18  19
ATOM     19  C   UNL     1       1.038   9.243  20.136  0.00  0.00    +0.000 A 
ATOM     20  C   UNL     1       0.410  10.459  19.814  0.00  0.00    +0.000 A 
ATOM     21  C   UNL     1      -0.427  11.100  20.731  0.00  0.00    +0.000 A 
ATOM     22  C   UNL     1      -0.651  10.534  21.980  0.00  0.00    +0.000 A 
ATOM     23 CL   UNL     1      -1.669  11.337  23.110  0.00  0.00    +0.000 Cl
ATOM     24  C   UNL     1      -0.054   9.324  22.319  0.00  0.00    +0.000 A 
ATOM     25  C   UNL     1       0.784   8.682  21.400  0.00  0.00    +0.000 A 
ENDBRANCH  18  19
BRANCH  18  26
ATOM     26  O   UNL     1       1.301   8.347  17.914  0.00  0.00    +0.000 OA
ATOM     27  H   UNL     1       1.429   7.420  17.643  0.00  0.00    +0.000 HD
ENDBRANCH  18  26
ENDBRANCH  17  18
ENDBRANCH   3  17
TORSDOF 7
ENDMDL
MODEL 9
REMARK VINA RESULT:      -6.9      3.969      9.117
REMARK  Name = 
REMARK  7 active torsions:
REMARK  status: ('A' for Active; 'I' for Inactive)
REMARK    1  A    between atoms: C_2  and  C_3
REMARK    2  A    between atoms: C_3  and  C_4
REMARK    3  A    between atoms: C_4  and  N_5
REMARK    4  A    between atoms: N_15  and  C_16
REMARK    5  A    between atoms: C_16  and  C_17
REMARK    6  A    between atoms: C_17  and  O_18
REMARK    7  A    between atoms: C_17  and  C_19
REMARK                            x       y       z     vdW  Elec       q    Type
REMARK                         _______ _______ _______ _____ _____    ______ ____
ROOT
ATOM      1  O   UNL     1       8.547   7.407  18.900  0.00  0.00    +0.000 OA
ATOM      2  C   UNL     1       8.099   8.269  18.150  0.00  0.00    +0.000 C 
ATOM      3  N   UNL     1       7.088   8.031  17.246  0.00  0.00    +0.000 N 
ATOM      4  H   UNL     1       6.923   8.699  16.500  0.00  0.00    +0.000 HD
ENDROOT
BRANCH   2   5
ATOM      5  C   UNL     1       8.546   9.708  18.194  0.00  0.00    +0.000 C 
BRANCH   5   6
ATOM      6  C   UNL     1       9.474   9.941  19.381  0.00  0.00    +0.000 C 
BRANCH   6   7
ATOM      7  N   UNL     1       9.863  11.325  19.489  0.00  0.00    +0.000 N 
ATOM      8  C   UNL     1      10.472  12.077  18.505  0.00  0.00    +0.000 A 
ATOM      9  O   UNL     1      10.824  11.669  17.405  0.00  0.00    +0.000 OA
ATOM     10  O   UNL     1      10.627  13.410  18.910  0.00  0.00    +0.000 OA
ATOM     11  C   UNL     1      10.033  13.411  20.161  0.00  0.00    +0.000 A 
ATOM     12  C   UNL     1       9.889  14.512  20.978  0.00  0.00    +0.000 A 
ATOM     13  C   UNL     1       9.242  14.323  22.201  0.00  0.00    +0.000 A 
ATOM     14  C   UNL     1       8.759  13.053  22.575  0.00  0.00    +0.000 A 
ATOM     15  C   UNL     1       8.917  11.950  21.730  0.00  0.00    +0.000 A 
ATOM     16  C   UNL     1       9.561  12.167  20.532  0.00  0.00    +0.000 A 
ENDBRANCH   6   7
ENDBRANCH   5   6
ENDBRANCH   2   5
BRANCH   3  17
ATOM     17  C   UNL     1       6.593   6.683  17.029  0.00  0.00    +0.000 C 
BRANCH  17  18
ATOM     18  C   UNL     1       5.160   6.668  16.462  0.00  0.00    +0.000 C 
BRANCH  18  19
ATOM     19  C   UNL     1       4.232   5.629  17.071  0.00  0.00    +0.000 A 
ATOM     20  C   UNL     1       3.142   5.967  17.891  0.00  0.00    +0.000 A 
ATOM     21  C   UNL     1       2.320   4.977  18.438  0.00  0.00    +0.000 A 
ATOM     22  C   UNL     1       2.575   3.637  18.170  0.00  0.00    +0.000 A 
ATOM     23 CL   UNL     1       1.570   2.425  18.860  0.00  0.00    +0.000 Cl
ATOM     24  C   UNL     1       3.638   3.276  17.348  0.00  0.00    +0.000 A 
ATOM     25  C   UNL     1       4.460   4.267  16.801  0.00  0.00    +0.000 A 
ENDBRANCH  18  19
BRANCH  18  26
ATOM     26  O   UNL     1       5.254   6.445  15.046  0.00  0.00    +0.000 OA
ATOM     27  H   UNL     1       4.585   5.775  14.816  0.00  0.00    +0.000 HD
ENDBRANCH  18  26
ENDBRANCH  17  18
ENDBRANCH   3  17
TORSDOF 7
ENDMDL
