MODEL 1
REMARK VINA RESULT:      -8.5      0.000      0.000
REMARK  Name = 
REMARK  6 active torsions:
REMARK  status: ('A' for Active; 'I' for Inactive)
REMARK    1  A    between atoms: C_1  and  O_2
REMARK    2  A    between atoms: O_2  and  C_3
REMARK    3  A    between atoms: C_5  and  C_6
REMARK    4  A    between atoms: C_6  and  N_7
REMARK    5  A    between atoms: C_15  and  N_16
REMARK    6  A    between atoms: C_23  and  C_24
REMARK                            x       y       z     vdW  Elec       q    Type
REMARK                         _______ _______ _______ _____ _____    ______ ____
ROOT
ATOM      1  C   UNL     1       4.615   4.708  18.757  0.00  0.00    +0.000 A 
ATOM      2  C   UNL     1       5.616   4.487  17.793  0.00  0.00    +0.000 A 
ATOM      3  C   UNL     1       5.828   5.383  16.740  0.00  0.00    +0.000 A 
ATOM      4  C   UNL     1       5.033   6.521  16.661  0.00  0.00    +0.000 A 
ATOM      5  C   UNL     1       4.080   6.782  17.646  0.00  0.00    +0.000 A 
ATOM      6  C   UNL     1       3.855   5.895  18.708  0.00  0.00    +0.000 A 
ENDROOT
BRANCH   6   7
ATOM      7  N   UNL     1       2.919   6.208  19.741  0.00  0.00    +0.000 N 
ATOM      8  C   UNL     1       2.200   7.400  19.818  0.00  0.00    +0.000 C 
ATOM      9  O   UNL     1       2.117   8.201  18.893  0.00  0.00    +0.000 OA
ATOM     10  N   UNL     1       1.643   7.609  21.068  0.00  0.00    +0.000 N 
ATOM     11  C   UNL     1       0.916   8.774  21.397  0.00  0.00    +0.000 A 
ATOM     12  C   UNL     1       0.686   9.088  22.731  0.00  0.00    +0.000 A 
ATOM     13  N   UNL     1       0.039  10.223  23.149  0.00  0.00    +0.000 NA
ATOM     14  C   UNL     1      -0.387  11.042  22.159  0.00  0.00    +0.000 A 
ATOM     15  C   UNL     1      -0.188  10.730  20.825  0.00  0.00    +0.000 A 
ATOM     16  N   UNL     1       0.449   9.598  20.436  0.00  0.00    +0.000 NA
ATOM     17  H   UNL     1       2.631   5.424  20.311  0.00  0.00    +0.000 HD
ATOM     18  H   UNL     1       1.978   7.029  21.822  0.00  0.00    +0.000 HD
BRANCH  14  19
ATOM     19  C   UNL     1      -1.046  12.265  22.536  0.00  0.00    +0.000 C 
ATOM     20  N   UNL     1      -1.559  13.254  22.880  0.00  0.00    +0.000 NA
ENDBRANCH  14  19
ENDBRANCH   6   7
BRANCH   1  22
ATOM     21  C   UNL     1       4.008   2.489  19.285  0.00  0.00    +0.000 C 
ATOM     22  O   UNL     1       4.353   3.799  19.761  0.00  0.00    +0.000 OA
ENDBRANCH   1  22
BRANCH   3  23
ATOM     23  C   UNL     1       6.958   5.162  15.763  0.00  0.00    +0.000 C 
BRANCH  23  24
ATOM     24  N   UNL     1       6.543   5.085  14.344  0.00  0.00    +0.000 NA
ATOM     25  C   UNL     1       7.724   5.150  13.463  0.00  0.00    +0.000 C 
ATOM     26  C   UNL     1       7.426   4.808  12.001  0.00  0.00    +0.000 C 
ATOM     27  C   UNL     1       6.720   3.465  11.888  0.00  0.00    +0.000 C 
ATOM     28  C   UNL     1       5.446   3.505  12.713  0.00  0.00    +0.000 C 
ATOM     29  C   UNL     1       5.754   3.852  14.168  0.00  0.00    +0.000 C 
ENDBRANCH  23  24
ENDBRANCH   3  23
TORSDOF 5
ENDMDL
MODEL 2
REMARK VINA RESULT:      -7.8      5.552      7.876
REMARK  Name = 
REMARK  6 active torsions:
REMARK  status: ('A' for Active; 'I' for Inactive)
REMARK    1  A    between atoms: C_1  and  O_2
REMARK    2  A    between atoms: O_2  and  C_3
REMARK    3  A    between atoms: C_5  and  C_6
REMARK    4  A    between atoms: C_6  and  N_7
REMARK    5  A    between atoms: C_15  and  N_16
REMARK    6  A    between atoms: C_23  and  C_24
REMARK                            x       y       z     vdW  Elec       q    Type
REMARK                         _______ _______ _______ _____ _____    ______ ____
ROOT
ATOM      1  C   UNL     1       6.315   5.698  16.487  0.00  0.00    +0.000 A 
ATOM      2  C   UNL     1       5.565   4.583  16.902  0.00  0.00    +0.000 A 
ATOM      3  C   UNL     1       5.467   4.228  18.252  0.00  0.00    +0.000 A 
ATOM      4  C   UNL     1       6.124   5.010  19.197  0.00  0.00    +0.000 A 
ATOM      5  C   UNL     1       6.820   6.152  18.803  0.00  0.00    +0.000 A 
ATOM      6  C   UNL     1       6.927   6.523  17.454  0.00  0.00    +0.000 A 
ENDROOT
BRANCH   6   7
ATOM      7  N   UNL     1       7.590   7.729  17.074  0.00  0.00    +0.000 N 
ATOM      8  C   UNL     1       8.255   8.575  17.961  0.00  0.00    +0.000 C 
ATOM      9  O   UNL     1       8.542   8.260  19.110  0.00  0.00    +0.000 OA
ATOM     10  N   UNL     1       8.501   9.827  17.422  0.00  0.00    +0.000 N 
ATOM     11  C   UNL     1       9.115  10.868  18.153  0.00  0.00    +0.000 A 
ATOM     12  C   UNL     1       9.022  12.177  17.697  0.00  0.00    +0.000 A 
ATOM     13  N   UNL     1       9.538  13.258  18.366  0.00  0.00    +0.000 NA
ATOM     14  C   UNL     1      10.173  12.969  19.526  0.00  0.00    +0.000 A 
ATOM     15  C   UNL     1      10.297  11.668  19.980  0.00  0.00    +0.000 A 
ATOM     16  N   UNL     1       9.783  10.614  19.297  0.00  0.00    +0.000 NA
ATOM     17  H   UNL     1       7.746   7.838  16.081  0.00  0.00    +0.000 HD
ATOM     18  H   UNL     1       8.006  10.068  16.577  0.00  0.00    +0.000 HD
BRANCH  14  19
ATOM     19  C   UNL     1      10.709  14.066  20.288  0.00  0.00    +0.000 C 
ATOM     20  N   UNL     1      11.176  14.958  20.876  0.00  0.00    +0.000 NA
ENDBRANCH  14  19
ENDBRANCH   6   7
BRANCH   1  22
ATOM     21  C   UNL     1       6.936   4.928  14.344  0.00  0.00    +0.000 C 
ATOM     22  O   UNL     1       6.473   6.019  15.155  0.00  0.00    +0.000 OA
ENDBRANCH   1  22
BRANCH   3  23
ATOM     23  C   UNL     1       4.594   3.073  18.679  0.00  0.00    +0.000 C 
BRANCH  23  24
ATOM     24  N   UNL     1       3.143   3.366  18.691  0.00  0.00    +0.000 NA
ATOM     25  C   UNL     1       2.369   2.112  18.637  0.00  0.00    +0.000 C 
ATOM     26  C   UNL     1       0.875   2.292  18.917  0.00  0.00    +0.000 C 
ATOM     27  C   UNL     1       0.651   3.029  20.228  0.00  0.00    +0.000 C 
ATOM     28  C   UNL     1       1.366   4.368  20.172  0.00  0.00    +0.000 C 
ATOM     29  C   UNL     1       2.854   4.176  19.887  0.00  0.00    +0.000 C 
ENDBRANCH  23  24
ENDBRANCH   3  23
TORSDOF 5
ENDMDL
MODEL 3
REMARK VINA RESULT:      -7.6      5.546      7.940
REMARK  Name = 
REMARK  6 active torsions:
REMARK  status: ('A' for Active; 'I' for Inactive)
REMARK    1  A    between atoms: C_1  and  O_2
REMARK    2  A    between atoms: O_2  and  C_3
REMARK    3  A    between atoms: C_5  and  C_6
REMARK    4  A    between atoms: C_6  and  N_7
REMARK    5  A    between atoms: C_15  and  N_16
REMARK    6  A    between atoms: C_23  and  C_24
REMARK                            x       y       z     vdW  Elec       q    Type
REMARK                         _______ _______ _______ _____ _____    ______ ____
ROOT
ATOM      1  C   UNL     1       6.247   5.733  16.545  0.00  0.00    +0.000 A 
ATOM      2  C   UNL     1       5.530   4.606  16.983  0.00  0.00    +0.000 A 
ATOM      3  C   UNL     1       5.456   4.265  18.337  0.00  0.00    +0.000 A 
ATOM      4  C   UNL     1       6.103   5.075  19.265  0.00  0.00    +0.000 A 
ATOM      5  C   UNL     1       6.766   6.229  18.849  0.00  0.00    +0.000 A 
ATOM      6  C   UNL     1       6.848   6.586  17.496  0.00  0.00    +0.000 A 
ENDROOT
BRANCH   6   7
ATOM      7  N   UNL     1       7.476   7.804  17.093  0.00  0.00    +0.000 N 
ATOM      8  C   UNL     1       8.206   8.632  17.945  0.00  0.00    +0.000 C 
ATOM      9  O   UNL     1       8.582   8.293  19.061  0.00  0.00    +0.000 OA
ATOM     10  N   UNL     1       8.405   9.897  17.418  0.00  0.00    +0.000 N 
ATOM     11  C   UNL     1       9.072  10.924  18.123  0.00  0.00    +0.000 A 
ATOM     12  C   UNL     1       8.940  12.243  17.707  0.00  0.00    +0.000 A 
ATOM     13  N   UNL     1       9.503  13.310  18.359  0.00  0.00    +0.000 NA
ATOM     14  C   UNL     1      10.227  12.998  19.459  0.00  0.00    +0.000 A 
ATOM     15  C   UNL     1      10.389  11.687  19.871  0.00  0.00    +0.000 A 
ATOM     16  N   UNL     1       9.827  10.647  19.206  0.00  0.00    +0.000 NA
ATOM     17  H   UNL     1       7.555   7.936  16.094  0.00  0.00    +0.000 HD
ATOM     18  H   UNL     1       7.846  10.155  16.620  0.00  0.00    +0.000 HD
BRANCH  14  19
ATOM     19  C   UNL     1      10.818  14.080  20.202  0.00  0.00    +0.000 C 
ATOM     20  N   UNL     1      11.276  14.941  20.840  0.00  0.00    +0.000 NA
ENDBRANCH  14  19
ENDBRANCH   6   7
BRANCH   1  22
ATOM     21  C   UNL     1       6.709   4.915  14.380  0.00  0.00    +0.000 C 
ATOM     22  O   UNL     1       6.382   6.042  15.207  0.00  0.00    +0.000 OA
ENDBRANCH   1  22
BRANCH   3  23
ATOM     23  C   UNL     1       4.617   3.094  18.788  0.00  0.00    +0.000 C 
BRANCH  23  24
ATOM     24  N   UNL     1       3.632   3.410  19.848  0.00  0.00    +0.000 NA
ATOM     25  C   UNL     1       3.044   4.742  19.618  0.00  0.00    +0.000 C 
ATOM     26  C   UNL     1       1.829   5.044  20.498  0.00  0.00    +0.000 C 
ATOM     27  C   UNL     1       0.784   3.945  20.381  0.00  0.00    +0.000 C 
ATOM     28  C   UNL     1       1.418   2.617  20.754  0.00  0.00    +0.000 C 
ATOM     29  C   UNL     1       2.631   2.329  19.873  0.00  0.00    +0.000 C 
ENDBRANCH  23  24
ENDBRANCH   3  23
TORSDOF 5
ENDMDL
MODEL 4
REMARK VINA RESULT:      -7.6      5.027      7.583
REMARK  Name = 
REMARK  6 active torsions:
REMARK  status: ('A' for Active; 'I' for Inactive)
REMARK    1  A    between atoms: C_1  and  O_2
REMARK    2  A    between atoms: O_2  and  C_3
REMARK    3  A    between atoms: C_5  and  C_6
REMARK    4  A    between atoms: C_6  and  N_7
REMARK    5  A    between atoms: C_15  and  N_16
REMARK    6  A    between atoms: C_23  and  C_24
REMARK                            x       y       z     vdW  Elec       q    Type
REMARK                         _______ _______ _______ _____ _____    ______ ____
ROOT
ATOM      1  C   UNL     1       6.264   4.726  16.385  0.00  0.00    +0.000 A 
ATOM      2  C   UNL     1       5.443   3.602  16.584  0.00  0.00    +0.000 A 
ATOM      3  C   UNL     1       4.313   3.656  17.407  0.00  0.00    +0.000 A 
ATOM      4  C   UNL     1       3.998   4.861  18.029  0.00  0.00    +0.000 A 
ATOM      5  C   UNL     1       4.769   5.998  17.790  0.00  0.00    +0.000 A 
ATOM      6  C   UNL     1       5.905   5.960  16.967  0.00  0.00    +0.000 A 
ENDROOT
BRANCH   6   7
ATOM      7  N   UNL     1       6.647   7.147  16.684  0.00  0.00    +0.000 N 
ATOM      8  C   UNL     1       7.395   7.851  17.626  0.00  0.00    +0.000 C 
ATOM      9  O   UNL     1       7.687   7.405  18.730  0.00  0.00    +0.000 OA
ATOM     10  N   UNL     1       7.720   9.130  17.203  0.00  0.00    +0.000 N 
ATOM     11  C   UNL     1       8.429  10.046  18.011  0.00  0.00    +0.000 A 
ATOM     12  C   UNL     1       8.423  11.397  17.687  0.00  0.00    +0.000 A 
ATOM     13  N   UNL     1       9.034  12.367  18.440  0.00  0.00    +0.000 NA
ATOM     14  C   UNL     1       9.675  11.920  19.545  0.00  0.00    +0.000 A 
ATOM     15  C   UNL     1       9.713  10.575  19.867  0.00  0.00    +0.000 A 
ATOM     16  N   UNL     1       9.105   9.633  19.102  0.00  0.00    +0.000 NA
ATOM     17  H   UNL     1       6.785   7.342  15.702  0.00  0.00    +0.000 HD
ATOM     18  H   UNL     1       7.224   9.487  16.402  0.00  0.00    +0.000 HD
BRANCH  14  19
ATOM     19  C   UNL     1      10.312  12.895  20.392  0.00  0.00    +0.000 C 
ATOM     20  N   UNL     1      10.864  13.661  21.076  0.00  0.00    +0.000 NA
ENDBRANCH  14  19
ENDBRANCH   6   7
BRANCH   1  22
ATOM     21  C   UNL     1       7.187   4.715  14.213  0.00  0.00    +0.000 C 
ATOM     22  O   UNL     1       7.417   4.667  15.630  0.00  0.00    +0.000 OA
ENDBRANCH   1  22
BRANCH   3  23
ATOM     23  C   UNL     1       3.406   2.458  17.543  0.00  0.00    +0.000 C 
BRANCH  23  24
ATOM     24  N   UNL     1       2.665   2.384  18.823  0.00  0.00    +0.000 NA
ATOM     25  C   UNL     1       3.593   2.539  19.959  0.00  0.00    +0.000 C 
ATOM     26  C   UNL     1       2.895   2.748  21.305  0.00  0.00    +0.000 C 
ATOM     27  C   UNL     1       1.904   3.900  21.233  0.00  0.00    +0.000 C 
ATOM     28  C   UNL     1       0.899   3.620  20.130  0.00  0.00    +0.000 C 
ATOM     29  C   UNL     1       1.606   3.408  18.793  0.00  0.00    +0.000 C 
ENDBRANCH  23  24
ENDBRANCH   3  23
TORSDOF 5
ENDMDL
MODEL 5
REMARK VINA RESULT:      -7.4      0.379      1.014
REMARK  Name = 
REMARK  6 active torsions:
REMARK  status: ('A' for Active; 'I' for Inactive)
REMARK    1  A    between atoms: C_1  and  O_2
REMARK    2  A    between atoms: O_2  and  C_3
REMARK    3  A    between atoms: C_5  and  C_6
REMARK    4  A    between atoms: C_6  and  N_7
REMARK    5  A    between atoms: C_15  and  N_16
REMARK    6  A    between atoms: C_23  and  C_24
REMARK                            x       y       z     vdW  Elec       q    Type
REMARK                         _______ _______ _______ _____ _____    ______ ____
ROOT
ATOM      1  C   UNL     1       4.713   4.779  18.547  0.00  0.00    +0.000 A 
ATOM      2  C   UNL     1       5.697   4.598  17.558  0.00  0.00    +0.000 A 
ATOM      3  C   UNL     1       5.867   5.518  16.517  0.00  0.00    +0.000 A 
ATOM      4  C   UNL     1       5.046   6.641  16.478  0.00  0.00    +0.000 A 
ATOM      5  C   UNL     1       4.109   6.862  17.487  0.00  0.00    +0.000 A 
ATOM      6  C   UNL     1       3.927   5.951  18.537  0.00  0.00    +0.000 A 
ENDROOT
BRANCH   6   7
ATOM      7  N   UNL     1       3.007   6.224  19.596  0.00  0.00    +0.000 N 
ATOM      8  C   UNL     1       2.268   7.400  19.713  0.00  0.00    +0.000 C 
ATOM      9  O   UNL     1       2.150   8.218  18.808  0.00  0.00    +0.000 OA
ATOM     10  N   UNL     1       1.733   7.571  20.979  0.00  0.00    +0.000 N 
ATOM     11  C   UNL     1       0.992   8.715  21.348  0.00  0.00    +0.000 A 
ATOM     12  C   UNL     1       0.784   8.997  22.693  0.00  0.00    +0.000 A 
ATOM     13  N   UNL     1       0.125  10.110  23.148  0.00  0.00    +0.000 NA
ATOM     14  C   UNL     1      -0.337  10.942  22.185  0.00  0.00    +0.000 A 
ATOM     15  C   UNL     1      -0.161  10.662  20.841  0.00  0.00    +0.000 A 
ATOM     16  N   UNL     1       0.490   9.550  20.415  0.00  0.00    +0.000 NA
ATOM     17  H   UNL     1       2.746   5.422  20.154  0.00  0.00    +0.000 HD
ATOM     18  H   UNL     1       2.095   6.983  21.713  0.00  0.00    +0.000 HD
BRANCH  14  19
ATOM     19  C   UNL     1      -1.011  12.143  22.602  0.00  0.00    +0.000 C 
ATOM     20  N   UNL     1      -1.524  13.124  22.967  0.00  0.00    +0.000 NA
ENDBRANCH  14  19
ENDBRANCH   6   7
BRANCH   1  22
ATOM     21  C   UNL     1       3.781   2.682  19.094  0.00  0.00    +0.000 C 
ATOM     22  O   UNL     1       4.492   3.847  19.539  0.00  0.00    +0.000 OA
ENDBRANCH   1  22
BRANCH   3  23
ATOM     23  C   UNL     1       6.979   5.340  15.513  0.00  0.00    +0.000 C 
BRANCH  23  24
ATOM     24  N   UNL     1       6.724   4.308  14.483  0.00  0.00    +0.000 NA
ATOM     25  C   UNL     1       5.274   4.161  14.257  0.00  0.00    +0.000 C 
ATOM     26  C   UNL     1       4.921   3.320  13.028  0.00  0.00    +0.000 C 
ATOM     27  C   UNL     1       5.629   3.842  11.787  0.00  0.00    +0.000 C 
ATOM     28  C   UNL     1       7.126   3.848  12.037  0.00  0.00    +0.000 C 
ATOM     29  C   UNL     1       7.467   4.686  13.268  0.00  0.00    +0.000 C 
ENDBRANCH  23  24
ENDBRANCH   3  23
TORSDOF 5
ENDMDL
MODEL 6
REMARK VINA RESULT:      -7.4      5.910      8.101
REMARK  Name = 
REMARK  6 active torsions:
REMARK  status: ('A' for Active; 'I' for Inactive)
REMARK    1  A    between atoms: C_1  and  O_2
REMARK    2  A    between atoms: O_2  and  C_3
REMARK    3  A    between atoms: C_5  and  C_6
REMARK    4  A    between atoms: C_6  and  N_7
REMARK    5  A    between atoms: C_15  and  N_16
REMARK    6  A    between atoms: C_23  and  C_24
REMARK                            x       y       z     vdW  Elec       q    Type
REMARK                         _______ _______ _______ _____ _____    ______ ____
ROOT
ATOM      1  C   UNL     1       5.928   6.718  17.272  0.00  0.00    +0.000 A 
ATOM      2  C   UNL     1       5.191   5.657  17.829  0.00  0.00    +0.000 A 
ATOM      3  C   UNL     1       5.699   4.884  18.879  0.00  0.00    +0.000 A 
ATOM      4  C   UNL     1       6.958   5.191  19.384  0.00  0.00    +0.000 A 
ATOM      5  C   UNL     1       7.671   6.279  18.883  0.00  0.00    +0.000 A 
ATOM      6  C   UNL     1       7.177   7.064  17.831  0.00  0.00    +0.000 A 
ENDROOT
BRANCH   6   7
ATOM      7  N   UNL     1       7.891   8.213  17.372  0.00  0.00    +0.000 N 
ATOM      8  C   UNL     1       8.552   9.114  18.205  0.00  0.00    +0.000 C 
ATOM      9  O   UNL     1       8.789   8.894  19.387  0.00  0.00    +0.000 OA
ATOM     10  N   UNL     1       8.856  10.306  17.568  0.00  0.00    +0.000 N 
ATOM     11  C   UNL     1       9.478  11.389  18.228  0.00  0.00    +0.000 A 
ATOM     12  C   UNL     1       9.443  12.655  17.656  0.00  0.00    +0.000 A 
ATOM     13  N   UNL     1       9.969  13.775  18.247  0.00  0.00    +0.000 NA
ATOM     14  C   UNL     1      10.554  13.572  19.450  0.00  0.00    +0.000 A 
ATOM     15  C   UNL     1      10.620  12.313  20.020  0.00  0.00    +0.000 A 
ATOM     16  N   UNL     1      10.097  11.218  19.414  0.00  0.00    +0.000 NA
ATOM     17  H   UNL     1       8.085   8.228  16.379  0.00  0.00    +0.000 HD
ATOM     18  H   UNL     1       8.399  10.485  16.688  0.00  0.00    +0.000 HD
BRANCH  14  19
ATOM     19  C   UNL     1      11.099  14.717  20.133  0.00  0.00    +0.000 C 
ATOM     20  N   UNL     1      11.529  15.668  20.652  0.00  0.00    +0.000 NA
ENDBRANCH  14  19
ENDBRANCH   6   7
BRANCH   1  22
ATOM     21  C   UNL     1       5.111   6.638  15.060  0.00  0.00    +0.000 C 
ATOM     22  O   UNL     1       5.466   7.444  16.194  0.00  0.00    +0.000 OA
ENDBRANCH   1  22
BRANCH   3  23
ATOM     23  C   UNL     1       4.858   3.800  19.508  0.00  0.00    +0.000 C 
BRANCH  23  24
ATOM     24  N   UNL     1       3.405   3.915  19.249  0.00  0.00    +0.000 NA
ATOM     25  C   UNL     1       2.904   2.689  18.601  0.00  0.00    +0.000 C 
ATOM     26  C   UNL     1       1.378   2.599  18.539  0.00  0.00    +0.000 C 
ATOM     27  C   UNL     1       0.763   2.791  19.917  0.00  0.00    +0.000 C 
ATOM     28  C   UNL     1       1.214   4.129  20.477  0.00  0.00    +0.000 C 
ATOM     29  C   UNL     1       2.738   4.209  20.530  0.00  0.00    +0.000 C 
ENDBRANCH  23  24
ENDBRANCH   3  23
TORSDOF 5
ENDMDL
MODEL 7
REMARK VINA RESULT:      -7.2      6.870     10.019
REMARK  Name = 
REMARK  6 active torsions:
REMARK  status: ('A' for Active; 'I' for Inactive)
REMARK    1  A    between atoms: C_1  and  O_2
REMARK    2  A    between atoms: O_2  and  C_3
REMARK    3  A    between atoms: C_5  and  C_6
REMARK    4  A    between atoms: C_6  and  N_7
REMARK    5  A    between atoms: C_15  and  N_16
REMARK    6  A    between atoms: C_23  and  C_24
REMARK                            x       y       z     vdW  Elec       q    Type
REMARK                         _______ _______ _______ _____ _____    ______ ____
ROOT
ATOM      1  C   UNL     1       9.279  11.866  20.167  0.00  0.00    +0.000 A 
ATOM      2  C   UNL     1       9.203  13.266  20.061  0.00  0.00    +0.000 A 
ATOM      3  C   UNL     1       9.474  13.926  18.857  0.00  0.00    +0.000 A 
ATOM      4  C   UNL     1       9.815  13.166  17.742  0.00  0.00    +0.000 A 
ATOM      5  C   UNL     1       9.834  11.774  17.819  0.00  0.00    +0.000 A 
ATOM      6  C   UNL     1       9.564  11.097  19.018  0.00  0.00    +0.000 A 
ENDROOT
BRANCH   6   7
ATOM      7  N   UNL     1       9.526   9.670  19.063  0.00  0.00    +0.000 N 
ATOM      8  C   UNL     1       8.539   8.889  18.464  0.00  0.00    +0.000 C 
ATOM      9  O   UNL     1       7.738   9.322  17.645  0.00  0.00    +0.000 OA
ATOM     10  N   UNL     1       8.526   7.588  18.941  0.00  0.00    +0.000 N 
ATOM     11  C   UNL     1       7.578   6.629  18.519  0.00  0.00    +0.000 A 
ATOM     12  C   UNL     1       7.390   5.473  19.266  0.00  0.00    +0.000 A 
ATOM     13  N   UNL     1       6.457   4.513  18.967  0.00  0.00    +0.000 NA
ATOM     14  C   UNL     1       5.714   4.754  17.862  0.00  0.00    +0.000 A 
ATOM     15  C   UNL     1       5.908   5.888  17.092  0.00  0.00    +0.000 A 
ATOM     16  N   UNL     1       6.842   6.822  17.405  0.00  0.00    +0.000 NA
ATOM     17  H   UNL     1      10.382   9.228  19.372  0.00  0.00    +0.000 HD
ATOM     18  H   UNL     1       9.046   7.403  19.784  0.00  0.00    +0.000 HD
BRANCH  14  19
ATOM     19  C   UNL     1       4.698   3.796  17.513  0.00  0.00    +0.000 C 
ATOM     20  N   UNL     1       3.876   3.006  17.272  0.00  0.00    +0.000 NA
ENDBRANCH  14  19
ENDBRANCH   6   7
BRANCH   1  22
ATOM     21  C   UNL     1       8.254  11.931  22.291  0.00  0.00    +0.000 C 
ATOM     22  O   UNL     1       9.079  11.210  21.363  0.00  0.00    +0.000 OA
ENDBRANCH   1  22
BRANCH   3  23
ATOM     23  C   UNL     1       9.310  15.422  18.750  0.00  0.00    +0.000 C 
BRANCH  23  24
ATOM     24  N   UNL     1       7.955  15.870  18.355  0.00  0.00    +0.000 NA
ATOM     25  C   UNL     1       7.106  14.707  18.036  0.00  0.00    +0.000 C 
ATOM     26  C   UNL     1       5.622  15.047  17.881  0.00  0.00    +0.000 C 
ATOM     27  C   UNL     1       5.104  15.798  19.098  0.00  0.00    +0.000 C 
ATOM     28  C   UNL     1       5.938  17.051  19.298  0.00  0.00    +0.000 C 
ATOM     29  C   UNL     1       7.416  16.701  19.446  0.00  0.00    +0.000 C 
ENDBRANCH  23  24
ENDBRANCH   3  23
TORSDOF 5
ENDMDL
MODEL 8
REMARK VINA RESULT:      -7.2      2.866     10.598
REMARK  Name = 
REMARK  6 active torsions:
REMARK  status: ('A' for Active; 'I' for Inactive)
REMARK    1  A    between atoms: C_1  and  O_2
REMARK    2  A    between atoms: O_2  and  C_3
REMARK    3  A    between atoms: C_5  and  C_6
REMARK    4  A    between atoms: C_6  and  N_7
REMARK    5  A    between atoms: C_15  and  N_16
REMARK    6  A    between atoms: C_23  and  C_24
REMARK                            x       y       z     vdW  Elec       q    Type
REMARK                         _______ _______ _______ _____ _____    ______ ____
ROOT
ATOM      1  C   UNL     1       0.290  10.336  21.018  0.00  0.00    +0.000 A 
ATOM      2  C   UNL     1      -0.647  11.385  21.013  0.00  0.00    +0.000 A 
ATOM      3  C   UNL     1      -1.293  11.785  19.838  0.00  0.00    +0.000 A 
ATOM      4  C   UNL     1      -1.000  11.115  18.655  0.00  0.00    +0.000 A 
ATOM      5  C   UNL     1      -0.119  10.034  18.658  0.00  0.00    +0.000 A 
ATOM      6  C   UNL     1       0.535   9.619  19.827  0.00  0.00    +0.000 A 
ENDROOT
BRANCH   6   7
ATOM      7  N   UNL     1       1.386   8.472  19.826  0.00  0.00    +0.000 N 
ATOM      8  C   UNL     1       2.270   8.148  18.797  0.00  0.00    +0.000 C 
ATOM      9  O   UNL     1       2.582   8.927  17.903  0.00  0.00    +0.000 OA
ATOM     10  N   UNL     1       2.708   6.836  18.863  0.00  0.00    +0.000 N 
ATOM     11  C   UNL     1       3.567   6.268  17.897  0.00  0.00    +0.000 A 
ATOM     12  C   UNL     1       3.692   4.886  17.814  0.00  0.00    +0.000 A 
ATOM     13  N   UNL     1       4.457   4.242  16.876  0.00  0.00    +0.000 NA
ATOM     14  C   UNL     1       5.115   5.051  16.014  0.00  0.00    +0.000 A 
ATOM     15  C   UNL     1       5.022   6.430  16.100  0.00  0.00    +0.000 A 
ATOM     16  N   UNL     1       4.263   7.044  17.041  0.00  0.00    +0.000 NA
ATOM     17  H   UNL     1       1.481   8.007  20.719  0.00  0.00    +0.000 HD
ATOM     18  H   UNL     1       2.203   6.214  19.474  0.00  0.00    +0.000 HD
BRANCH  14  19
ATOM     19  C   UNL     1       5.912   4.432  14.987  0.00  0.00    +0.000 C 
ATOM     20  N   UNL     1       6.554   3.968  14.132  0.00  0.00    +0.000 NA
ENDBRANCH  14  19
ENDBRANCH   6   7
BRANCH   1  22
ATOM     21  C   UNL     1       0.156   9.392  23.176  0.00  0.00    +0.000 C 
ATOM     22  O   UNL     1       0.980   9.976  22.156  0.00  0.00    +0.000 OA
ENDBRANCH   1  22
BRANCH   3  23
ATOM     23  C   UNL     1      -2.350  12.862  19.874  0.00  0.00    +0.000 C 
BRANCH  23  24
ATOM     24  N   UNL     1      -3.691  12.399  20.299  0.00  0.00    +0.000 NA
ATOM     25  C   UNL     1      -4.314  13.393  21.192  0.00  0.00    +0.000 C 
ATOM     26  C   UNL     1      -5.798  13.136  21.465  0.00  0.00    +0.000 C 
ATOM     27  C   UNL     1      -6.575  12.990  20.166  0.00  0.00    +0.000 C 
ATOM     28  C   UNL     1      -5.964  11.867  19.348  0.00  0.00    +0.000 C 
ATOM     29  C   UNL     1      -4.483  12.131  19.086  0.00  0.00    +0.000 C 
ENDBRANCH  23  24
ENDBRANCH   3  23
TORSDOF 5
ENDMDL
MODEL 9
REMARK VINA RESULT:      -7.2      4.162      6.116
REMARK  Name = 
REMARK  6 active torsions:
REMARK  status: ('A' for Active; 'I' for Inactive)
REMARK    1  A    between atoms: C_1  and  O_2
REMARK    2  A    between atoms: O_2  and  C_3
REMARK    3  A    between atoms: C_5  and  C_6
REMARK    4  A    between atoms: C_6  and  N_7
REMARK    5  A    between atoms: C_15  and  N_16
REMARK    6  A    between atoms: C_23  and  C_24
REMARK                            x       y       z     vdW  Elec       q    Type
REMARK                         _______ _______ _______ _____ _____    ______ ____
ROOT
ATOM      1  C   UNL     1       1.423   8.008  19.963  0.00  0.00    +0.000 A 
ATOM      2  C   UNL     1       2.240   6.897  20.241  0.00  0.00    +0.000 A 
ATOM      3  C   UNL     1       3.049   6.319  19.257  0.00  0.00    +0.000 A 
ATOM      4  C   UNL     1       3.045   6.872  17.980  0.00  0.00    +0.000 A 
ATOM      5  C   UNL     1       2.287   8.011  17.710  0.00  0.00    +0.000 A 
ATOM      6  C   UNL     1       1.472   8.603  18.685  0.00  0.00    +0.000 A 
ENDROOT
BRANCH   6   7
ATOM      7  N   UNL     1       0.750   9.805  18.408  0.00  0.00    +0.000 N 
ATOM      8  C   UNL     1       1.307  11.083  18.445  0.00  0.00    +0.000 C 
ATOM      9  O   UNL     1       2.513  11.295  18.486  0.00  0.00    +0.000 OA
ATOM     10  N   UNL     1       0.347  12.081  18.491  0.00  0.00    +0.000 N 
ATOM     11  C   UNL     1       0.675  13.452  18.587  0.00  0.00    +0.000 A 
ATOM     12  C   UNL     1      -0.297  14.366  18.976  0.00  0.00    +0.000 A 
ATOM     13  N   UNL     1      -0.061  15.706  19.150  0.00  0.00    +0.000 NA
ATOM     14  C   UNL     1       1.208  16.105  18.902  0.00  0.00    +0.000 A 
ATOM     15  C   UNL     1       2.181  15.211  18.489  0.00  0.00    +0.000 A 
ATOM     16  N   UNL     1       1.921  13.890  18.318  0.00  0.00    +0.000 NA
ATOM     17  H   UNL     1      -0.149   9.673  17.965  0.00  0.00    +0.000 HD
ATOM     18  H   UNL     1      -0.596  11.801  18.710  0.00  0.00    +0.000 HD
BRANCH  14  19
ATOM     19  C   UNL     1       1.525  17.496  19.096  0.00  0.00    +0.000 C 
ATOM     20  N   UNL     1       1.738  18.630  19.254  0.00  0.00    +0.000 NA
ENDBRANCH  14  19
ENDBRANCH   6   7
BRANCH   1  22
ATOM     21  C   UNL     1       1.245   9.229  21.975  0.00  0.00    +0.000 C 
ATOM     22  O   UNL     1       0.572   8.545  20.907  0.00  0.00    +0.000 OA
ENDBRANCH   1  22
BRANCH   3  23
ATOM     23  C   UNL     1       3.973   5.176  19.599  0.00  0.00    +0.000 C 
BRANCH  23  24
ATOM     24  N   UNL     1       3.307   3.861  19.737  0.00  0.00    +0.000 NA
ATOM     25  C   UNL     1       2.331   3.897  20.842  0.00  0.00    +0.000 C 
ATOM     26  C   UNL     1       1.403   2.681  20.890  0.00  0.00    +0.000 C 
ATOM     27  C   UNL     1       0.719   2.463  19.549  0.00  0.00    +0.000 C 
ATOM     28  C   UNL     1       1.778   2.305  18.473  0.00  0.00    +0.000 C 
ATOM     29  C   UNL     1       2.700   3.522  18.438  0.00  0.00    +0.000 C 
ENDBRANCH  23  24
ENDBRANCH   3  23
TORSDOF 5
ENDMDL
