MODEL 1
REMARK VINA RESULT:      -8.2      0.000      0.000
REMARK  Name = 
REMARK  7 active torsions:
REMARK  status: ('A' for Active; 'I' for Inactive)
REMARK    1  A    between atoms: C_1  and  N_2
REMARK    2  A    between atoms: C_5  and  N_6
REMARK    3  A    between atoms: N_6  and  C_7
REMARK    4  A    between atoms: C_7  and  C_8
REMARK    5  A    between atoms: C_14  and  C_15
REMARK    6  A    between atoms: N_17  and  C_18
REMARK    7  A    between atoms: C_21  and  C_22
REMARK                            x       y       z     vdW  Elec       q    Type
REMARK                         _______ _______ _______ _____ _____    ______ ____
ROOT
ATOM      1  C   UNL     1       7.188   6.622  17.241  0.00  0.00    +0.000 C 
ATOM      2  N   UNL     1       6.373   5.504  16.826  0.00  0.00    +0.000 N 
ATOM      3  C   UNL     1       6.713   4.592  15.869  0.00  0.00    +0.000 A 
ATOM      4  N   UNL     1       5.814   3.639  15.775  0.00  0.00    +0.000 NA
ATOM      5  C   UNL     1       4.846   3.974  16.670  0.00  0.00    +0.000 A 
ATOM      6  C   UNL     1       5.169   5.115  17.377  0.00  0.00    +0.000 A 
ENDROOT
BRANCH   6   7
ATOM      7  C   UNL     1       4.488   5.784  18.460  0.00  0.00    +0.000 C 
ATOM      8  O   UNL     1       4.815   5.615  19.628  0.00  0.00    +0.000 OA
ATOM      9  N   UNL     1       3.400   6.541  18.045  0.00  0.00    +0.000 N 
ATOM     10  H   UNL     1       3.113   6.397  17.082  0.00  0.00    +0.000 HD
BRANCH   9  11
ATOM     11  C   UNL     1       2.573   7.333  18.866  0.00  0.00    +0.000 A 
ATOM     12  C   UNL     1       2.132   6.914  20.120  0.00  0.00    +0.000 A 
ATOM     13  C   UNL     1       1.287   7.720  20.883  0.00  0.00    +0.000 A 
ATOM     14  C   UNL     1       0.857   8.969  20.413  0.00  0.00    +0.000 A 
ATOM     15  C   UNL     1       1.328   9.403  19.169  0.00  0.00    +0.000 A 
ATOM     16 CL   UNL     1       0.862  10.927  18.500  0.00  0.00    +0.000 Cl
ATOM     17  C   UNL     1       2.191   8.599  18.408  0.00  0.00    +0.000 A 
BRANCH  14  18
ATOM     18  C   UNL     1      -0.094   9.790  21.242  0.00  0.00    +0.000 C 
ATOM     19  F   UNL     1      -1.148  10.272  20.521  0.00  0.00    +0.000 F 
ATOM     20  F   UNL     1      -0.651   9.090  22.268  0.00  0.00    +0.000 F 
ATOM     21  F   UNL     1       0.492  10.888  21.795  0.00  0.00    +0.000 F 
ENDBRANCH  14  18
ENDBRANCH   9  11
ENDBRANCH   6   7
BRANCH   5  22
ATOM     22  N   UNL     1       3.726   3.248  16.817  0.00  0.00    +0.000 N 
ATOM     23  H   UNL     1       2.953   3.322  16.163  0.00  0.00    +0.000 HD
BRANCH  22  24
ATOM     24  C   UNL     1       3.612   2.204  17.813  0.00  0.00    +0.000 C 
BRANCH  24  25
ATOM     25  C   UNL     1       2.820   2.654  19.012  0.00  0.00    +0.000 A 
ATOM     26  C   UNL     1       1.528   3.163  18.863  0.00  0.00    +0.000 A 
ATOM     27  C   UNL     1       0.803   3.487  19.999  0.00  0.00    +0.000 A 
ATOM     28  N   UNL     1       1.273   3.347  21.257  0.00  0.00    +0.000 NA
ATOM     29  C   UNL     1       2.525   2.861  21.383  0.00  0.00    +0.000 A 
ATOM     30  C   UNL     1       3.327   2.507  20.307  0.00  0.00    +0.000 A 
ENDBRANCH  24  25
ENDBRANCH  22  24
ENDBRANCH   5  22
TORSDOF 6
ENDMDL
MODEL 2
REMARK VINA RESULT:      -8.2      0.098      1.135
REMARK  Name = 
REMARK  7 active torsions:
REMARK  status: ('A' for Active; 'I' for Inactive)
REMARK    1  A    between atoms: C_1  and  N_2
REMARK    2  A    between atoms: C_5  and  N_6
REMARK    3  A    between atoms: N_6  and  C_7
REMARK    4  A    between atoms: C_7  and  C_8
REMARK    5  A    between atoms: C_14  and  C_15
REMARK    6  A    between atoms: N_17  and  C_18
REMARK    7  A    between atoms: C_21  and  C_22
REMARK                            x       y       z     vdW  Elec       q    Type
REMARK                         _______ _______ _______ _____ _____    ______ ____
ROOT
ATOM      1  C   UNL     1       7.250   6.536  17.365  0.00  0.00    +0.000 C 
ATOM      2  N   UNL     1       6.418   5.440  16.926  0.00  0.00    +0.000 N 
ATOM      3  C   UNL     1       6.755   4.530  15.967  0.00  0.00    +0.000 A 
ATOM      4  N   UNL     1       5.837   3.597  15.849  0.00  0.00    +0.000 NA
ATOM      5  C   UNL     1       4.862   3.945  16.732  0.00  0.00    +0.000 A 
ATOM      6  C   UNL     1       5.197   5.072  17.455  0.00  0.00    +0.000 A 
ENDROOT
BRANCH   6   7
ATOM      7  C   UNL     1       4.514   5.746  18.532  0.00  0.00    +0.000 C 
ATOM      8  O   UNL     1       4.851   5.598  19.700  0.00  0.00    +0.000 OA
ATOM      9  N   UNL     1       3.411   6.480  18.114  0.00  0.00    +0.000 N 
ATOM     10  H   UNL     1       3.120   6.318  17.156  0.00  0.00    +0.000 HD
BRANCH   9  11
ATOM     11  C   UNL     1       2.577   7.271  18.931  0.00  0.00    +0.000 A 
ATOM     12  C   UNL     1       2.126   6.849  20.179  0.00  0.00    +0.000 A 
ATOM     13  C   UNL     1       1.275   7.654  20.937  0.00  0.00    +0.000 A 
ATOM     14  C   UNL     1       0.849   8.904  20.466  0.00  0.00    +0.000 A 
ATOM     15  C   UNL     1       1.332   9.341  19.227  0.00  0.00    +0.000 A 
ATOM     16 CL   UNL     1       0.872  10.867  18.558  0.00  0.00    +0.000 Cl
ATOM     17  C   UNL     1       2.201   8.538  18.471  0.00  0.00    +0.000 A 
BRANCH  14  18
ATOM     18  C   UNL     1      -0.108   9.724  21.289  0.00  0.00    +0.000 C 
ATOM     19  F   UNL     1      -0.695   9.008  22.291  0.00  0.00    +0.000 F 
ATOM     20  F   UNL     1       0.487  10.782  21.904  0.00  0.00    +0.000 F 
ATOM     21  F   UNL     1      -1.140  10.230  20.560  0.00  0.00    +0.000 F 
ENDBRANCH  14  18
ENDBRANCH   9  11
ENDBRANCH   6   7
BRANCH   5  22
ATOM     22  N   UNL     1       3.724   3.242  16.854  0.00  0.00    +0.000 N 
ATOM     23  H   UNL     1       2.949   3.366  16.211  0.00  0.00    +0.000 HD
BRANCH  22  24
ATOM     24  C   UNL     1       3.590   2.155  17.801  0.00  0.00    +0.000 C 
BRANCH  24  25
ATOM     25  C   UNL     1       2.775   2.553  19.003  0.00  0.00    +0.000 A 
ATOM     26  C   UNL     1       3.333   2.529  20.283  0.00  0.00    +0.000 A 
ATOM     27  C   UNL     1       2.574   2.982  21.351  0.00  0.00    +0.000 A 
ATOM     28  N   UNL     1       1.311   3.444  21.234  0.00  0.00    +0.000 NA
ATOM     29  C   UNL     1       0.784   3.453  19.992  0.00  0.00    +0.000 A 
ATOM     30  C   UNL     1       1.464   3.022  18.862  0.00  0.00    +0.000 A 
ENDBRANCH  24  25
ENDBRANCH  22  24
ENDBRANCH   5  22
TORSDOF 6
ENDMDL
MODEL 3
REMARK VINA RESULT:      -7.9      1.933      4.701
REMARK  Name = 
REMARK  7 active torsions:
REMARK  status: ('A' for Active; 'I' for Inactive)
REMARK    1  A    between atoms: C_1  and  N_2
REMARK    2  A    between atoms: C_5  and  N_6
REMARK    3  A    between atoms: N_6  and  C_7
REMARK    4  A    between atoms: C_7  and  C_8
REMARK    5  A    between atoms: C_14  and  C_15
REMARK    6  A    between atoms: N_17  and  C_18
REMARK    7  A    between atoms: C_21  and  C_22
REMARK                            x       y       z     vdW  Elec       q    Type
REMARK                         _______ _______ _______ _____ _____    ______ ____
ROOT
ATOM      1  C   UNL     1       1.836   2.687  21.790  0.00  0.00    +0.000 C 
ATOM      2  N   UNL     1       2.989   2.724  20.923  0.00  0.00    +0.000 N 
ATOM      3  C   UNL     1       4.000   1.807  20.914  0.00  0.00    +0.000 A 
ATOM      4  N   UNL     1       4.863   2.053  19.954  0.00  0.00    +0.000 NA
ATOM      5  C   UNL     1       4.413   3.190  19.356  0.00  0.00    +0.000 A 
ATOM      6  C   UNL     1       3.224   3.627  19.905  0.00  0.00    +0.000 A 
ENDROOT
BRANCH   6   7
ATOM      7  C   UNL     1       2.361   4.725  19.545  0.00  0.00    +0.000 C 
ATOM      8  O   UNL     1       1.378   4.564  18.832  0.00  0.00    +0.000 OA
ATOM      9  N   UNL     1       2.809   5.956  20.006  0.00  0.00    +0.000 N 
ATOM     10  H   UNL     1       3.753   5.962  20.379  0.00  0.00    +0.000 HD
BRANCH   9  11
ATOM     11  C   UNL     1       2.158   7.196  19.846  0.00  0.00    +0.000 A 
ATOM     12  C   UNL     1       2.220   7.931  18.664  0.00  0.00    +0.000 A 
ATOM     13  C   UNL     1       1.586   9.170  18.563  0.00  0.00    +0.000 A 
ATOM     14  C   UNL     1       0.873   9.709  19.643  0.00  0.00    +0.000 A 
ATOM     15  C   UNL     1       0.782   8.953  20.817  0.00  0.00    +0.000 A 
ATOM     16 CL   UNL     1      -0.076   9.524  22.205  0.00  0.00    +0.000 Cl
ATOM     17  C   UNL     1       1.407   7.699  20.914  0.00  0.00    +0.000 A 
BRANCH  14  18
ATOM     18  C   UNL     1       0.242  11.070  19.515  0.00  0.00    +0.000 C 
ATOM     19  F   UNL     1       0.482  11.655  18.305  0.00  0.00    +0.000 F 
ATOM     20  F   UNL     1      -1.113  11.045  19.639  0.00  0.00    +0.000 F 
ATOM     21  F   UNL     1       0.699  11.959  20.438  0.00  0.00    +0.000 F 
ENDBRANCH  14  18
ENDBRANCH   9  11
ENDBRANCH   6   7
BRANCH   5  22
ATOM     22  N   UNL     1       5.079   3.780  18.351  0.00  0.00    +0.000 N 
ATOM     23  H   UNL     1       5.950   4.277  18.507  0.00  0.00    +0.000 HD
BRANCH  22  24
ATOM     24  C   UNL     1       4.690   3.610  16.967  0.00  0.00    +0.000 C 
BRANCH  24  25
ATOM     25  C   UNL     1       5.670   4.256  16.023  0.00  0.00    +0.000 A 
ATOM     26  C   UNL     1       6.683   5.088  16.506  0.00  0.00    +0.000 A 
ATOM     27  C   UNL     1       7.613   5.595  15.613  0.00  0.00    +0.000 A 
ATOM     28  N   UNL     1       7.601   5.338  14.287  0.00  0.00    +0.000 NA
ATOM     29  C   UNL     1       6.611   4.539  13.836  0.00  0.00    +0.000 A 
ATOM     30  C   UNL     1       5.636   3.984  14.651  0.00  0.00    +0.000 A 
ENDBRANCH  24  25
ENDBRANCH  22  24
ENDBRANCH   5  22
TORSDOF 6
ENDMDL
MODEL 4
REMARK VINA RESULT:      -7.7      1.974      4.394
REMARK  Name = 
REMARK  7 active torsions:
REMARK  status: ('A' for Active; 'I' for Inactive)
REMARK    1  A    between atoms: C_1  and  N_2
REMARK    2  A    between atoms: C_5  and  N_6
REMARK    3  A    between atoms: N_6  and  C_7
REMARK    4  A    between atoms: C_7  and  C_8
REMARK    5  A    between atoms: C_14  and  C_15
REMARK    6  A    between atoms: N_17  and  C_18
REMARK    7  A    between atoms: C_21  and  C_22
REMARK                            x       y       z     vdW  Elec       q    Type
REMARK                         _______ _______ _______ _____ _____    ______ ____
ROOT
ATOM      1  C   UNL     1       1.722   2.410  18.977  0.00  0.00    +0.000 C 
ATOM      2  N   UNL     1       3.049   2.905  19.258  0.00  0.00    +0.000 N 
ATOM      3  C   UNL     1       4.140   2.130  19.530  0.00  0.00    +0.000 A 
ATOM      4  N   UNL     1       5.227   2.858  19.652  0.00  0.00    +0.000 NA
ATOM      5  C   UNL     1       4.811   4.145  19.496  0.00  0.00    +0.000 A 
ATOM      6  C   UNL     1       3.462   4.222  19.212  0.00  0.00    +0.000 A 
ENDROOT
BRANCH   6   7
ATOM      7  C   UNL     1       2.622   5.352  18.901  0.00  0.00    +0.000 C 
ATOM      8  O   UNL     1       1.953   5.395  17.876  0.00  0.00    +0.000 OA
ATOM      9  N   UNL     1       2.727   6.389  19.820  0.00  0.00    +0.000 N 
ATOM     10  H   UNL     1       3.490   6.305  20.484  0.00  0.00    +0.000 HD
BRANCH   9  11
ATOM     11  C   UNL     1       2.002   7.597  19.802  0.00  0.00    +0.000 A 
ATOM     12  C   UNL     1       1.978   8.445  18.696  0.00  0.00    +0.000 A 
ATOM     13  C   UNL     1       1.272   9.648  18.737  0.00  0.00    +0.000 A 
ATOM     14  C   UNL     1       0.570  10.038  19.887  0.00  0.00    +0.000 A 
ATOM     15  C   UNL     1       0.567   9.169  20.983  0.00  0.00    +0.000 A 
ATOM     16 CL   UNL     1      -0.270   9.553  22.446  0.00  0.00    +0.000 Cl
ATOM     17  C   UNL     1       1.264   7.951  20.937  0.00  0.00    +0.000 A 
BRANCH  14  18
ATOM     18  C   UNL     1      -0.140  11.365  19.912  0.00  0.00    +0.000 C 
ATOM     19  F   UNL     1       0.317  12.193  20.896  0.00  0.00    +0.000 F 
ATOM     20  F   UNL     1       0.002  12.069  18.756  0.00  0.00    +0.000 F 
ATOM     21  F   UNL     1      -1.478  11.249  20.134  0.00  0.00    +0.000 F 
ENDBRANCH  14  18
ENDBRANCH   9  11
ENDBRANCH   6   7
BRANCH   5  22
ATOM     22  N   UNL     1       5.651   5.186  19.610  0.00  0.00    +0.000 N 
ATOM     23  H   UNL     1       5.558   5.867  20.357  0.00  0.00    +0.000 HD
BRANCH  22  24
ATOM     24  C   UNL     1       6.831   5.316  18.783  0.00  0.00    +0.000 C 
BRANCH  24  25
ATOM     25  C   UNL     1       6.492   5.334  17.316  0.00  0.00    +0.000 A 
ATOM     26  C   UNL     1       5.536   6.221  16.817  0.00  0.00    +0.000 A 
ATOM     27  C   UNL     1       5.313   6.263  15.449  0.00  0.00    +0.000 A 
ATOM     28  N   UNL     1       5.964   5.487  14.557  0.00  0.00    +0.000 NA
ATOM     29  C   UNL     1       6.879   4.629  15.057  0.00  0.00    +0.000 A 
ATOM     30  C   UNL     1       7.172   4.516  16.408  0.00  0.00    +0.000 A 
ENDBRANCH  24  25
ENDBRANCH  22  24
ENDBRANCH   5  22
TORSDOF 6
ENDMDL
MODEL 5
REMARK VINA RESULT:      -7.7      0.681      1.305
REMARK  Name = 
REMARK  7 active torsions:
REMARK  status: ('A' for Active; 'I' for Inactive)
REMARK    1  A    between atoms: C_1  and  N_2
REMARK    2  A    between atoms: C_5  and  N_6
REMARK    3  A    between atoms: N_6  and  C_7
REMARK    4  A    between atoms: C_7  and  C_8
REMARK    5  A    between atoms: C_14  and  C_15
REMARK    6  A    between atoms: N_17  and  C_18
REMARK    7  A    between atoms: C_21  and  C_22
REMARK                            x       y       z     vdW  Elec       q    Type
REMARK                         _______ _______ _______ _____ _____    ______ ____
ROOT
ATOM      1  C   UNL     1       5.845   6.767  15.648  0.00  0.00    +0.000 C 
ATOM      2  N   UNL     1       5.573   5.372  15.907  0.00  0.00    +0.000 N 
ATOM      3  C   UNL     1       5.951   4.333  15.106  0.00  0.00    +0.000 A 
ATOM      4  N   UNL     1       5.645   3.175  15.646  0.00  0.00    +0.000 NA
ATOM      5  C   UNL     1       5.012   3.484  16.811  0.00  0.00    +0.000 A 
ATOM      6  C   UNL     1       4.975   4.846  17.034  0.00  0.00    +0.000 A 
ENDROOT
BRANCH   6   7
ATOM      7  C   UNL     1       4.482   5.610  18.155  0.00  0.00    +0.000 C 
ATOM      8  O   UNL     1       5.102   5.681  19.208  0.00  0.00    +0.000 OA
ATOM      9  N   UNL     1       3.225   6.159  17.939  0.00  0.00    +0.000 N 
ATOM     10  H   UNL     1       2.739   5.822  17.114  0.00  0.00    +0.000 HD
BRANCH   9  11
ATOM     11  C   UNL     1       2.509   6.983  18.831  0.00  0.00    +0.000 A 
ATOM     12  C   UNL     1       2.106   6.554  20.094  0.00  0.00    +0.000 A 
ATOM     13  C   UNL     1       1.371   7.395  20.929  0.00  0.00    +0.000 A 
ATOM     14  C   UNL     1       1.016   8.690  20.525  0.00  0.00    +0.000 A 
ATOM     15  C   UNL     1       1.452   9.131  19.270  0.00  0.00    +0.000 A 
ATOM     16 CL   UNL     1       1.073  10.710  18.678  0.00  0.00    +0.000 Cl
ATOM     17  C   UNL     1       2.206   8.291  18.436  0.00  0.00    +0.000 A 
BRANCH  14  18
ATOM     18  C   UNL     1       0.181   9.553  21.433  0.00  0.00    +0.000 C 
ATOM     19  F   UNL     1       0.850  10.654  21.882  0.00  0.00    +0.000 F 
ATOM     20  F   UNL     1      -0.940  10.035  20.830  0.00  0.00    +0.000 F 
ATOM     21  F   UNL     1      -0.231   8.902  22.555  0.00  0.00    +0.000 F 
ENDBRANCH  14  18
ENDBRANCH   9  11
ENDBRANCH   6   7
BRANCH   5  22
ATOM     22  N   UNL     1       4.502   2.540  17.619  0.00  0.00    +0.000 N 
ATOM     23  H   UNL     1       5.066   2.087  18.331  0.00  0.00    +0.000 HD
BRANCH  22  24
ATOM     24  C   UNL     1       3.090   2.226  17.639  0.00  0.00    +0.000 C 
BRANCH  24  25
ATOM     25  C   UNL     1       2.465   2.523  18.977  0.00  0.00    +0.000 A 
ATOM     26  C   UNL     1       3.244   2.554  20.136  0.00  0.00    +0.000 A 
ATOM     27  C   UNL     1       2.645   2.913  21.333  0.00  0.00    +0.000 A 
ATOM     28  N   UNL     1       1.339   3.233  21.455  0.00  0.00    +0.000 NA
ATOM     29  C   UNL     1       0.599   3.190  20.326  0.00  0.00    +0.000 A 
ATOM     30  C   UNL     1       1.108   2.845  19.083  0.00  0.00    +0.000 A 
ENDBRANCH  24  25
ENDBRANCH  22  24
ENDBRANCH   5  22
TORSDOF 6
ENDMDL
MODEL 6
REMARK VINA RESULT:      -7.7      1.211      1.799
REMARK  Name = 
REMARK  7 active torsions:
REMARK  status: ('A' for Active; 'I' for Inactive)
REMARK    1  A    between atoms: C_1  and  N_2
REMARK    2  A    between atoms: C_5  and  N_6
REMARK    3  A    between atoms: N_6  and  C_7
REMARK    4  A    between atoms: C_7  and  C_8
REMARK    5  A    between atoms: C_14  and  C_15
REMARK    6  A    between atoms: N_17  and  C_18
REMARK    7  A    between atoms: C_21  and  C_22
REMARK                            x       y       z     vdW  Elec       q    Type
REMARK                         _______ _______ _______ _____ _____    ______ ____
ROOT
ATOM      1  C   UNL     1       6.881   6.298  17.889  0.00  0.00    +0.000 C 
ATOM      2  N   UNL     1       5.973   5.312  17.351  0.00  0.00    +0.000 N 
ATOM      3  C   UNL     1       6.326   4.279  16.532  0.00  0.00    +0.000 A 
ATOM      4  N   UNL     1       5.302   3.495  16.282  0.00  0.00    +0.000 NA
ATOM      5  C   UNL     1       4.250   4.069  16.927  0.00  0.00    +0.000 A 
ATOM      6  C   UNL     1       4.629   5.189  17.640  0.00  0.00    +0.000 A 
ENDROOT
BRANCH   6   7
ATOM      7  C   UNL     1       3.878   6.054  18.516  0.00  0.00    +0.000 C 
ATOM      8  O   UNL     1       3.847   5.873  19.727  0.00  0.00    +0.000 OA
ATOM      9  N   UNL     1       3.146   7.023  17.843  0.00  0.00    +0.000 N 
ATOM     10  H   UNL     1       3.087   6.902  16.837  0.00  0.00    +0.000 HD
BRANCH   9  11
ATOM     11  C   UNL     1       2.353   8.029  18.431  0.00  0.00    +0.000 A 
ATOM     12  C   UNL     1       1.940   9.164  17.737  0.00  0.00    +0.000 A 
ATOM     13  C   UNL     1       1.183  10.150  18.372  0.00  0.00    +0.000 A 
ATOM     14  C   UNL     1       0.820  10.029  19.721  0.00  0.00    +0.000 A 
ATOM     15  C   UNL     1       1.207   8.871  20.407  0.00  0.00    +0.000 A 
ATOM     16 CL   UNL     1       0.808   8.622  22.070  0.00  0.00    +0.000 Cl
ATOM     17  C   UNL     1       1.955   7.872  19.763  0.00  0.00    +0.000 A 
BRANCH  14  18
ATOM     18  C   UNL     1       0.045  11.134  20.387  0.00  0.00    +0.000 C 
ATOM     19  F   UNL     1      -0.245  12.164  19.540  0.00  0.00    +0.000 F 
ATOM     20  F   UNL     1      -1.157  10.724  20.878  0.00  0.00    +0.000 F 
ATOM     21  F   UNL     1       0.714  11.704  21.426  0.00  0.00    +0.000 F 
ENDBRANCH  14  18
ENDBRANCH   9  11
ENDBRANCH   6   7
BRANCH   5  22
ATOM     22  N   UNL     1       3.007   3.566  16.854  0.00  0.00    +0.000 N 
ATOM     23  H   UNL     1       2.326   3.923  16.192  0.00  0.00    +0.000 HD
BRANCH  22  24
ATOM     24  C   UNL     1       2.609   2.387  17.593  0.00  0.00    +0.000 C 
BRANCH  24  25
ATOM     25  C   UNL     1       2.364   2.689  19.047  0.00  0.00    +0.000 A 
ATOM     26  C   UNL     1       3.272   2.276  20.024  0.00  0.00    +0.000 A 
ATOM     27  C   UNL     1       3.051   2.647  21.342  0.00  0.00    +0.000 A 
ATOM     28  N   UNL     1       1.997   3.385  21.748  0.00  0.00    +0.000 NA
ATOM     29  C   UNL     1       1.125   3.770  20.793  0.00  0.00    +0.000 A 
ATOM     30  C   UNL     1       1.261   3.450  19.450  0.00  0.00    +0.000 A 
ENDBRANCH  24  25
ENDBRANCH  22  24
ENDBRANCH   5  22
TORSDOF 6
ENDMDL
MODEL 7
REMARK VINA RESULT:      -7.6      1.696      4.161
REMARK  Name = 
REMARK  7 active torsions:
REMARK  status: ('A' for Active; 'I' for Inactive)
REMARK    1  A    between atoms: C_1  and  N_2
REMARK    2  A    between atoms: C_5  and  N_6
REMARK    3  A    between atoms: N_6  and  C_7
REMARK    4  A    between atoms: C_7  and  C_8
REMARK    5  A    between atoms: C_14  and  C_15
REMARK    6  A    between atoms: N_17  and  C_18
REMARK    7  A    between atoms: C_21  and  C_22
REMARK                            x       y       z     vdW  Elec       q    Type
REMARK                         _______ _______ _______ _____ _____    ______ ____
ROOT
ATOM      1  C   UNL     1       2.888   2.839  20.945  0.00  0.00    +0.000 C 
ATOM      2  N   UNL     1       3.356   2.768  19.581  0.00  0.00    +0.000 N 
ATOM      3  C   UNL     1       3.503   1.620  18.857  0.00  0.00    +0.000 A 
ATOM      4  N   UNL     1       3.857   1.878  17.618  0.00  0.00    +0.000 NA
ATOM      5  C   UNL     1       3.982   3.232  17.559  0.00  0.00    +0.000 A 
ATOM      6  C   UNL     1       3.644   3.835  18.754  0.00  0.00    +0.000 A 
ENDROOT
BRANCH   6   7
ATOM      7  C   UNL     1       3.556   5.227  19.121  0.00  0.00    +0.000 C 
ATOM      8  O   UNL     1       4.466   5.795  19.712  0.00  0.00    +0.000 OA
ATOM      9  N   UNL     1       2.328   5.802  18.820  0.00  0.00    +0.000 N 
ATOM     10  H   UNL     1       1.598   5.151  18.549  0.00  0.00    +0.000 HD
BRANCH   9  11
ATOM     11  C   UNL     1       1.964   7.149  19.024  0.00  0.00    +0.000 A 
ATOM     12  C   UNL     1       1.963   8.092  17.998  0.00  0.00    +0.000 A 
ATOM     13  C   UNL     1       1.627   9.421  18.255  0.00  0.00    +0.000 A 
ATOM     14  C   UNL     1       1.285   9.846  19.548  0.00  0.00    +0.000 A 
ATOM     15  C   UNL     1       1.254   8.890  20.569  0.00  0.00    +0.000 A 
ATOM     16 CL   UNL     1       0.842   9.308  22.195  0.00  0.00    +0.000 Cl
ATOM     17  C   UNL     1       1.576   7.549  20.307  0.00  0.00    +0.000 A 
BRANCH  14  18
ATOM     18  C   UNL     1       0.976  11.298  19.797  0.00  0.00    +0.000 C 
ATOM     19  F   UNL     1      -0.303  11.502  20.227  0.00  0.00    +0.000 F 
ATOM     20  F   UNL     1       1.769  11.857  20.752  0.00  0.00    +0.000 F 
ATOM     21  F   UNL     1       1.106  12.070  18.684  0.00  0.00    +0.000 F 
ENDBRANCH  14  18
ENDBRANCH   9  11
ENDBRANCH   6   7
BRANCH   5  22
ATOM     22  N   UNL     1       4.387   3.864  16.445  0.00  0.00    +0.000 N 
ATOM     23  H   UNL     1       3.737   4.373  15.855  0.00  0.00    +0.000 HD
BRANCH  22  24
ATOM     24  C   UNL     1       5.786   3.998  16.102  0.00  0.00    +0.000 C 
BRANCH  24  25
ATOM     25  C   UNL     1       6.481   5.021  16.960  0.00  0.00    +0.000 A 
ATOM     26  C   UNL     1       7.297   4.626  18.023  0.00  0.00    +0.000 A 
ATOM     27  C   UNL     1       7.984   5.597  18.735  0.00  0.00    +0.000 A 
ATOM     28  N   UNL     1       7.909   6.918  18.469  0.00  0.00    +0.000 NA
ATOM     29  C   UNL     1       7.110   7.284  17.445  0.00  0.00    +0.000 A 
ATOM     30  C   UNL     1       6.385   6.387  16.674  0.00  0.00    +0.000 A 
ENDBRANCH  24  25
ENDBRANCH  22  24
ENDBRANCH   5  22
TORSDOF 6
ENDMDL
MODEL 8
REMARK VINA RESULT:      -7.6      1.664      2.236
REMARK  Name = 
REMARK  7 active torsions:
REMARK  status: ('A' for Active; 'I' for Inactive)
REMARK    1  A    between atoms: C_1  and  N_2
REMARK    2  A    between atoms: C_5  and  N_6
REMARK    3  A    between atoms: N_6  and  C_7
REMARK    4  A    between atoms: C_7  and  C_8
REMARK    5  A    between atoms: C_14  and  C_15
REMARK    6  A    between atoms: N_17  and  C_18
REMARK    7  A    between atoms: C_21  and  C_22
REMARK                            x       y       z     vdW  Elec       q    Type
REMARK                         _______ _______ _______ _____ _____    ______ ____
ROOT
ATOM      1  C   UNL     1       5.272   6.324  15.464  0.00  0.00    +0.000 C 
ATOM      2  N   UNL     1       5.549   5.476  16.600  0.00  0.00    +0.000 N 
ATOM      3  C   UNL     1       6.704   4.776  16.798  0.00  0.00    +0.000 A 
ATOM      4  N   UNL     1       6.702   4.170  17.964  0.00  0.00    +0.000 NA
ATOM      5  C   UNL     1       5.490   4.457  18.511  0.00  0.00    +0.000 A 
ATOM      6  C   UNL     1       4.748   5.301  17.710  0.00  0.00    +0.000 A 
ENDROOT
BRANCH   6   7
ATOM      7  C   UNL     1       3.460   5.918  17.919  0.00  0.00    +0.000 C 
ATOM      8  O   UNL     1       2.416   5.309  17.725  0.00  0.00    +0.000 OA
ATOM      9  N   UNL     1       3.541   7.261  18.264  0.00  0.00    +0.000 N 
ATOM     10  H   UNL     1       4.458   7.683  18.159  0.00  0.00    +0.000 HD
BRANCH   9  11
ATOM     11  C   UNL     1       2.458   8.111  18.569  0.00  0.00    +0.000 A 
ATOM     12  C   UNL     1       1.902   8.985  17.638  0.00  0.00    +0.000 A 
ATOM     13  C   UNL     1       0.851   9.831  17.995  0.00  0.00    +0.000 A 
ATOM     14  C   UNL     1       0.328   9.828  19.297  0.00  0.00    +0.000 A 
ATOM     15  C   UNL     1       0.866   8.924  20.220  0.00  0.00    +0.000 A 
ATOM     16 CL   UNL     1       0.291   8.837  21.848  0.00  0.00    +0.000 Cl
ATOM     17  C   UNL     1       1.912   8.062  19.857  0.00  0.00    +0.000 A 
BRANCH  14  18
ATOM     18  C   UNL     1      -0.772  10.788  19.660  0.00  0.00    +0.000 C 
ATOM     19  F   UNL     1      -1.995  10.187  19.746  0.00  0.00    +0.000 F 
ATOM     20  F   UNL     1      -0.582  11.388  20.867  0.00  0.00    +0.000 F 
ATOM     21  F   UNL     1      -0.930  11.788  18.750  0.00  0.00    +0.000 F 
ENDBRANCH  14  18
ENDBRANCH   9  11
ENDBRANCH   6   7
BRANCH   5  22
ATOM     22  N   UNL     1       5.105   3.958  19.697  0.00  0.00    +0.000 N 
ATOM     23  H   UNL     1       5.092   4.528  20.536  0.00  0.00    +0.000 HD
BRANCH  22  24
ATOM     24  C   UNL     1       4.534   2.634  19.826  0.00  0.00    +0.000 C 
BRANCH  24  25
ATOM     25  C   UNL     1       3.030   2.663  19.782  0.00  0.00    +0.000 A 
ATOM     26  C   UNL     1       2.303   3.386  20.730  0.00  0.00    +0.000 A 
ATOM     27  C   UNL     1       0.924   3.454  20.605  0.00  0.00    +0.000 A 
ATOM     28  N   UNL     1       0.228   2.853  19.617  0.00  0.00    +0.000 NA
ATOM     29  C   UNL     1       0.945   2.151  18.714  0.00  0.00    +0.000 A 
ATOM     30  C   UNL     1       2.326   2.026  18.754  0.00  0.00    +0.000 A 
ENDBRANCH  24  25
ENDBRANCH  22  24
ENDBRANCH   5  22
TORSDOF 6
ENDMDL
MODEL 9
REMARK VINA RESULT:      -7.6      1.563      4.050
REMARK  Name = 
REMARK  7 active torsions:
REMARK  status: ('A' for Active; 'I' for Inactive)
REMARK    1  A    between atoms: C_1  and  N_2
REMARK    2  A    between atoms: C_5  and  N_6
REMARK    3  A    between atoms: N_6  and  C_7
REMARK    4  A    between atoms: C_7  and  C_8
REMARK    5  A    between atoms: C_14  and  C_15
REMARK    6  A    between atoms: N_17  and  C_18
REMARK    7  A    between atoms: C_21  and  C_22
REMARK                            x       y       z     vdW  Elec       q    Type
REMARK                         _______ _______ _______ _____ _____    ______ ____
ROOT
ATOM      1  C   UNL     1       0.703   2.619  18.776  0.00  0.00    +0.000 C 
ATOM      2  N   UNL     1       2.147   2.597  18.788  0.00  0.00    +0.000 N 
ATOM      3  C   UNL     1       2.928   1.690  18.132  0.00  0.00    +0.000 A 
ATOM      4  N   UNL     1       4.204   1.980  18.253  0.00  0.00    +0.000 NA
ATOM      5  C   UNL     1       4.243   3.084  19.048  0.00  0.00    +0.000 A 
ATOM      6  C   UNL     1       2.978   3.528  19.378  0.00  0.00    +0.000 A 
ENDROOT
BRANCH   6   7
ATOM      7  C   UNL     1       2.544   4.685  20.123  0.00  0.00    +0.000 C 
ATOM      8  O   UNL     1       2.376   4.644  21.336  0.00  0.00    +0.000 OA
ATOM      9  N   UNL     1       2.261   5.784  19.323  0.00  0.00    +0.000 N 
ATOM     10  H   UNL     1       2.223   5.597  18.326  0.00  0.00    +0.000 HD
BRANCH   9  11
ATOM     11  C   UNL     1       1.859   7.059  19.768  0.00  0.00    +0.000 A 
ATOM     12  C   UNL     1       1.323   7.280  21.035  0.00  0.00    +0.000 A 
ATOM     13  C   UNL     1       0.907   8.555  21.420  0.00  0.00    +0.000 A 
ATOM     14  C   UNL     1       1.015   9.647  20.546  0.00  0.00    +0.000 A 
ATOM     15  C   UNL     1       1.586   9.430  19.287  0.00  0.00    +0.000 A 
ATOM     16 CL   UNL     1       1.767  10.707  18.137  0.00  0.00    +0.000 Cl
ATOM     17  C   UNL     1       2.018   8.150  18.906  0.00  0.00    +0.000 A 
BRANCH  14  18
ATOM     18  C   UNL     1       0.512  10.999  20.977  0.00  0.00    +0.000 C 
ATOM     19  F   UNL     1      -0.491  11.471  20.180  0.00  0.00    +0.000 F 
ATOM     20  F   UNL     1       0.001  11.002  22.238  0.00  0.00    +0.000 F 
ATOM     21  F   UNL     1       1.474  11.960  20.946  0.00  0.00    +0.000 F 
ENDBRANCH  14  18
ENDBRANCH   9  11
ENDBRANCH   6   7
BRANCH   5  22
ATOM     22  N   UNL     1       5.400   3.644  19.437  0.00  0.00    +0.000 N 
ATOM     23  H   UNL     1       6.120   3.107  19.910  0.00  0.00    +0.000 HD
BRANCH  22  24
ATOM     24  C   UNL     1       5.762   4.995  19.067  0.00  0.00    +0.000 C 
BRANCH  24  25
ATOM     25  C   UNL     1       5.917   5.149  17.578  0.00  0.00    +0.000 A 
ATOM     26  C   UNL     1       5.062   5.985  16.855  0.00  0.00    +0.000 A 
ATOM     27  C   UNL     1       5.291   6.163  15.499  0.00  0.00    +0.000 A 
ATOM     28  N   UNL     1       6.296   5.568  14.822  0.00  0.00    +0.000 NA
ATOM     29  C   UNL     1       7.108   4.758  15.533  0.00  0.00    +0.000 A 
ATOM     30  C   UNL     1       6.960   4.518  16.892  0.00  0.00    +0.000 A 
ENDBRANCH  24  25
ENDBRANCH  22  24
ENDBRANCH   5  22
TORSDOF 6
ENDMDL
