MODEL 1
REMARK VINA RESULT:      -7.1      0.000      0.000
REMARK  Name = 
REMARK  3 active torsions:
REMARK  status: ('A' for Active; 'I' for Inactive)
REMARK    1  A    between atoms: C_2  and  C_14
REMARK    2  A    between atoms: N_3  and  C_4
REMARK    3  A    between atoms: C_9  and  N_10
REMARK                            x       y       z     vdW  Elec       q    Type
REMARK                         _______ _______ _______ _____ _____    ______ ____
ROOT
ATOM      1  C   UNL     1       4.177   4.802  17.116  0.00  0.00    +0.000 A 
ATOM      2  C   UNL     1       4.336   5.805  18.081  0.00  0.00    +0.000 A 
ATOM      3  C   UNL     1       3.699   5.736  19.324  0.00  0.00    +0.000 A 
ATOM      4  C   UNL     1       2.873   4.657  19.629  0.00  0.00    +0.000 A 
ATOM      5 CL   UNL     1       2.203   4.591  21.217  0.00  0.00    +0.000 Cl
ATOM      6  C   UNL     1       2.673   3.684  18.651  0.00  0.00    +0.000 A 
ATOM      7  C   UNL     1       3.303   3.746  17.391  0.00  0.00    +0.000 A 
ENDROOT
BRANCH   1  10
ATOM      8  O   UNL     1       6.986   4.254  16.659  0.00  0.00    +0.000 OA
ATOM      9  C   UNL     1       6.234   4.559  15.736  0.00  0.00    +0.000 C 
ATOM     10  N   UNL     1       4.874   4.812  15.885  0.00  0.00    +0.000 N 
ATOM     11  H   UNL     1       4.345   4.875  15.022  0.00  0.00    +0.000 HD
BRANCH   9  12
ATOM     12  C   UNL     1       6.733   4.627  14.376  0.00  0.00    +0.000 A 
ATOM     13  C   UNL     1       6.354   3.887  13.271  0.00  0.00    +0.000 A 
ATOM     14  C   UNL     1       7.171   4.303  12.199  0.00  0.00    +0.000 A 
ATOM     15  C   UNL     1       7.999   5.275  12.709  0.00  0.00    +0.000 A 
ATOM     16  O   UNL     1       7.736   5.492  14.029  0.00  0.00    +0.000 OA
ENDBRANCH   9  12
ENDBRANCH   1  10
BRANCH   6  17
ATOM     17  N   UNL     1       1.832   2.540  18.927  0.00  0.00    +0.000 N 
ATOM     18  O   UNL     1       0.608   2.702  18.860  0.00  0.00    +0.000 OA
ATOM     19  O   UNL     1       2.408   1.468  19.156  0.00  0.00    +0.000 OA
ENDBRANCH   6  17
TORSDOF 3
ENDMDL
MODEL 2
REMARK VINA RESULT:      -6.9      0.756      1.065
REMARK  Name = 
REMARK  3 active torsions:
REMARK  status: ('A' for Active; 'I' for Inactive)
REMARK    1  A    between atoms: C_2  and  C_14
REMARK    2  A    between atoms: N_3  and  C_4
REMARK    3  A    between atoms: C_9  and  N_10
REMARK                            x       y       z     vdW  Elec       q    Type
REMARK                         _______ _______ _______ _____ _____    ______ ____
ROOT
ATOM      1  C   UNL     1       4.200   4.844  17.112  0.00  0.00    +0.000 A 
ATOM      2  C   UNL     1       3.775   6.043  17.699  0.00  0.00    +0.000 A 
ATOM      3  C   UNL     1       3.159   6.069  18.954  0.00  0.00    +0.000 A 
ATOM      4  C   UNL     1       2.941   4.884  19.651  0.00  0.00    +0.000 A 
ATOM      5 CL   UNL     1       2.267   5.004  21.235  0.00  0.00    +0.000 Cl
ATOM      6  C   UNL     1       3.316   3.685  19.047  0.00  0.00    +0.000 A 
ATOM      7  C   UNL     1       3.932   3.645  17.779  0.00  0.00    +0.000 A 
ENDROOT
BRANCH   1  10
ATOM      8  O   UNL     1       7.066   4.752  16.695  0.00  0.00    +0.000 OA
ATOM      9  C   UNL     1       6.282   4.781  15.749  0.00  0.00    +0.000 C 
ATOM     10  N   UNL     1       4.897   4.803  15.882  0.00  0.00    +0.000 N 
ATOM     11  H   UNL     1       4.375   4.644  15.026  0.00  0.00    +0.000 HD
BRANCH   9  12
ATOM     12  C   UNL     1       6.775   4.742  14.386  0.00  0.00    +0.000 A 
ATOM     13  C   UNL     1       6.367   3.941  13.335  0.00  0.00    +0.000 A 
ATOM     14  C   UNL     1       7.190   4.259  12.235  0.00  0.00    +0.000 A 
ATOM     15  C   UNL     1       8.051   5.237  12.676  0.00  0.00    +0.000 A 
ATOM     16  O   UNL     1       7.802   5.549  13.978  0.00  0.00    +0.000 OA
ENDBRANCH   9  12
ENDBRANCH   1  10
BRANCH   6  17
ATOM     17  N   UNL     1       3.119   2.430  19.739  0.00  0.00    +0.000 N 
ATOM     18  O   UNL     1       4.043   2.023  20.455  0.00  0.00    +0.000 OA
ATOM     19  O   UNL     1       2.016   1.885  19.603  0.00  0.00    +0.000 OA
ENDBRANCH   6  17
TORSDOF 3
ENDMDL
MODEL 3
REMARK VINA RESULT:      -6.6      1.849      2.028
REMARK  Name = 
REMARK  3 active torsions:
REMARK  status: ('A' for Active; 'I' for Inactive)
REMARK    1  A    between atoms: C_2  and  C_14
REMARK    2  A    between atoms: N_3  and  C_4
REMARK    3  A    between atoms: C_9  and  N_10
REMARK                            x       y       z     vdW  Elec       q    Type
REMARK                         _______ _______ _______ _____ _____    ______ ____
ROOT
ATOM      1  C   UNL     1       3.654   3.611  17.300  0.00  0.00    +0.000 A 
ATOM      2  C   UNL     1       2.348   4.116  17.327  0.00  0.00    +0.000 A 
ATOM      3  C   UNL     1       1.558   4.044  18.480  0.00  0.00    +0.000 A 
ATOM      4  C   UNL     1       2.057   3.451  19.635  0.00  0.00    +0.000 A 
ATOM      5 CL   UNL     1       1.062   3.489  21.044  0.00  0.00    +0.000 Cl
ATOM      6  C   UNL     1       3.338   2.903  19.594  0.00  0.00    +0.000 A 
ATOM      7  C   UNL     1       4.142   2.962  18.438  0.00  0.00    +0.000 A 
ENDROOT
BRANCH   1  10
ATOM      8  O   UNL     1       5.666   5.641  16.815  0.00  0.00    +0.000 OA
ATOM      9  C   UNL     1       5.433   4.759  15.991  0.00  0.00    +0.000 C 
ATOM     10  N   UNL     1       4.498   3.745  16.172  0.00  0.00    +0.000 N 
ATOM     11  H   UNL     1       4.538   2.990  15.496  0.00  0.00    +0.000 HD
BRANCH   9  12
ATOM     12  C   UNL     1       6.187   4.696  14.753  0.00  0.00    +0.000 A 
ATOM     13  C   UNL     1       5.943   3.938  13.623  0.00  0.00    +0.000 A 
ATOM     14  C   UNL     1       6.991   4.204  12.718  0.00  0.00    +0.000 A 
ATOM     15  C   UNL     1       7.812   5.111  13.344  0.00  0.00    +0.000 A 
ATOM     16  O   UNL     1       7.330   5.430  14.578  0.00  0.00    +0.000 OA
ENDBRANCH   9  12
ENDBRANCH   1  10
BRANCH   6  17
ATOM     17  N   UNL     1       3.903   2.286  20.775  0.00  0.00    +0.000 N 
ATOM     18  O   UNL     1       5.037   1.801  20.678  0.00  0.00    +0.000 OA
ATOM     19  O   UNL     1       3.226   2.341  21.810  0.00  0.00    +0.000 OA
ENDBRANCH   6  17
TORSDOF 3
ENDMDL
MODEL 4
REMARK VINA RESULT:      -6.5      0.911      1.140
REMARK  Name = 
REMARK  3 active torsions:
REMARK  status: ('A' for Active; 'I' for Inactive)
REMARK    1  A    between atoms: C_2  and  C_14
REMARK    2  A    between atoms: N_3  and  C_4
REMARK    3  A    between atoms: C_9  and  N_10
REMARK                            x       y       z     vdW  Elec       q    Type
REMARK                         _______ _______ _______ _____ _____    ______ ____
ROOT
ATOM      1  C   UNL     1       4.488   4.321  17.266  0.00  0.00    +0.000 A 
ATOM      2  C   UNL     1       4.846   5.209  18.288  0.00  0.00    +0.000 A 
ATOM      3  C   UNL     1       4.143   5.259  19.497  0.00  0.00    +0.000 A 
ATOM      4  C   UNL     1       3.049   4.424  19.706  0.00  0.00    +0.000 A 
ATOM      5 CL   UNL     1       2.295   4.473  21.257  0.00  0.00    +0.000 Cl
ATOM      6  C   UNL     1       2.660   3.577  18.670  0.00  0.00    +0.000 A 
ATOM      7  C   UNL     1       3.355   3.520  17.445  0.00  0.00    +0.000 A 
ENDROOT
BRANCH   1  10
ATOM      8  O   UNL     1       5.225   6.415  15.404  0.00  0.00    +0.000 OA
ATOM      9  C   UNL     1       5.537   5.243  15.206  0.00  0.00    +0.000 C 
ATOM     10  N   UNL     1       5.233   4.196  16.070  0.00  0.00    +0.000 N 
ATOM     11  H   UNL     1       5.703   3.318  15.873  0.00  0.00    +0.000 HD
BRANCH   9  12
ATOM     12  C   UNL     1       6.312   4.878  14.036  0.00  0.00    +0.000 A 
ATOM     13  C   UNL     1       6.107   3.843  13.143  0.00  0.00    +0.000 A 
ATOM     14  C   UNL     1       7.163   3.891  12.210  0.00  0.00    +0.000 A 
ATOM     15  C   UNL     1       7.951   4.954  12.584  0.00  0.00    +0.000 A 
ATOM     16  O   UNL     1       7.440   5.571  13.686  0.00  0.00    +0.000 OA
ENDBRANCH   9  12
ENDBRANCH   1  10
BRANCH   6  17
ATOM     17  N   UNL     1       1.536   2.682  18.847  0.00  0.00    +0.000 N 
ATOM     18  O   UNL     1       1.708   1.684  19.557  0.00  0.00    +0.000 OA
ATOM     19  O   UNL     1       0.469   3.016  18.315  0.00  0.00    +0.000 OA
ENDBRANCH   6  17
TORSDOF 3
ENDMDL
MODEL 5
REMARK VINA RESULT:      -6.5      1.838      2.256
REMARK  Name = 
REMARK  3 active torsions:
REMARK  status: ('A' for Active; 'I' for Inactive)
REMARK    1  A    between atoms: C_2  and  C_14
REMARK    2  A    between atoms: N_3  and  C_4
REMARK    3  A    between atoms: C_9  and  N_10
REMARK                            x       y       z     vdW  Elec       q    Type
REMARK                         _______ _______ _______ _____ _____    ______ ____
ROOT
ATOM      1  C   UNL     1       4.008   3.901  17.198  0.00  0.00    +0.000 A 
ATOM      2  C   UNL     1       3.713   2.631  17.711  0.00  0.00    +0.000 A 
ATOM      3  C   UNL     1       2.926   2.466  18.855  0.00  0.00    +0.000 A 
ATOM      4  C   UNL     1       2.422   3.578  19.524  0.00  0.00    +0.000 A 
ATOM      5 CL   UNL     1       1.377   3.293  20.867  0.00  0.00    +0.000 Cl
ATOM      6  C   UNL     1       2.756   4.843  19.045  0.00  0.00    +0.000 A 
ATOM      7  C   UNL     1       3.554   5.024  17.896  0.00  0.00    +0.000 A 
ENDROOT
BRANCH   1  10
ATOM      8  O   UNL     1       6.856   4.340  16.892  0.00  0.00    +0.000 OA
ATOM      9  C   UNL     1       6.103   4.316  15.920  0.00  0.00    +0.000 C 
ATOM     10  N   UNL     1       4.733   4.087  15.998  0.00  0.00    +0.000 N 
ATOM     11  H   UNL     1       4.269   3.916  15.111  0.00  0.00    +0.000 HD
BRANCH   9  12
ATOM     12  C   UNL     1       6.632   4.480  14.580  0.00  0.00    +0.000 A 
ATOM     13  C   UNL     1       6.270   3.829  13.415  0.00  0.00    +0.000 A 
ATOM     14  C   UNL     1       7.113   4.316  12.394  0.00  0.00    +0.000 A 
ATOM     15  C   UNL     1       7.937   5.240  12.993  0.00  0.00    +0.000 A 
ATOM     16  O   UNL     1       7.648   5.359  14.319  0.00  0.00    +0.000 OA
ENDBRANCH   9  12
ENDBRANCH   1  10
BRANCH   6  17
ATOM     17  N   UNL     1       2.245   6.027  19.700  0.00  0.00    +0.000 N 
ATOM     18  O   UNL     1       1.828   5.903  20.858  0.00  0.00    +0.000 OA
ATOM     19  O   UNL     1       2.315   7.089  19.067  0.00  0.00    +0.000 OA
ENDBRANCH   6  17
TORSDOF 3
ENDMDL
MODEL 6
REMARK VINA RESULT:      -6.5      3.271      6.778
REMARK  Name = 
REMARK  3 active torsions:
REMARK  status: ('A' for Active; 'I' for Inactive)
REMARK    1  A    between atoms: C_2  and  C_14
REMARK    2  A    between atoms: N_3  and  C_4
REMARK    3  A    between atoms: C_9  and  N_10
REMARK                            x       y       z     vdW  Elec       q    Type
REMARK                         _______ _______ _______ _____ _____    ______ ____
ROOT
ATOM      1  C   UNL     1       5.551   3.934  16.236  0.00  0.00    +0.000 A 
ATOM      2  C   UNL     1       6.620   4.816  16.435  0.00  0.00    +0.000 A 
ATOM      3  C   UNL     1       7.408   5.266  15.370  0.00  0.00    +0.000 A 
ATOM      4  C   UNL     1       7.150   4.830  14.074  0.00  0.00    +0.000 A 
ATOM      5 CL   UNL     1       8.100   5.505  12.802  0.00  0.00    +0.000 Cl
ATOM      6  C   UNL     1       6.119   3.912  13.881  0.00  0.00    +0.000 A 
ATOM      7  C   UNL     1       5.321   3.445  14.946  0.00  0.00    +0.000 A 
ENDROOT
BRANCH   1  10
ATOM      8  O   UNL     1       3.391   5.441  17.445  0.00  0.00    +0.000 OA
ATOM      9  C   UNL     1       3.683   4.313  17.837  0.00  0.00    +0.000 C 
ATOM     10  N   UNL     1       4.691   3.530  17.284  0.00  0.00    +0.000 N 
ATOM     11  H   UNL     1       4.702   2.560  17.583  0.00  0.00    +0.000 HD
BRANCH   9  12
ATOM     12  C   UNL     1       2.927   3.691  18.907  0.00  0.00    +0.000 A 
ATOM     13  C   UNL     1       1.563   3.494  19.009  0.00  0.00    +0.000 A 
ATOM     14  C   UNL     1       1.329   2.887  20.260  0.00  0.00    +0.000 A 
ATOM     15  C   UNL     1       2.564   2.745  20.849  0.00  0.00    +0.000 A 
ATOM     16  O   UNL     1       3.547   3.218  20.032  0.00  0.00    +0.000 OA
ENDBRANCH   9  12
ENDBRANCH   1  10
BRANCH   6  17
ATOM     17  N   UNL     1       5.806   3.439  12.550  0.00  0.00    +0.000 N 
ATOM     18  O   UNL     1       6.701   2.855  11.927  0.00  0.00    +0.000 OA
ATOM     19  O   UNL     1       4.645   3.609  12.157  0.00  0.00    +0.000 OA
ENDBRANCH   6  17
TORSDOF 3
ENDMDL
MODEL 7
REMARK VINA RESULT:      -6.4      0.809      1.211
REMARK  Name = 
REMARK  3 active torsions:
REMARK  status: ('A' for Active; 'I' for Inactive)
REMARK    1  A    between atoms: C_2  and  C_14
REMARK    2  A    between atoms: N_3  and  C_4
REMARK    3  A    between atoms: C_9  and  N_10
REMARK                            x       y       z     vdW  Elec       q    Type
REMARK                         _______ _______ _______ _____ _____    ______ ____
ROOT
ATOM      1  C   UNL     1       4.014   4.492  17.066  0.00  0.00    +0.000 A 
ATOM      2  C   UNL     1       4.298   5.460  18.038  0.00  0.00    +0.000 A 
ATOM      3  C   UNL     1       3.682   5.443  19.294  0.00  0.00    +0.000 A 
ATOM      4  C   UNL     1       2.752   4.455  19.604  0.00  0.00    +0.000 A 
ATOM      5 CL   UNL     1       2.111   4.439  21.205  0.00  0.00    +0.000 Cl
ATOM      6  C   UNL     1       2.430   3.521  18.620  0.00  0.00    +0.000 A 
ATOM      7  C   UNL     1       3.038   3.531  17.348  0.00  0.00    +0.000 A 
ENDROOT
BRANCH   1  10
ATOM      8  O   UNL     1       6.863   4.267  16.587  0.00  0.00    +0.000 OA
ATOM      9  C   UNL     1       6.063   4.355  15.659  0.00  0.00    +0.000 C 
ATOM     10  N   UNL     1       4.684   4.444  15.821  0.00  0.00    +0.000 N 
ATOM     11  H   UNL     1       4.137   4.330  14.973  0.00  0.00    +0.000 HD
BRANCH   9  12
ATOM     12  C   UNL     1       6.526   4.322  14.285  0.00  0.00    +0.000 A 
ATOM     13  C   UNL     1       7.481   5.109  13.669  0.00  0.00    +0.000 A 
ATOM     14  C   UNL     1       7.532   4.710  12.317  0.00  0.00    +0.000 A 
ATOM     15  C   UNL     1       6.608   3.700  12.186  0.00  0.00    +0.000 A 
ATOM     16  O   UNL     1       5.997   3.445  13.377  0.00  0.00    +0.000 OA
ENDBRANCH   9  12
ENDBRANCH   1  10
BRANCH   6  17
ATOM     17  N   UNL     1       1.478   2.469  18.901  0.00  0.00    +0.000 N 
ATOM     18  O   UNL     1       1.867   1.515  19.587  0.00  0.00    +0.000 OA
ATOM     19  O   UNL     1       0.326   2.632  18.477  0.00  0.00    +0.000 OA
ENDBRANCH   6  17
TORSDOF 3
ENDMDL
MODEL 8
REMARK VINA RESULT:      -6.2      1.366      1.476
REMARK  Name = 
REMARK  3 active torsions:
REMARK  status: ('A' for Active; 'I' for Inactive)
REMARK    1  A    between atoms: C_2  and  C_14
REMARK    2  A    between atoms: N_3  and  C_4
REMARK    3  A    between atoms: C_9  and  N_10
REMARK                            x       y       z     vdW  Elec       q    Type
REMARK                         _______ _______ _______ _____ _____    ______ ____
ROOT
ATOM      1  C   UNL     1       4.490   3.597  17.593  0.00  0.00    +0.000 A 
ATOM      2  C   UNL     1       5.191   3.732  18.798  0.00  0.00    +0.000 A 
ATOM      3  C   UNL     1       4.555   3.602  20.037  0.00  0.00    +0.000 A 
ATOM      4  C   UNL     1       3.188   3.345  20.099  0.00  0.00    +0.000 A 
ATOM      5 CL   UNL     1       2.493   3.099  21.658  0.00  0.00    +0.000 Cl
ATOM      6  C   UNL     1       2.479   3.262  18.902  0.00  0.00    +0.000 A 
ATOM      7  C   UNL     1       3.107   3.397  17.646  0.00  0.00    +0.000 A 
ENDROOT
BRANCH   1  10
ATOM      8  O   UNL     1       5.294   5.942  16.093  0.00  0.00    +0.000 OA
ATOM      9  C   UNL     1       5.470   4.809  15.652  0.00  0.00    +0.000 C 
ATOM     10  N   UNL     1       5.127   3.644  16.332  0.00  0.00    +0.000 N 
ATOM     11  H   UNL     1       5.490   2.784  15.932  0.00  0.00    +0.000 HD
BRANCH   9  12
ATOM     12  C   UNL     1       6.116   4.613  14.369  0.00  0.00    +0.000 A 
ATOM     13  C   UNL     1       5.806   3.713  13.367  0.00  0.00    +0.000 A 
ATOM     14  C   UNL     1       6.761   3.894  12.344  0.00  0.00    +0.000 A 
ATOM     15  C   UNL     1       7.596   4.896  12.779  0.00  0.00    +0.000 A 
ATOM     16  O   UNL     1       7.209   5.352  14.003  0.00  0.00    +0.000 OA
ENDBRANCH   9  12
ENDBRANCH   1  10
BRANCH   6  17
ATOM     17  N   UNL     1       1.059   2.984  18.916  0.00  0.00    +0.000 N 
ATOM     18  O   UNL     1       0.659   2.021  18.250  0.00  0.00    +0.000 OA
ATOM     19  O   UNL     1       0.358   3.702  19.641  0.00  0.00    +0.000 OA
ENDBRANCH   6  17
TORSDOF 3
ENDMDL
MODEL 9
REMARK VINA RESULT:      -6.2      3.180      6.717
REMARK  Name = 
REMARK  3 active torsions:
REMARK  status: ('A' for Active; 'I' for Inactive)
REMARK    1  A    between atoms: C_2  and  C_14
REMARK    2  A    between atoms: N_3  and  C_4
REMARK    3  A    between atoms: C_9  and  N_10
REMARK                            x       y       z     vdW  Elec       q    Type
REMARK                         _______ _______ _______ _____ _____    ______ ____
ROOT
ATOM      1  C   UNL     1       5.142   4.332  16.304  0.00  0.00    +0.000 A 
ATOM      2  C   UNL     1       6.233   5.178  16.540  0.00  0.00    +0.000 A 
ATOM      3  C   UNL     1       7.152   5.488  15.532  0.00  0.00    +0.000 A 
ATOM      4  C   UNL     1       7.006   4.944  14.259  0.00  0.00    +0.000 A 
ATOM      5 CL   UNL     1       8.120   5.451  13.044  0.00  0.00    +0.000 Cl
ATOM      6  C   UNL     1       5.950   4.062  14.037  0.00  0.00    +0.000 A 
ATOM      7  C   UNL     1       5.020   3.735  15.046  0.00  0.00    +0.000 A 
ENDROOT
BRANCH   1  10
ATOM      8  O   UNL     1       5.541   3.743  19.114  0.00  0.00    +0.000 OA
ATOM      9  C   UNL     1       4.416   3.772  18.619  0.00  0.00    +0.000 C 
ATOM     10  N   UNL     1       4.156   4.070  17.285  0.00  0.00    +0.000 N 
ATOM     11  H   UNL     1       3.181   4.234  17.057  0.00  0.00    +0.000 HD
BRANCH   9  12
ATOM     12  C   UNL     1       3.246   3.537  19.443  0.00  0.00    +0.000 A 
ATOM     13  C   UNL     1       1.955   4.000  19.274  0.00  0.00    +0.000 A 
ATOM     14  C   UNL     1       1.203   3.525  20.369  0.00  0.00    +0.000 A 
ATOM     15  C   UNL     1       2.077   2.797  21.141  0.00  0.00    +0.000 A 
ATOM     16  O   UNL     1       3.320   2.785  20.585  0.00  0.00    +0.000 OA
ENDBRANCH   9  12
ENDBRANCH   1  10
BRANCH   6  17
ATOM     17  N   UNL     1       5.752   3.482  12.727  0.00  0.00    +0.000 N 
ATOM     18  O   UNL     1       4.640   3.624  12.202  0.00  0.00    +0.000 OA
ATOM     19  O   UNL     1       6.731   2.931  12.207  0.00  0.00    +0.000 OA
ENDBRANCH   6  17
TORSDOF 3
ENDMDL
