MODEL 1
REMARK VINA RESULT:      -8.8      0.000      0.000
REMARK  Name = 
REMARK  8 active torsions:
REMARK  status: ('A' for Active; 'I' for Inactive)
REMARK    1  A    between atoms: C_2  and  C_15
REMARK    2  A    between atoms: N_3  and  C_4
REMARK    3  A    between atoms: C_4  and  C_5
REMARK    4  A    between atoms: N_17  and  C_18
REMARK    5  A    between atoms: C_18  and  C_19
REMARK    6  A    between atoms: C_19  and  O_20
REMARK    7  A    between atoms: N_24  and  C_25
REMARK    8  A    between atoms: C_25  and  C_26
REMARK                            x       y       z     vdW  Elec       q    Type
REMARK                         _______ _______ _______ _____ _____    ______ ____
ROOT
ATOM      1  C   UNL     1       0.461  10.571  20.513  0.00  0.00    +0.000 A 
ATOM      2  N   UNL     1       1.022  11.053  19.375  0.00  0.00    +0.000 NA
ATOM      3  N   UNL     1       0.879  12.397  19.469  0.00  0.00    +0.000 N 
ATOM      4  C   UNL     1       0.332  12.782  20.651  0.00  0.00    +0.000 A 
ATOM      5  C   UNL     1      -0.061  11.636  21.306  0.00  0.00    +0.000 A 
ATOM      6  C   UNL     1      -0.794  11.654  22.616  0.00  0.00    +0.000 C 
ATOM      7  N   UNL     1      -1.364  13.015  22.902  0.00  0.00    +0.000 NA
ATOM      8  C   UNL     1      -0.346  14.064  22.639  0.00  0.00    +0.000 C 
ATOM      9  C   UNL     1       0.122  14.162  21.164  0.00  0.00    +0.000 C 
ENDROOT
BRANCH   1  11
ATOM     10  O   UNL     1      -0.449   8.596  21.471  0.00  0.00    +0.000 OA
ATOM     11  C   UNL     1       0.457   9.127  20.833  0.00  0.00    +0.000 C 
ATOM     12  N   UNL     1       1.563   8.435  20.378  0.00  0.00    +0.000 N 
ATOM     13  H   UNL     1       2.305   9.001  19.978  0.00  0.00    +0.000 HD
BRANCH  12  14
ATOM     14  C   UNL     1       1.808   7.055  20.730  0.00  0.00    +0.000 C 
BRANCH  14  15
ATOM     15  C   UNL     1       2.338   6.241  19.568  0.00  0.00    +0.000 A 
ATOM     16  C   UNL     1       3.241   6.859  18.680  0.00  0.00    +0.000 A 
ATOM     17  C   UNL     1       3.792   6.153  17.614  0.00  0.00    +0.000 A 
ATOM     18  C   UNL     1       3.447   4.820  17.412  0.00  0.00    +0.000 A 
ATOM     19  C   UNL     1       2.547   4.177  18.268  0.00  0.00    +0.000 A 
ATOM     20  C   UNL     1       2.216   2.828  18.048  0.00  0.00    +0.000 A 
ATOM     21  C   UNL     1       1.327   2.158  18.887  0.00  0.00    +0.000 A 
ATOM     22  C   UNL     1       0.752   2.831  19.956  0.00  0.00    +0.000 A 
ATOM     23  C   UNL     1       1.074   4.174  20.189  0.00  0.00    +0.000 A 
ATOM     24  C   UNL     1       1.977   4.880  19.364  0.00  0.00    +0.000 A 
ENDBRANCH  14  15
ENDBRANCH  12  14
ENDBRANCH   1  11
BRANCH   3  25
ATOM     25  C   UNL     1       1.325  13.259  18.389  0.00  0.00    +0.000 C 
BRANCH  25  26
ATOM     26  C   UNL     1       2.841  13.413  18.341  0.00  0.00    +0.000 C 
BRANCH  26  27
ATOM     27  O   UNL     1       3.316  14.319  19.333  0.00  0.00    +0.000 OA
ATOM     28  H   UNL     1       3.871  14.977  18.874  0.00  0.00    +0.000 HD
ENDBRANCH  26  27
ENDBRANCH  25  26
ENDBRANCH   3  25
BRANCH   7  29
ATOM     29  C   UNL     1      -2.615  13.221  22.147  0.00  0.00    +0.000 C 
BRANCH  29  30
ATOM     30  C   UNL     1      -3.854  13.137  23.005  0.00  0.00    +0.000 A 
ATOM     31  C   UNL     1      -3.914  13.191  24.387  0.00  0.00    +0.000 A 
ATOM     32  N   UNL     1      -5.204  12.957  24.781  0.00  0.00    +0.000 N 
ATOM     33  C   UNL     1      -6.001  12.714  23.687  0.00  0.00    +0.000 A 
ATOM     34  C   UNL     1      -7.353  12.352  23.618  0.00  0.00    +0.000 A 
ATOM     35  C   UNL     1      -7.913  12.165  22.350  0.00  0.00    +0.000 A 
ATOM     36  C   UNL     1      -7.157  12.372  21.200  0.00  0.00    +0.000 A 
ATOM     37  C   UNL     1      -5.807  12.731  21.290  0.00  0.00    +0.000 A 
ATOM     38  C   UNL     1      -5.199  12.881  22.555  0.00  0.00    +0.000 A 
ATOM     39  H   UNL     1      -5.525  12.925  25.738  0.00  0.00    +0.000 HD
ENDBRANCH  29  30
ENDBRANCH   7  29
TORSDOF 8
ENDMDL
MODEL 2
REMARK VINA RESULT:      -8.8      1.558      1.864
REMARK  Name = 
REMARK  8 active torsions:
REMARK  status: ('A' for Active; 'I' for Inactive)
REMARK    1  A    between atoms: C_2  and  C_15
REMARK    2  A    between atoms: N_3  and  C_4
REMARK    3  A    between atoms: C_4  and  C_5
REMARK    4  A    between atoms: N_17  and  C_18
REMARK    5  A    between atoms: C_18  and  C_19
REMARK    6  A    between atoms: C_19  and  O_20
REMARK    7  A    between atoms: N_24  and  C_25
REMARK    8  A    between atoms: C_25  and  C_26
REMARK                            x       y       z     vdW  Elec       q    Type
REMARK                         _______ _______ _______ _____ _____    ______ ____
ROOT
ATOM      1  C   UNL     1       0.135  10.276  20.950  0.00  0.00    +0.000 A 
ATOM      2  N   UNL     1       0.729  10.883  19.892  0.00  0.00    +0.000 NA
ATOM      3  N   UNL     1       0.467  12.202  20.066  0.00  0.00    +0.000 N 
ATOM      4  C   UNL     1      -0.188  12.454  21.228  0.00  0.00    +0.000 A 
ATOM      5  C   UNL     1      -0.526  11.236  21.774  0.00  0.00    +0.000 A 
ATOM      6  C   UNL     1      -1.345  11.099  23.024  0.00  0.00    +0.000 C 
ATOM      7  N   UNL     1      -2.045  12.385  23.360  0.00  0.00    +0.000 NA
ATOM      8  C   UNL     1      -1.103  13.529  23.244  0.00  0.00    +0.000 C 
ATOM      9  C   UNL     1      -0.548  13.771  21.816  0.00  0.00    +0.000 C 
ENDROOT
BRANCH   1  11
ATOM     10  O   UNL     1      -0.634   8.182  21.769  0.00  0.00    +0.000 OA
ATOM     11  C   UNL     1       0.231   8.816  21.170  0.00  0.00    +0.000 C 
ATOM     12  N   UNL     1       1.381   8.235  20.671  0.00  0.00    +0.000 N 
ATOM     13  H   UNL     1       2.080   8.877  20.312  0.00  0.00    +0.000 HD
BRANCH  12  14
ATOM     14  C   UNL     1       1.721   6.855  20.928  0.00  0.00    +0.000 C 
BRANCH  14  15
ATOM     15  C   UNL     1       2.264   6.148  19.702  0.00  0.00    +0.000 A 
ATOM     16  C   UNL     1       3.137   6.861  18.857  0.00  0.00    +0.000 A 
ATOM     17  C   UNL     1       3.699   6.257  17.735  0.00  0.00    +0.000 A 
ATOM     18  C   UNL     1       3.394   4.934  17.434  0.00  0.00    +0.000 A 
ATOM     19  C   UNL     1       2.524   4.198  18.246  0.00  0.00    +0.000 A 
ATOM     20  C   UNL     1       2.235   2.860  17.927  0.00  0.00    +0.000 A 
ATOM     21  C   UNL     1       1.375   2.099  18.718  0.00  0.00    +0.000 A 
ATOM     22  C   UNL     1       0.791   2.669  19.841  0.00  0.00    +0.000 A 
ATOM     23  C   UNL     1       1.073   4.001  20.173  0.00  0.00    +0.000 A 
ATOM     24  C   UNL     1       1.945   4.796  19.397  0.00  0.00    +0.000 A 
ENDBRANCH  14  15
ENDBRANCH  12  14
ENDBRANCH   1  11
BRANCH   3  25
ATOM     25  C   UNL     1       0.910  13.173  19.082  0.00  0.00    +0.000 C 
BRANCH  25  26
ATOM     26  C   UNL     1       2.361  12.968  18.659  0.00  0.00    +0.000 C 
BRANCH  26  27
ATOM     27  O   UNL     1       2.461  12.317  17.396  0.00  0.00    +0.000 OA
ATOM     28  H   UNL     1       1.594  11.906  17.219  0.00  0.00    +0.000 HD
ENDBRANCH  26  27
ENDBRANCH  25  26
ENDBRANCH   3  25
BRANCH   7  29
ATOM     29  C   UNL     1      -3.256  12.547  22.531  0.00  0.00    +0.000 C 
BRANCH  29  30
ATOM     30  C   UNL     1      -4.338  13.356  23.203  0.00  0.00    +0.000 A 
ATOM     31  C   UNL     1      -5.339  12.880  24.033  0.00  0.00    +0.000 A 
ATOM     32  N   UNL     1      -6.187  13.911  24.335  0.00  0.00    +0.000 N 
ATOM     33  C   UNL     1      -5.789  15.060  23.694  0.00  0.00    +0.000 A 
ATOM     34  C   UNL     1      -6.395  16.324  23.646  0.00  0.00    +0.000 A 
ATOM     35  C   UNL     1      -5.760  17.323  22.903  0.00  0.00    +0.000 A 
ATOM     36  C   UNL     1      -4.547  17.076  22.267  0.00  0.00    +0.000 A 
ATOM     37  C   UNL     1      -3.960  15.806  22.324  0.00  0.00    +0.000 A 
ATOM     38  C   UNL     1      -4.599  14.762  23.026  0.00  0.00    +0.000 A 
ATOM     39  H   UNL     1      -7.013  13.838  24.913  0.00  0.00    +0.000 HD
ENDBRANCH  29  30
ENDBRANCH   7  29
TORSDOF 8
ENDMDL
MODEL 3
REMARK VINA RESULT:      -8.6      3.756     11.862
REMARK  Name = 
REMARK  8 active torsions:
REMARK  status: ('A' for Active; 'I' for Inactive)
REMARK    1  A    between atoms: C_2  and  C_15
REMARK    2  A    between atoms: N_3  and  C_4
REMARK    3  A    between atoms: C_4  and  C_5
REMARK    4  A    between atoms: N_17  and  C_18
REMARK    5  A    between atoms: C_18  and  C_19
REMARK    6  A    between atoms: C_19  and  O_20
REMARK    7  A    between atoms: N_24  and  C_25
REMARK    8  A    between atoms: C_25  and  C_26
REMARK                            x       y       z     vdW  Elec       q    Type
REMARK                         _______ _______ _______ _____ _____    ______ ____
ROOT
ATOM      1  C   UNL     1       2.332   6.226  18.980  0.00  0.00    +0.000 A 
ATOM      2  N   UNL     1       1.436   5.346  19.494  0.00  0.00    +0.000 NA
ATOM      3  N   UNL     1       2.120   4.180  19.588  0.00  0.00    +0.000 N 
ATOM      4  C   UNL     1       3.425   4.311  19.238  0.00  0.00    +0.000 A 
ATOM      5  C   UNL     1       3.580   5.581  18.729  0.00  0.00    +0.000 A 
ATOM      6  C   UNL     1       4.873   6.077  18.148  0.00  0.00    +0.000 C 
ATOM      7  N   UNL     1       5.806   4.938  17.846  0.00  0.00    +0.000 NA
ATOM      8  C   UNL     1       5.853   3.995  18.993  0.00  0.00    +0.000 C 
ATOM      9  C   UNL     1       4.508   3.295  19.316  0.00  0.00    +0.000 C 
ENDROOT
BRANCH   1  11
ATOM     10  O   UNL     1       2.149   8.208  17.683  0.00  0.00    +0.000 OA
ATOM     11  C   UNL     1       1.997   7.651  18.767  0.00  0.00    +0.000 C 
ATOM     12  N   UNL     1       1.526   8.304  19.890  0.00  0.00    +0.000 N 
ATOM     13  H   UNL     1       1.566   7.777  20.757  0.00  0.00    +0.000 HD
BRANCH  12  14
ATOM     14  C   UNL     1       1.297   9.730  19.913  0.00  0.00    +0.000 C 
BRANCH  14  15
ATOM     15  C   UNL     1       0.364  10.154  21.029  0.00  0.00    +0.000 A 
ATOM     16  C   UNL     1       0.423   9.451  22.248  0.00  0.00    +0.000 A 
ATOM     17  C   UNL     1      -0.382   9.816  23.324  0.00  0.00    +0.000 A 
ATOM     18  C   UNL     1      -1.264  10.884  23.199  0.00  0.00    +0.000 A 
ATOM     19  C   UNL     1      -1.357  11.600  22.001  0.00  0.00    +0.000 A 
ATOM     20  C   UNL     1      -2.251  12.679  21.898  0.00  0.00    +0.000 A 
ATOM     21  C   UNL     1      -2.362  13.414  20.719  0.00  0.00    +0.000 A 
ATOM     22  C   UNL     1      -1.580  13.076  19.623  0.00  0.00    +0.000 A 
ATOM     23  C   UNL     1      -0.682  12.005  19.712  0.00  0.00    +0.000 A 
ATOM     24  C   UNL     1      -0.539  11.244  20.893  0.00  0.00    +0.000 A 
ENDBRANCH  14  15
ENDBRANCH  12  14
ENDBRANCH   1  11
BRANCH   3  25
ATOM     25  C   UNL     1       1.457   2.977  20.059  0.00  0.00    +0.000 C 
BRANCH  25  26
ATOM     26  C   UNL     1       1.386   2.895  21.580  0.00  0.00    +0.000 C 
BRANCH  26  27
ATOM     27  O   UNL     1       2.639   2.530  22.153  0.00  0.00    +0.000 OA
ATOM     28  H   UNL     1       3.008   3.334  22.563  0.00  0.00    +0.000 HD
ENDBRANCH  26  27
ENDBRANCH  25  26
ENDBRANCH   3  25
BRANCH   7  29
ATOM     29  C   UNL     1       5.432   4.285  16.576  0.00  0.00    +0.000 C 
BRANCH  29  30
ATOM     30  C   UNL     1       6.388   4.581  15.446  0.00  0.00    +0.000 A 
ATOM     31  C   UNL     1       7.477   5.435  15.480  0.00  0.00    +0.000 A 
ATOM     32  N   UNL     1       8.010   5.518  14.222  0.00  0.00    +0.000 N 
ATOM     33  C   UNL     1       7.275   4.761  13.341  0.00  0.00    +0.000 A 
ATOM     34  C   UNL     1       7.402   4.614  11.952  0.00  0.00    +0.000 A 
ATOM     35  C   UNL     1       6.500   3.766  11.302  0.00  0.00    +0.000 A 
ATOM     36  C   UNL     1       5.537   3.064  12.021  0.00  0.00    +0.000 A 
ATOM     37  C   UNL     1       5.425   3.227  13.407  0.00  0.00    +0.000 A 
ATOM     38  C   UNL     1       6.289   4.112  14.087  0.00  0.00    +0.000 A 
ATOM     39  H   UNL     1       8.805   6.085  13.961  0.00  0.00    +0.000 HD
ENDBRANCH  29  30
ENDBRANCH   7  29
TORSDOF 8
ENDMDL
MODEL 4
REMARK VINA RESULT:      -8.6      2.676      4.281
REMARK  Name = 
REMARK  8 active torsions:
REMARK  status: ('A' for Active; 'I' for Inactive)
REMARK    1  A    between atoms: C_2  and  C_15
REMARK    2  A    between atoms: N_3  and  C_4
REMARK    3  A    between atoms: C_4  and  C_5
REMARK    4  A    between atoms: N_17  and  C_18
REMARK    5  A    between atoms: C_18  and  C_19
REMARK    6  A    between atoms: C_19  and  O_20
REMARK    7  A    between atoms: N_24  and  C_25
REMARK    8  A    between atoms: C_25  and  C_26
REMARK                            x       y       z     vdW  Elec       q    Type
REMARK                         _______ _______ _______ _____ _____    ______ ____
ROOT
ATOM      1  C   UNL     1       0.039  10.373  18.404  0.00  0.00    +0.000 A 
ATOM      2  N   UNL     1      -0.959   9.755  17.724  0.00  0.00    +0.000 NA
ATOM      3  N   UNL     1      -2.090  10.372  18.145  0.00  0.00    +0.000 N 
ATOM      4  C   UNL     1      -1.837  11.403  18.991  0.00  0.00    +0.000 A 
ATOM      5  C   UNL     1      -0.491  11.368  19.279  0.00  0.00    +0.000 A 
ATOM      6  C   UNL     1       0.160  12.301  20.258  0.00  0.00    +0.000 C 
ATOM      7  N   UNL     1      -0.861  12.973  21.132  0.00  0.00    +0.000 NA
ATOM      8  C   UNL     1      -1.991  13.477  20.308  0.00  0.00    +0.000 C 
ATOM      9  C   UNL     1      -2.799  12.377  19.571  0.00  0.00    +0.000 C 
ENDROOT
BRANCH   1  11
ATOM     10  O   UNL     1       2.329  10.884  18.027  0.00  0.00    +0.000 OA
ATOM     11  C   UNL     1       1.462  10.029  18.191  0.00  0.00    +0.000 C 
ATOM     12  N   UNL     1       1.727   8.673  18.164  0.00  0.00    +0.000 N 
ATOM     13  H   UNL     1       0.914   8.064  18.180  0.00  0.00    +0.000 HD
BRANCH  12  14
ATOM     14  C   UNL     1       3.025   8.148  17.812  0.00  0.00    +0.000 C 
BRANCH  14  15
ATOM     15  C   UNL     1       3.111   6.643  17.973  0.00  0.00    +0.000 A 
ATOM     16  C   UNL     1       2.232   6.021  18.882  0.00  0.00    +0.000 A 
ATOM     17  C   UNL     1       2.236   4.639  19.048  0.00  0.00    +0.000 A 
ATOM     18  C   UNL     1       3.121   3.855  18.315  0.00  0.00    +0.000 A 
ATOM     19  C   UNL     1       4.014   4.439  17.411  0.00  0.00    +0.000 A 
ATOM     20  C   UNL     1       4.896   3.627  16.677  0.00  0.00    +0.000 A 
ATOM     21  C   UNL     1       5.795   4.179  15.765  0.00  0.00    +0.000 A 
ATOM     22  C   UNL     1       5.824   5.554  15.577  0.00  0.00    +0.000 A 
ATOM     23  C   UNL     1       4.949   6.375  16.299  0.00  0.00    +0.000 A 
ATOM     24  C   UNL     1       4.022   5.848  17.224  0.00  0.00    +0.000 A 
ENDBRANCH  14  15
ENDBRANCH  12  14
ENDBRANCH   1  11
BRANCH   3  25
ATOM     25  C   UNL     1      -3.388   9.934  17.662  0.00  0.00    +0.000 C 
BRANCH  25  26
ATOM     26  C   UNL     1      -3.705  10.453  16.263  0.00  0.00    +0.000 C 
BRANCH  26  27
ATOM     27  O   UNL     1      -3.824  11.873  16.236  0.00  0.00    +0.000 OA
ATOM     28  H   UNL     1      -3.655  12.189  17.144  0.00  0.00    +0.000 HD
ENDBRANCH  26  27
ENDBRANCH  25  26
ENDBRANCH   3  25
BRANCH   7  29
ATOM     29  C   UNL     1      -1.294  12.066  22.213  0.00  0.00    +0.000 C 
BRANCH  29  30
ATOM     30  C   UNL     1      -2.185  12.733  23.233  0.00  0.00    +0.000 A 
ATOM     31  C   UNL     1      -3.431  12.302  23.658  0.00  0.00    +0.000 A 
ATOM     32  N   UNL     1      -3.960  13.246  24.496  0.00  0.00    +0.000 N 
ATOM     33  C   UNL     1      -3.105  14.316  24.610  0.00  0.00    +0.000 A 
ATOM     34  C   UNL     1      -3.267  15.533  25.288  0.00  0.00    +0.000 A 
ATOM     35  C   UNL     1      -2.217  16.454  25.233  0.00  0.00    +0.000 A 
ATOM     36  C   UNL     1      -1.038  16.151  24.559  0.00  0.00    +0.000 A 
ATOM     37  C   UNL     1      -0.897  14.931  23.885  0.00  0.00    +0.000 A 
ATOM     38  C   UNL     1      -1.956  13.999  23.881  0.00  0.00    +0.000 A 
ATOM     39  H   UNL     1      -4.867  13.191  24.938  0.00  0.00    +0.000 HD
ENDBRANCH  29  30
ENDBRANCH   7  29
TORSDOF 8
ENDMDL
MODEL 5
REMARK VINA RESULT:      -8.6      1.276      1.375
REMARK  Name = 
REMARK  8 active torsions:
REMARK  status: ('A' for Active; 'I' for Inactive)
REMARK    1  A    between atoms: C_2  and  C_15
REMARK    2  A    between atoms: N_3  and  C_4
REMARK    3  A    between atoms: C_4  and  C_5
REMARK    4  A    between atoms: N_17  and  C_18
REMARK    5  A    between atoms: C_18  and  C_19
REMARK    6  A    between atoms: C_19  and  O_20
REMARK    7  A    between atoms: N_24  and  C_25
REMARK    8  A    between atoms: C_25  and  C_26
REMARK                            x       y       z     vdW  Elec       q    Type
REMARK                         _______ _______ _______ _____ _____    ______ ____
ROOT
ATOM      1  C   UNL     1       0.564  11.660  21.277  0.00  0.00    +0.000 A 
ATOM      2  N   UNL     1       1.265  12.112  20.206  0.00  0.00    +0.000 NA
ATOM      3  N   UNL     1       0.925  13.421  20.107  0.00  0.00    +0.000 N 
ATOM      4  C   UNL     1       0.114  13.827  21.116  0.00  0.00    +0.000 A 
ATOM      5  C   UNL     1      -0.240  12.702  21.828  0.00  0.00    +0.000 A 
ATOM      6  C   UNL     1      -1.208  12.731  22.974  0.00  0.00    +0.000 C 
ATOM      7  N   UNL     1      -2.001  14.008  22.985  0.00  0.00    +0.000 NA
ATOM      8  C   UNL     1      -1.102  15.173  22.780  0.00  0.00    +0.000 C 
ATOM      9  C   UNL     1      -0.376  15.200  21.410  0.00  0.00    +0.000 C 
ENDROOT
BRANCH   1  11
ATOM     10  O   UNL     1       0.637   9.984  22.960  0.00  0.00    +0.000 OA
ATOM     11  C   UNL     1       0.693  10.270  21.766  0.00  0.00    +0.000 C 
ATOM     12  N   UNL     1       0.908   9.330  20.776  0.00  0.00    +0.000 N 
ATOM     13  H   UNL     1       1.065   9.700  19.844  0.00  0.00    +0.000 HD
BRANCH  12  14
ATOM     14  C   UNL     1       1.213   7.951  21.076  0.00  0.00    +0.000 C 
BRANCH  14  15
ATOM     15  C   UNL     1       1.941   7.254  19.944  0.00  0.00    +0.000 A 
ATOM     16  C   UNL     1       2.335   8.026  18.833  0.00  0.00    +0.000 A 
ATOM     17  C   UNL     1       3.039   7.452  17.777  0.00  0.00    +0.000 A 
ATOM     18  C   UNL     1       3.357   6.098  17.810  0.00  0.00    +0.000 A 
ATOM     19  C   UNL     1       2.974   5.300  18.892  0.00  0.00    +0.000 A 
ATOM     20  C   UNL     1       3.310   3.935  18.907  0.00  0.00    +0.000 A 
ATOM     21  C   UNL     1       2.947   3.114  19.974  0.00  0.00    +0.000 A 
ATOM     22  C   UNL     1       2.239   3.649  21.041  0.00  0.00    +0.000 A 
ATOM     23  C   UNL     1       1.900   5.008  21.042  0.00  0.00    +0.000 A 
ATOM     24  C   UNL     1       2.259   5.868  19.981  0.00  0.00    +0.000 A 
ENDBRANCH  14  15
ENDBRANCH  12  14
ENDBRANCH   1  11
BRANCH   3  25
ATOM     25  C   UNL     1       1.451  14.234  19.025  0.00  0.00    +0.000 C 
BRANCH  25  26
ATOM     26  C   UNL     1       2.635  13.583  18.315  0.00  0.00    +0.000 C 
BRANCH  26  27
ATOM     27  O   UNL     1       2.216  12.587  17.387  0.00  0.00    +0.000 OA
ATOM     28  H   UNL     1       1.827  13.055  16.625  0.00  0.00    +0.000 HD
ENDBRANCH  26  27
ENDBRANCH  25  26
ENDBRANCH   3  25
BRANCH   7  29
ATOM     29  C   UNL     1      -3.099  13.943  22.001  0.00  0.00    +0.000 C 
BRANCH  29  30
ATOM     30  C   UNL     1      -4.454  13.725  22.628  0.00  0.00    +0.000 A 
ATOM     31  C   UNL     1      -4.860  14.119  23.892  0.00  0.00    +0.000 A 
ATOM     32  N   UNL     1      -6.115  13.626  24.125  0.00  0.00    +0.000 N 
ATOM     33  C   UNL     1      -6.542  12.881  23.051  0.00  0.00    +0.000 A 
ATOM     34  C   UNL     1      -7.714  12.130  22.882  0.00  0.00    +0.000 A 
ATOM     35  C   UNL     1      -7.889  11.460  21.667  0.00  0.00    +0.000 A 
ATOM     36  C   UNL     1      -6.947  11.573  20.650  0.00  0.00    +0.000 A 
ATOM     37  C   UNL     1      -5.781  12.325  20.839  0.00  0.00    +0.000 A 
ATOM     38  C   UNL     1      -5.551  12.974  22.071  0.00  0.00    +0.000 A 
ATOM     39  H   UNL     1      -6.643  13.752  24.977  0.00  0.00    +0.000 HD
ENDBRANCH  29  30
ENDBRANCH   7  29
TORSDOF 8
ENDMDL
MODEL 6
REMARK VINA RESULT:      -8.6      1.458      1.713
REMARK  Name = 
REMARK  8 active torsions:
REMARK  status: ('A' for Active; 'I' for Inactive)
REMARK    1  A    between atoms: C_2  and  C_15
REMARK    2  A    between atoms: N_3  and  C_4
REMARK    3  A    between atoms: C_4  and  C_5
REMARK    4  A    between atoms: N_17  and  C_18
REMARK    5  A    between atoms: C_18  and  C_19
REMARK    6  A    between atoms: C_19  and  O_20
REMARK    7  A    between atoms: N_24  and  C_25
REMARK    8  A    between atoms: C_25  and  C_26
REMARK                            x       y       z     vdW  Elec       q    Type
REMARK                         _______ _______ _______ _____ _____    ______ ____
ROOT
ATOM      1  C   UNL     1       0.635  11.026  21.127  0.00  0.00    +0.000 A 
ATOM      2  N   UNL     1       1.285  11.553  20.059  0.00  0.00    +0.000 NA
ATOM      3  N   UNL     1       0.727  12.777  19.893  0.00  0.00    +0.000 N 
ATOM      4  C   UNL     1      -0.180  13.072  20.859  0.00  0.00    +0.000 A 
ATOM      5  C   UNL     1      -0.358  11.930  21.608  0.00  0.00    +0.000 A 
ATOM      6  C   UNL     1      -1.358  11.832  22.723  0.00  0.00    +0.000 C 
ATOM      7  N   UNL     1      -2.361  12.949  22.655  0.00  0.00    +0.000 NA
ATOM      8  C   UNL     1      -1.672  14.245  22.426  0.00  0.00    +0.000 C 
ATOM      9  C   UNL     1      -0.912  14.348  21.078  0.00  0.00    +0.000 C 
ENDROOT
BRANCH   1  11
ATOM     10  O   UNL     1       1.313   9.540  22.854  0.00  0.00    +0.000 OA
ATOM     11  C   UNL     1       0.986   9.699  21.680  0.00  0.00    +0.000 C 
ATOM     12  N   UNL     1       0.941   8.665  20.764  0.00  0.00    +0.000 N 
ATOM     13  H   UNL     1       0.786   8.937  19.798  0.00  0.00    +0.000 HD
BRANCH  12  14
ATOM     14  C   UNL     1       1.402   7.334  21.081  0.00  0.00    +0.000 C 
BRANCH  14  15
ATOM     15  C   UNL     1       2.014   6.627  19.889  0.00  0.00    +0.000 A 
ATOM     16  C   UNL     1       2.752   7.396  18.967  0.00  0.00    +0.000 A 
ATOM     17  C   UNL     1       3.370   6.800  17.871  0.00  0.00    +0.000 A 
ATOM     18  C   UNL     1       3.256   5.428  17.672  0.00  0.00    +0.000 A 
ATOM     19  C   UNL     1       2.524   4.634  18.561  0.00  0.00    +0.000 A 
ATOM     20  C   UNL     1       2.427   3.249  18.343  0.00  0.00    +0.000 A 
ATOM     21  C   UNL     1       1.708   2.431  19.214  0.00  0.00    +0.000 A 
ATOM     22  C   UNL     1       1.073   2.990  20.314  0.00  0.00    +0.000 A 
ATOM     23  C   UNL     1       1.164   4.369  20.545  0.00  0.00    +0.000 A 
ATOM     24  C   UNL     1       1.890   5.224  19.688  0.00  0.00    +0.000 A 
ENDBRANCH  14  15
ENDBRANCH  12  14
ENDBRANCH   1  11
BRANCH   3  25
ATOM     25  C   UNL     1       1.143  13.629  18.792  0.00  0.00    +0.000 C 
BRANCH  25  26
ATOM     26  C   UNL     1       2.545  13.304  18.289  0.00  0.00    +0.000 C 
BRANCH  26  27
ATOM     27  O   UNL     1       2.555  12.160  17.439  0.00  0.00    +0.000 OA
ATOM     28  H   UNL     1       2.460  11.378  18.015  0.00  0.00    +0.000 HD
ENDBRANCH  26  27
ENDBRANCH  25  26
ENDBRANCH   3  25
BRANCH   7  29
ATOM     29  C   UNL     1      -3.394  12.656  21.642  0.00  0.00    +0.000 C 
BRANCH  29  30
ATOM     30  C   UNL     1      -4.528  13.652  21.638  0.00  0.00    +0.000 A 
ATOM     31  C   UNL     1      -4.632  14.791  20.858  0.00  0.00    +0.000 A 
ATOM     32  N   UNL     1      -5.748  15.485  21.241  0.00  0.00    +0.000 N 
ATOM     33  C   UNL     1      -6.373  14.846  22.286  0.00  0.00    +0.000 A 
ATOM     34  C   UNL     1      -7.489  15.232  23.042  0.00  0.00    +0.000 A 
ATOM     35  C   UNL     1      -7.912  14.374  24.062  0.00  0.00    +0.000 A 
ATOM     36  C   UNL     1      -7.266  13.163  24.288  0.00  0.00    +0.000 A 
ATOM     37  C   UNL     1      -6.150  12.798  23.524  0.00  0.00    +0.000 A 
ATOM     38  C   UNL     1      -5.669  13.663  22.518  0.00  0.00    +0.000 A 
ATOM     39  H   UNL     1      -6.053  16.363  20.845  0.00  0.00    +0.000 HD
ENDBRANCH  29  30
ENDBRANCH   7  29
TORSDOF 8
ENDMDL
MODEL 7
REMARK VINA RESULT:      -8.6      3.638     11.479
REMARK  Name = 
REMARK  8 active torsions:
REMARK  status: ('A' for Active; 'I' for Inactive)
REMARK    1  A    between atoms: C_2  and  C_15
REMARK    2  A    between atoms: N_3  and  C_4
REMARK    3  A    between atoms: C_4  and  C_5
REMARK    4  A    between atoms: N_17  and  C_18
REMARK    5  A    between atoms: C_18  and  C_19
REMARK    6  A    between atoms: C_19  and  O_20
REMARK    7  A    between atoms: N_24  and  C_25
REMARK    8  A    between atoms: C_25  and  C_26
REMARK                            x       y       z     vdW  Elec       q    Type
REMARK                         _______ _______ _______ _____ _____    ______ ____
ROOT
ATOM      1  C   UNL     1       2.149   6.536  19.706  0.00  0.00    +0.000 A 
ATOM      2  N   UNL     1       1.202   5.634  20.067  0.00  0.00    +0.000 NA
ATOM      3  N   UNL     1       1.775   4.429  19.833  0.00  0.00    +0.000 N 
ATOM      4  C   UNL     1       3.066   4.535  19.425  0.00  0.00    +0.000 A 
ATOM      5  C   UNL     1       3.314   5.874  19.217  0.00  0.00    +0.000 A 
ATOM      6  C   UNL     1       4.614   6.389  18.671  0.00  0.00    +0.000 C 
ATOM      7  N   UNL     1       5.415   5.284  18.041  0.00  0.00    +0.000 NA
ATOM      8  C   UNL     1       5.435   4.093  18.929  0.00  0.00    +0.000 C 
ATOM      9  C   UNL     1       4.048   3.446  19.180  0.00  0.00    +0.000 C 
ENDROOT
BRANCH   1  11
ATOM     10  O   UNL     1       1.715   8.516  20.948  0.00  0.00    +0.000 OA
ATOM     11  C   UNL     1       1.940   7.993  19.859  0.00  0.00    +0.000 C 
ATOM     12  N   UNL     1       1.995   8.708  18.678  0.00  0.00    +0.000 N 
ATOM     13  H   UNL     1       2.058   8.154  17.829  0.00  0.00    +0.000 HD
BRANCH  12  14
ATOM     14  C   UNL     1       1.660  10.111  18.609  0.00  0.00    +0.000 C 
BRANCH  14  15
ATOM     15  C   UNL     1       0.169  10.351  18.483  0.00  0.00    +0.000 A 
ATOM     16  C   UNL     1      -0.535   9.648  17.486  0.00  0.00    +0.000 A 
ATOM     17  C   UNL     1      -1.912   9.797  17.343  0.00  0.00    +0.000 A 
ATOM     18  C   UNL     1      -2.608  10.656  18.187  0.00  0.00    +0.000 A 
ATOM     19  C   UNL     1      -1.940  11.378  19.182  0.00  0.00    +0.000 A 
ATOM     20  C   UNL     1      -2.665  12.236  20.027  0.00  0.00    +0.000 A 
ATOM     21  C   UNL     1      -2.028  12.966  21.030  0.00  0.00    +0.000 A 
ATOM     22  C   UNL     1      -0.656  12.848  21.200  0.00  0.00    +0.000 A 
ATOM     23  C   UNL     1       0.078  11.994  20.366  0.00  0.00    +0.000 A 
ATOM     24  C   UNL     1      -0.536  11.235  19.346  0.00  0.00    +0.000 A 
ENDBRANCH  14  15
ENDBRANCH  12  14
ENDBRANCH   1  11
BRANCH   3  25
ATOM     25  C   UNL     1       1.026   3.205  20.058  0.00  0.00    +0.000 C 
BRANCH  25  26
ATOM     26  C   UNL     1       1.473   2.458  21.311  0.00  0.00    +0.000 C 
BRANCH  26  27
ATOM     27  O   UNL     1       2.070   3.331  22.266  0.00  0.00    +0.000 OA
ATOM     28  H   UNL     1       1.416   3.461  22.979  0.00  0.00    +0.000 HD
ENDBRANCH  26  27
ENDBRANCH  25  26
ENDBRANCH   3  25
BRANCH   7  29
ATOM     29  C   UNL     1       4.911   4.988  16.686  0.00  0.00    +0.000 C 
BRANCH  29  30
ATOM     30  C   UNL     1       5.995   4.966  15.635  0.00  0.00    +0.000 A 
ATOM     31  C   UNL     1       7.217   5.615  15.687  0.00  0.00    +0.000 A 
ATOM     32  N   UNL     1       7.857   5.443  14.489  0.00  0.00    +0.000 N 
ATOM     33  C   UNL     1       7.069   4.719  13.626  0.00  0.00    +0.000 A 
ATOM     34  C   UNL     1       7.279   4.376  12.283  0.00  0.00    +0.000 A 
ATOM     35  C   UNL     1       6.292   3.621  11.641  0.00  0.00    +0.000 A 
ATOM     36  C   UNL     1       5.161   3.195  12.330  0.00  0.00    +0.000 A 
ATOM     37  C   UNL     1       4.968   3.551  13.671  0.00  0.00    +0.000 A 
ATOM     38  C   UNL     1       5.922   4.351  14.334  0.00  0.00    +0.000 A 
ATOM     39  H   UNL     1       8.761   5.825  14.250  0.00  0.00    +0.000 HD
ENDBRANCH  29  30
ENDBRANCH   7  29
TORSDOF 8
ENDMDL
MODEL 8
REMARK VINA RESULT:      -8.5      1.942      2.222
REMARK  Name = 
REMARK  8 active torsions:
REMARK  status: ('A' for Active; 'I' for Inactive)
REMARK    1  A    between atoms: C_2  and  C_15
REMARK    2  A    between atoms: N_3  and  C_4
REMARK    3  A    between atoms: C_4  and  C_5
REMARK    4  A    between atoms: N_17  and  C_18
REMARK    5  A    between atoms: C_18  and  C_19
REMARK    6  A    between atoms: C_19  and  O_20
REMARK    7  A    between atoms: N_24  and  C_25
REMARK    8  A    between atoms: C_25  and  C_26
REMARK                            x       y       z     vdW  Elec       q    Type
REMARK                         _______ _______ _______ _____ _____    ______ ____
ROOT
ATOM      1  C   UNL     1      -0.435  10.056  20.518  0.00  0.00    +0.000 A 
ATOM      2  N   UNL     1      -0.765  10.129  19.204  0.00  0.00    +0.000 NA
ATOM      3  N   UNL     1      -1.374  11.332  19.073  0.00  0.00    +0.000 N 
ATOM      4  C   UNL     1      -1.362  12.051  20.225  0.00  0.00    +0.000 A 
ATOM      5  C   UNL     1      -0.872  11.224  21.211  0.00  0.00    +0.000 A 
ATOM      6  C   UNL     1      -0.791  11.631  22.654  0.00  0.00    +0.000 C 
ATOM      7  N   UNL     1      -1.637  12.843  22.926  0.00  0.00    +0.000 NA
ATOM      8  C   UNL     1      -1.413  13.873  21.879  0.00  0.00    +0.000 C 
ATOM      9  C   UNL     1      -1.828  13.445  20.447  0.00  0.00    +0.000 C 
ENDROOT
BRANCH   1  11
ATOM     10  O   UNL     1       0.146   8.513  22.230  0.00  0.00    +0.000 OA
ATOM     11  C   UNL     1       0.307   8.904  21.076  0.00  0.00    +0.000 C 
ATOM     12  N   UNL     1       1.209   8.325  20.204  0.00  0.00    +0.000 N 
ATOM     13  H   UNL     1       1.349   8.813  19.325  0.00  0.00    +0.000 HD
BRANCH  12  14
ATOM     14  C   UNL     1       2.131   7.295  20.621  0.00  0.00    +0.000 C 
BRANCH  14  15
ATOM     15  C   UNL     1       2.530   6.373  19.486  0.00  0.00    +0.000 A 
ATOM     16  C   UNL     1       3.358   6.889  18.470  0.00  0.00    +0.000 A 
ATOM     17  C   UNL     1       3.789   6.083  17.420  0.00  0.00    +0.000 A 
ATOM     18  C   UNL     1       3.395   4.750  17.362  0.00  0.00    +0.000 A 
ATOM     19  C   UNL     1       2.565   4.206  18.348  0.00  0.00    +0.000 A 
ATOM     20  C   UNL     1       2.184   2.855  18.273  0.00  0.00    +0.000 A 
ATOM     21  C   UNL     1       1.361   2.283  19.242  0.00  0.00    +0.000 A 
ATOM     22  C   UNL     1       0.907   3.057  20.301  0.00  0.00    +0.000 A 
ATOM     23  C   UNL     1       1.281   4.404  20.391  0.00  0.00    +0.000 A 
ATOM     24  C   UNL     1       2.119   5.012  19.430  0.00  0.00    +0.000 A 
ENDBRANCH  14  15
ENDBRANCH  12  14
ENDBRANCH   1  11
BRANCH   3  25
ATOM     25  C   UNL     1      -1.919  11.743  17.791  0.00  0.00    +0.000 C 
BRANCH  25  26
ATOM     26  C   UNL     1      -2.284  10.562  16.897  0.00  0.00    +0.000 C 
BRANCH  26  27
ATOM     27  O   UNL     1      -3.189   9.667  17.539  0.00  0.00    +0.000 OA
ATOM     28  H   UNL     1      -3.112   9.826  18.498  0.00  0.00    +0.000 HD
ENDBRANCH  26  27
ENDBRANCH  25  26
ENDBRANCH   3  25
BRANCH   7  29
ATOM     29  C   UNL     1      -3.056  12.461  23.067  0.00  0.00    +0.000 C 
BRANCH  29  30
ATOM     30  C   UNL     1      -3.952  13.614  23.449  0.00  0.00    +0.000 A 
ATOM     31  C   UNL     1      -3.740  14.533  24.463  0.00  0.00    +0.000 A 
ATOM     32  N   UNL     1      -4.840  15.341  24.561  0.00  0.00    +0.000 N 
ATOM     33  C   UNL     1      -5.798  14.956  23.653  0.00  0.00    +0.000 A 
ATOM     34  C   UNL     1      -7.100  15.439  23.455  0.00  0.00    +0.000 A 
ATOM     35  C   UNL     1      -7.865  14.851  22.443  0.00  0.00    +0.000 A 
ATOM     36  C   UNL     1      -7.332  13.848  21.638  0.00  0.00    +0.000 A 
ATOM     37  C   UNL     1      -6.031  13.378  21.854  0.00  0.00    +0.000 A 
ATOM     38  C   UNL     1      -5.249  13.917  22.898  0.00  0.00    +0.000 A 
ATOM     39  H   UNL     1      -4.957  16.089  25.230  0.00  0.00    +0.000 HD
ENDBRANCH  29  30
ENDBRANCH   7  29
TORSDOF 8
ENDMDL
MODEL 9
REMARK VINA RESULT:      -8.5      3.919     11.700
REMARK  Name = 
REMARK  8 active torsions:
REMARK  status: ('A' for Active; 'I' for Inactive)
REMARK    1  A    between atoms: C_2  and  C_15
REMARK    2  A    between atoms: N_3  and  C_4
REMARK    3  A    between atoms: C_4  and  C_5
REMARK    4  A    between atoms: N_17  and  C_18
REMARK    5  A    between atoms: C_18  and  C_19
REMARK    6  A    between atoms: C_19  and  O_20
REMARK    7  A    between atoms: N_24  and  C_25
REMARK    8  A    between atoms: C_25  and  C_26
REMARK                            x       y       z     vdW  Elec       q    Type
REMARK                         _______ _______ _______ _____ _____    ______ ____
ROOT
ATOM      1  C   UNL     1       2.406   6.836  18.796  0.00  0.00    +0.000 A 
ATOM      2  N   UNL     1       1.511   6.033  19.425  0.00  0.00    +0.000 NA
ATOM      3  N   UNL     1       2.191   4.884  19.658  0.00  0.00    +0.000 N 
ATOM      4  C   UNL     1       3.492   4.962  19.280  0.00  0.00    +0.000 A 
ATOM      5  C   UNL     1       3.648   6.157  18.614  0.00  0.00    +0.000 A 
ATOM      6  C   UNL     1       4.936   6.568  17.962  0.00  0.00    +0.000 C 
ATOM      7  N   UNL     1       5.860   5.395  17.795  0.00  0.00    +0.000 NA
ATOM      8  C   UNL     1       5.916   4.602  19.051  0.00  0.00    +0.000 C 
ATOM      9  C   UNL     1       4.571   3.957  19.473  0.00  0.00    +0.000 C 
ENDROOT
BRANCH   1  11
ATOM     10  O   UNL     1       2.483   8.734  17.368  0.00  0.00    +0.000 OA
ATOM     11  C   UNL     1       2.075   8.225  18.410  0.00  0.00    +0.000 C 
ATOM     12  N   UNL     1       1.294   8.905  19.325  0.00  0.00    +0.000 N 
ATOM     13  H   UNL     1       1.127   8.426  20.205  0.00  0.00    +0.000 HD
BRANCH  12  14
ATOM     14  C   UNL     1       1.004  10.314  19.194  0.00  0.00    +0.000 C 
BRANCH  14  15
ATOM     15  C   UNL     1      -0.430  10.579  18.782  0.00  0.00    +0.000 A 
ATOM     16  C   UNL     1      -0.930   9.912  17.646  0.00  0.00    +0.000 A 
ATOM     17  C   UNL     1      -2.250  10.086  17.238  0.00  0.00    +0.000 A 
ATOM     18  C   UNL     1      -3.091  10.932  17.952  0.00  0.00    +0.000 A 
ATOM     19  C   UNL     1      -2.627  11.618  19.079  0.00  0.00    +0.000 A 
ATOM     20  C   UNL     1      -3.496  12.465  19.790  0.00  0.00    +0.000 A 
ATOM     21  C   UNL     1      -3.064  13.158  20.919  0.00  0.00    +0.000 A 
ATOM     22  C   UNL     1      -1.754  13.015  21.353  0.00  0.00    +0.000 A 
ATOM     23  C   UNL     1      -0.877  12.173  20.657  0.00  0.00    +0.000 A 
ATOM     24  C   UNL     1      -1.284  11.450  19.514  0.00  0.00    +0.000 A 
ENDBRANCH  14  15
ENDBRANCH  12  14
ENDBRANCH   1  11
BRANCH   3  25
ATOM     25  C   UNL     1       1.527   3.753  20.282  0.00  0.00    +0.000 C 
BRANCH  25  26
ATOM     26  C   UNL     1       1.077   2.700  19.275  0.00  0.00    +0.000 C 
BRANCH  26  27
ATOM     27  O   UNL     1       0.924   3.245  17.967  0.00  0.00    +0.000 OA
ATOM     28  H   UNL     1       1.212   2.557  17.338  0.00  0.00    +0.000 HD
ENDBRANCH  26  27
ENDBRANCH  25  26
ENDBRANCH   3  25
BRANCH   7  29
ATOM     29  C   UNL     1       5.469   4.591  16.621  0.00  0.00    +0.000 C 
BRANCH  29  30
ATOM     30  C   UNL     1       6.409   4.743  15.450  0.00  0.00    +0.000 A 
ATOM     31  C   UNL     1       7.569   5.498  15.407  0.00  0.00    +0.000 A 
ATOM     32  N   UNL     1       8.065   5.469  14.132  0.00  0.00    +0.000 N 
ATOM     33  C   UNL     1       7.238   4.736  13.314  0.00  0.00    +0.000 A 
ATOM     34  C   UNL     1       7.305   4.509  11.932  0.00  0.00    +0.000 A 
ATOM     35  C   UNL     1       6.312   3.712  11.354  0.00  0.00    +0.000 A 
ATOM     36  C   UNL     1       5.316   3.135  12.137  0.00  0.00    +0.000 A 
ATOM     37  C   UNL     1       5.265   3.377  13.515  0.00  0.00    +0.000 A 
ATOM     38  C   UNL     1       6.224   4.216  14.121  0.00  0.00    +0.000 A 
ATOM     39  H   UNL     1       8.897   5.949  13.818  0.00  0.00    +0.000 HD
ENDBRANCH  29  30
ENDBRANCH   7  29
TORSDOF 8
ENDMDL
