MODEL 1
REMARK VINA RESULT:      -5.7      0.000      0.000
REMARK  Name = 
REMARK  4 active torsions:
REMARK  status: ('A' for Active; 'I' for Inactive)
REMARK    1  A    between atoms: C_1  and  O_2
REMARK    2  A    between atoms: O_2  and  C_3
REMARK    3  A    between atoms: C_3  and  C_5
REMARK    4  A    between atoms: C_13  and  C_14
REMARK                            x       y       z     vdW  Elec       q    Type
REMARK                         _______ _______ _______ _____ _____    ______ ____
ROOT
ATOM      1  C   UNL     1       4.442   4.571  18.026  0.00  0.00    +0.000 A 
ATOM      2  C   UNL     1       5.286   4.603  16.978  0.00  0.00    +0.000 A 
ATOM      3  C   UNL     1       5.423   5.822  16.150  0.00  0.00    +0.000 A 
ATOM      4  O   UNL     1       6.218   5.804  15.216  0.00  0.00    +0.000 OA
ATOM      5  N   UNL     1       4.646   6.906  16.461  0.00  0.00    +0.000 NA
ATOM      6  C   UNL     1       3.864   6.792  17.475  0.00  0.00    +0.000 A 
ATOM      7  S   UNL     1       2.841   8.156  17.948  0.00  0.00    +0.000 S 
ATOM      8  C   UNL     1       2.231   7.243  19.292  0.00  0.00    +0.000 A 
ATOM      9  C   UNL     1       2.751   5.999  19.359  0.00  0.00    +0.000 A 
ATOM     10  C   UNL     1       2.353   5.093  20.476  0.00  0.00    +0.000 C 
ATOM     11  N   UNL     1       3.675   5.703  18.329  0.00  0.00    +0.000 N 
ENDROOT
BRANCH   1  12
ATOM     12  C   UNL     1       4.340   3.252  18.727  0.00  0.00    +0.000 C 
ATOM     13  O   UNL     1       4.923   2.958  19.756  0.00  0.00    +0.000 OA
BRANCH  12  15
ATOM     14  C   UNL     1       2.428   1.899  18.910  0.00  0.00    +0.000 C 
ATOM     15  O   UNL     1       3.476   2.417  18.084  0.00  0.00    +0.000 OA
ENDBRANCH  12  15
ENDBRANCH   1  12
TORSDOF 2
ENDMDL
MODEL 2
REMARK VINA RESULT:      -5.6      0.594      1.090
REMARK  Name = 
REMARK  4 active torsions:
REMARK  status: ('A' for Active; 'I' for Inactive)
REMARK    1  A    between atoms: C_1  and  O_2
REMARK    2  A    between atoms: O_2  and  C_3
REMARK    3  A    between atoms: C_3  and  C_5
REMARK    4  A    between atoms: C_13  and  C_14
REMARK                            x       y       z     vdW  Elec       q    Type
REMARK                         _______ _______ _______ _____ _____    ______ ____
ROOT
ATOM      1  C   UNL     1       4.313   4.468  17.882  0.00  0.00    +0.000 A 
ATOM      2  C   UNL     1       5.175   4.510  16.849  0.00  0.00    +0.000 A 
ATOM      3  C   UNL     1       5.382   5.761  16.084  0.00  0.00    +0.000 A 
ATOM      4  O   UNL     1       6.189   5.750  15.161  0.00  0.00    +0.000 OA
ATOM      5  N   UNL     1       4.652   6.864  16.437  0.00  0.00    +0.000 NA
ATOM      6  C   UNL     1       3.848   6.738  17.433  0.00  0.00    +0.000 A 
ATOM      7  S   UNL     1       2.883   8.125  17.958  0.00  0.00    +0.000 S 
ATOM      8  C   UNL     1       2.209   7.178  19.248  0.00  0.00    +0.000 A 
ATOM      9  C   UNL     1       2.669   5.909  19.261  0.00  0.00    +0.000 A 
ATOM     10  C   UNL     1       2.211   4.969  20.326  0.00  0.00    +0.000 C 
ATOM     11  N   UNL     1       3.595   5.619  18.231  0.00  0.00    +0.000 N 
ENDROOT
BRANCH   1  12
ATOM     12  C   UNL     1       4.138   3.123  18.516  0.00  0.00    +0.000 C 
ATOM     13  O   UNL     1       3.366   2.262  18.132  0.00  0.00    +0.000 OA
BRANCH  12  15
ATOM     14  C   UNL     1       4.549   2.000  20.539  0.00  0.00    +0.000 C 
ATOM     15  O   UNL     1       4.985   2.961  19.572  0.00  0.00    +0.000 OA
ENDBRANCH  12  15
ENDBRANCH   1  12
TORSDOF 2
ENDMDL
MODEL 3
REMARK VINA RESULT:      -5.5      2.869      3.903
REMARK  Name = 
REMARK  4 active torsions:
REMARK  status: ('A' for Active; 'I' for Inactive)
REMARK    1  A    between atoms: C_1  and  O_2
REMARK    2  A    between atoms: O_2  and  C_3
REMARK    3  A    between atoms: C_3  and  C_5
REMARK    4  A    between atoms: C_13  and  C_14
REMARK                            x       y       z     vdW  Elec       q    Type
REMARK                         _______ _______ _______ _____ _____    ______ ____
ROOT
ATOM      1  C   UNL     1       2.394   4.668  20.443  0.00  0.00    +0.000 A 
ATOM      2  C   UNL     1       1.721   5.823  20.604  0.00  0.00    +0.000 A 
ATOM      3  C   UNL     1       2.158   7.059  19.916  0.00  0.00    +0.000 A 
ATOM      4  O   UNL     1       1.500   8.081  20.084  0.00  0.00    +0.000 OA
ATOM      5  N   UNL     1       3.281   7.002  19.134  0.00  0.00    +0.000 NA
ATOM      6  C   UNL     1       3.867   5.862  19.036  0.00  0.00    +0.000 A 
ATOM      7  S   UNL     1       5.315   5.707  18.032  0.00  0.00    +0.000 S 
ATOM      8  C   UNL     1       5.394   4.010  18.392  0.00  0.00    +0.000 A 
ATOM      9  C   UNL     1       4.410   3.606  19.223  0.00  0.00    +0.000 A 
ATOM     10  C   UNL     1       4.315   2.168  19.609  0.00  0.00    +0.000 C 
ATOM     11  N   UNL     1       3.529   4.639  19.622  0.00  0.00    +0.000 N 
ENDROOT
BRANCH   1  12
ATOM     12  C   UNL     1       1.896   3.516  21.259  0.00  0.00    +0.000 C 
ATOM     13  O   UNL     1       2.443   3.074  22.255  0.00  0.00    +0.000 OA
BRANCH  12  15
ATOM     14  C   UNL     1       0.790   2.565  19.418  0.00  0.00    +0.000 C 
ATOM     15  O   UNL     1       0.719   3.036  20.768  0.00  0.00    +0.000 OA
ENDBRANCH  12  15
ENDBRANCH   1  12
TORSDOF 2
ENDMDL
MODEL 4
REMARK VINA RESULT:      -5.5      1.950      4.111
REMARK  Name = 
REMARK  4 active torsions:
REMARK  status: ('A' for Active; 'I' for Inactive)
REMARK    1  A    between atoms: C_1  and  O_2
REMARK    2  A    between atoms: O_2  and  C_3
REMARK    3  A    between atoms: C_3  and  C_5
REMARK    4  A    between atoms: C_13  and  C_14
REMARK                            x       y       z     vdW  Elec       q    Type
REMARK                         _______ _______ _______ _____ _____    ______ ____
ROOT
ATOM      1  C   UNL     1       3.822   4.187  19.211  0.00  0.00    +0.000 A 
ATOM      2  C   UNL     1       3.545   3.179  20.059  0.00  0.00    +0.000 A 
ATOM      3  C   UNL     1       2.547   3.349  21.140  0.00  0.00    +0.000 A 
ATOM      4  O   UNL     1       2.320   2.394  21.876  0.00  0.00    +0.000 OA
ATOM      5  N   UNL     1       1.937   4.567  21.270  0.00  0.00    +0.000 NA
ATOM      6  C   UNL     1       2.261   5.477  20.422  0.00  0.00    +0.000 A 
ATOM      7  S   UNL     1       1.502   7.073  20.518  0.00  0.00    +0.000 S 
ATOM      8  C   UNL     1       2.385   7.587  19.115  0.00  0.00    +0.000 A 
ATOM      9  C   UNL     1       3.201   6.627  18.630  0.00  0.00    +0.000 A 
ATOM     10  C   UNL     1       4.011   6.897  17.406  0.00  0.00    +0.000 C 
ATOM     11  N   UNL     1       3.167   5.416  19.360  0.00  0.00    +0.000 N 
ENDROOT
BRANCH   1  12
ATOM     12  C   UNL     1       4.908   3.908  18.218  0.00  0.00    +0.000 C 
ATOM     13  O   UNL     1       4.734   3.483  17.089  0.00  0.00    +0.000 OA
BRANCH  12  15
ATOM     14  C   UNL     1       7.077   4.680  17.749  0.00  0.00    +0.000 C 
ATOM     15  O   UNL     1       6.133   4.226  18.724  0.00  0.00    +0.000 OA
ENDBRANCH  12  15
ENDBRANCH   1  12
TORSDOF 2
ENDMDL
MODEL 5
REMARK VINA RESULT:      -5.5      1.043      1.142
REMARK  Name = 
REMARK  4 active torsions:
REMARK  status: ('A' for Active; 'I' for Inactive)
REMARK    1  A    between atoms: C_1  and  O_2
REMARK    2  A    between atoms: O_2  and  C_3
REMARK    3  A    between atoms: C_3  and  C_5
REMARK    4  A    between atoms: C_13  and  C_14
REMARK                            x       y       z     vdW  Elec       q    Type
REMARK                         _______ _______ _______ _____ _____    ______ ____
ROOT
ATOM      1  C   UNL     1       4.127   4.010  18.698  0.00  0.00    +0.000 A 
ATOM      2  C   UNL     1       4.865   4.258  17.600  0.00  0.00    +0.000 A 
ATOM      3  C   UNL     1       4.833   5.587  16.948  0.00  0.00    +0.000 A 
ATOM      4  O   UNL     1       5.536   5.766  15.960  0.00  0.00    +0.000 OA
ATOM      5  N   UNL     1       4.010   6.546  17.475  0.00  0.00    +0.000 NA
ATOM      6  C   UNL     1       3.335   6.226  18.522  0.00  0.00    +0.000 A 
ATOM      7  S   UNL     1       2.262   7.419  19.268  0.00  0.00    +0.000 S 
ATOM      8  C   UNL     1       1.849   6.281  20.513  0.00  0.00    +0.000 A 
ATOM      9  C   UNL     1       2.465   5.089  20.357  0.00  0.00    +0.000 A 
ATOM     10  C   UNL     1       2.241   4.007  21.360  0.00  0.00    +0.000 C 
ATOM     11  N   UNL     1       3.309   5.019  19.223  0.00  0.00    +0.000 N 
ENDROOT
BRANCH   1  12
ATOM     12  C   UNL     1       4.189   2.603  19.208  0.00  0.00    +0.000 C 
ATOM     13  O   UNL     1       4.762   2.251  20.224  0.00  0.00    +0.000 OA
BRANCH  12  15
ATOM     14  C   UNL     1       2.066   1.830  18.564  0.00  0.00    +0.000 C 
ATOM     15  O   UNL     1       3.487   1.756  18.405  0.00  0.00    +0.000 OA
ENDBRANCH  12  15
ENDBRANCH   1  12
TORSDOF 2
ENDMDL
MODEL 6
REMARK VINA RESULT:      -5.5      2.312      3.418
REMARK  Name = 
REMARK  4 active torsions:
REMARK  status: ('A' for Active; 'I' for Inactive)
REMARK    1  A    between atoms: C_1  and  O_2
REMARK    2  A    between atoms: O_2  and  C_3
REMARK    3  A    between atoms: C_3  and  C_5
REMARK    4  A    between atoms: C_13  and  C_14
REMARK                            x       y       z     vdW  Elec       q    Type
REMARK                         _______ _______ _______ _____ _____    ______ ____
ROOT
ATOM      1  C   UNL     1       4.482   5.102  18.286  0.00  0.00    +0.000 A 
ATOM      2  C   UNL     1       4.274   6.341  17.802  0.00  0.00    +0.000 A 
ATOM      3  C   UNL     1       3.076   7.117  18.192  0.00  0.00    +0.000 A 
ATOM      4  O   UNL     1       2.942   8.248  17.735  0.00  0.00    +0.000 OA
ATOM      5  N   UNL     1       2.170   6.530  19.034  0.00  0.00    +0.000 NA
ATOM      6  C   UNL     1       2.441   5.343  19.448  0.00  0.00    +0.000 A 
ATOM      7  S   UNL     1       1.326   4.525  20.551  0.00  0.00    +0.000 S 
ATOM      8  C   UNL     1       2.390   3.155  20.625  0.00  0.00    +0.000 A 
ATOM      9  C   UNL     1       3.491   3.306  19.858  0.00  0.00    +0.000 A 
ATOM     10  C   UNL     1       4.524   2.230  19.832  0.00  0.00    +0.000 C 
ATOM     11  N   UNL     1       3.545   4.536  19.161  0.00  0.00    +0.000 N 
ENDROOT
BRANCH   1  12
ATOM     12  C   UNL     1       5.689   4.397  17.748  0.00  0.00    +0.000 C 
ATOM     13  O   UNL     1       6.783   4.373  18.284  0.00  0.00    +0.000 OA
BRANCH  12  15
ATOM     14  C   UNL     1       6.280   4.062  15.499  0.00  0.00    +0.000 C 
ATOM     15  O   UNL     1       5.402   3.747  16.585  0.00  0.00    +0.000 OA
ENDBRANCH  12  15
ENDBRANCH   1  12
TORSDOF 2
ENDMDL
MODEL 7
REMARK VINA RESULT:      -5.5      2.715      4.660
REMARK  Name = 
REMARK  4 active torsions:
REMARK  status: ('A' for Active; 'I' for Inactive)
REMARK    1  A    between atoms: C_1  and  O_2
REMARK    2  A    between atoms: O_2  and  C_3
REMARK    3  A    between atoms: C_3  and  C_5
REMARK    4  A    between atoms: C_13  and  C_14
REMARK                            x       y       z     vdW  Elec       q    Type
REMARK                         _______ _______ _______ _____ _____    ______ ____
ROOT
ATOM      1  C   UNL     1       4.288   6.374  17.294  0.00  0.00    +0.000 A 
ATOM      2  C   UNL     1       3.633   7.370  17.922  0.00  0.00    +0.000 A 
ATOM      3  C   UNL     1       2.541   7.076  18.877  0.00  0.00    +0.000 A 
ATOM      4  O   UNL     1       1.987   8.018  19.434  0.00  0.00    +0.000 OA
ATOM      5  N   UNL     1       2.196   5.767  19.082  0.00  0.00    +0.000 NA
ATOM      6  C   UNL     1       2.868   4.878  18.440  0.00  0.00    +0.000 A 
ATOM      7  S   UNL     1       2.489   3.164  18.665  0.00  0.00    +0.000 S 
ATOM      8  C   UNL     1       3.777   2.729  17.586  0.00  0.00    +0.000 A 
ATOM      9  C   UNL     1       4.425   3.802  17.085  0.00  0.00    +0.000 A 
ATOM     10  C   UNL     1       5.580   3.602  16.162  0.00  0.00    +0.000 C 
ATOM     11  N   UNL     1       3.922   5.045  17.539  0.00  0.00    +0.000 N 
ENDROOT
BRANCH   1  12
ATOM     12  C   UNL     1       5.313   6.812  16.294  0.00  0.00    +0.000 C 
ATOM     13  O   UNL     1       5.204   6.705  15.085  0.00  0.00    +0.000 OA
BRANCH  12  15
ATOM     14  C   UNL     1       7.304   6.457  17.490  0.00  0.00    +0.000 C 
ATOM     15  O   UNL     1       6.385   7.388  16.908  0.00  0.00    +0.000 OA
ENDBRANCH  12  15
ENDBRANCH   1  12
TORSDOF 2
ENDMDL
MODEL 8
REMARK VINA RESULT:      -5.4      2.802      4.015
REMARK  Name = 
REMARK  4 active torsions:
REMARK  status: ('A' for Active; 'I' for Inactive)
REMARK    1  A    between atoms: C_1  and  O_2
REMARK    2  A    between atoms: O_2  and  C_3
REMARK    3  A    between atoms: C_3  and  C_5
REMARK    4  A    between atoms: C_13  and  C_14
REMARK                            x       y       z     vdW  Elec       q    Type
REMARK                         _______ _______ _______ _____ _____    ______ ____
ROOT
ATOM      1  C   UNL     1       1.755   4.484  19.589  0.00  0.00    +0.000 A 
ATOM      2  C   UNL     1       1.450   5.637  20.214  0.00  0.00    +0.000 A 
ATOM      3  C   UNL     1       2.158   6.892  19.879  0.00  0.00    +0.000 A 
ATOM      4  O   UNL     1       1.832   7.918  20.467  0.00  0.00    +0.000 OA
ATOM      5  N   UNL     1       3.151   6.844  18.937  0.00  0.00    +0.000 NA
ATOM      6  C   UNL     1       3.382   5.703  18.390  0.00  0.00    +0.000 A 
ATOM      7  S   UNL     1       4.639   5.565  17.153  0.00  0.00    +0.000 S 
ATOM      8  C   UNL     1       4.266   3.882  16.950  0.00  0.00    +0.000 A 
ATOM      9  C   UNL     1       3.280   3.462  17.771  0.00  0.00    +0.000 A 
ATOM     10  C   UNL     1       2.817   2.045  17.701  0.00  0.00    +0.000 C 
ATOM     11  N   UNL     1       2.763   4.471  18.616  0.00  0.00    +0.000 N 
ENDROOT
BRANCH   1  12
ATOM     12  C   UNL     1       1.021   3.275  20.080  0.00  0.00    +0.000 C 
ATOM     13  O   UNL     1       0.251   2.604  19.415  0.00  0.00    +0.000 OA
BRANCH  12  15
ATOM     14  C   UNL     1       2.678   2.484  21.546  0.00  0.00    +0.000 C 
ATOM     15  O   UNL     1       1.350   2.989  21.371  0.00  0.00    +0.000 OA
ENDBRANCH  12  15
ENDBRANCH   1  12
TORSDOF 2
ENDMDL
MODEL 9
REMARK VINA RESULT:      -5.4      2.484      3.621
REMARK  Name = 
REMARK  4 active torsions:
REMARK  status: ('A' for Active; 'I' for Inactive)
REMARK    1  A    between atoms: C_1  and  O_2
REMARK    2  A    between atoms: O_2  and  C_3
REMARK    3  A    between atoms: C_3  and  C_5
REMARK    4  A    between atoms: C_13  and  C_14
REMARK                            x       y       z     vdW  Elec       q    Type
REMARK                         _______ _______ _______ _____ _____    ______ ____
ROOT
ATOM      1  C   UNL     1       4.666   5.192  18.854  0.00  0.00    +0.000 A 
ATOM      2  C   UNL     1       4.398   6.408  18.342  0.00  0.00    +0.000 A 
ATOM      3  C   UNL     1       3.009   6.805  18.017  0.00  0.00    +0.000 A 
ATOM      4  O   UNL     1       2.817   7.930  17.567  0.00  0.00    +0.000 OA
ATOM      5  N   UNL     1       2.010   5.892  18.224  0.00  0.00    +0.000 NA
ATOM      6  C   UNL     1       2.351   4.753  18.712  0.00  0.00    +0.000 A 
ATOM      7  S   UNL     1       1.113   3.528  19.022  0.00  0.00    +0.000 S 
ATOM      8  C   UNL     1       2.320   2.456  19.659  0.00  0.00    +0.000 A 
ATOM      9  C   UNL     1       3.562   2.984  19.619  0.00  0.00    +0.000 A 
ATOM     10  C   UNL     1       4.714   2.202  20.157  0.00  0.00    +0.000 C 
ATOM     11  N   UNL     1       3.618   4.287  19.071  0.00  0.00    +0.000 N 
ENDROOT
BRANCH   1  12
ATOM     12  C   UNL     1       6.118   4.889  19.060  0.00  0.00    +0.000 C 
ATOM     13  O   UNL     1       6.796   5.303  19.984  0.00  0.00    +0.000 OA
BRANCH  12  15
ATOM     14  C   UNL     1       7.482   4.670  17.160  0.00  0.00    +0.000 C 
ATOM     15  O   UNL     1       6.589   4.053  18.093  0.00  0.00    +0.000 OA
ENDBRANCH  12  15
ENDBRANCH   1  12
TORSDOF 2
ENDMDL
