MODEL 1
REMARK VINA RESULT:      -6.1      0.000      0.000
REMARK  Name = 
REMARK  8 active torsions:
REMARK  status: ('A' for Active; 'I' for Inactive)
REMARK    1  A    between atoms: N_1  and  C_2
REMARK    2  A    between atoms: C_2  and  C_3
REMARK    3  A    between atoms: N_5  and  C_6
REMARK    4  A    between atoms: C_8  and  C_9
REMARK    5  A    between atoms: C_9  and  O_10
REMARK    6  A    between atoms: C_11  and  O_12
REMARK    7  A    between atoms: C_13  and  O_14
REMARK    8  A    between atoms: C_15  and  O_16
REMARK                            x       y       z     vdW  Elec       q    Type
REMARK                         _______ _______ _______ _____ _____    ______ ____
ROOT
ATOM      1  C   UNL     1       4.870   6.416  16.987  0.00  0.00    +0.000 C 
ATOM      2  O   UNL     1       6.087   6.977  17.496  0.00  0.00    +0.000 OA
ATOM      3  C   UNL     1       7.080   6.079  18.010  0.00  0.00    +0.000 C 
ATOM      4  C   UNL     1       7.398   4.933  17.037  0.00  0.00    +0.000 C 
ATOM      5  C   UNL     1       6.112   4.287  16.505  0.00  0.00    +0.000 C 
ATOM      6  C   UNL     1       5.169   5.343  15.923  0.00  0.00    +0.000 C 
ENDROOT
BRANCH   1   9
ATOM      7  C   UNL     1       3.043   6.654  18.638  0.00  0.00    +0.000 C 
ATOM      8  O   UNL     1       2.683   7.765  18.268  0.00  0.00    +0.000 OA
ATOM      9  N   UNL     1       4.053   5.930  18.060  0.00  0.00    +0.000 N 
ATOM     10  H   UNL     1       4.129   4.978  18.413  0.00  0.00    +0.000 HD
BRANCH   7  11
ATOM     11  C   UNL     1       2.352   5.893  19.783  0.00  0.00    +0.000 C 
BRANCH  11  12
ATOM     12  N   UNL     1       1.920   6.833  20.853  0.00  0.00    +0.000 NA
ATOM     13  H   UNL     1       2.284   6.474  21.738  0.00  0.00    +0.000 HD
ATOM     14  H   UNL     1       0.905   6.732  20.938  0.00  0.00    +0.000 HD
ENDBRANCH  11  12
ENDBRANCH   7  11
ENDBRANCH   1   9
BRANCH   4  15
ATOM     15  O   UNL     1       8.228   3.958  17.677  0.00  0.00    +0.000 OA
ATOM     16  H   UNL     1       8.049   3.097  17.252  0.00  0.00    +0.000 HD
ENDBRANCH   4  15
BRANCH   5  17
ATOM     17  O   UNL     1       6.459   3.318  15.506  0.00  0.00    +0.000 OA
ATOM     18  H   UNL     1       5.621   2.876  15.258  0.00  0.00    +0.000 HD
ENDBRANCH   5  17
BRANCH   6  19
ATOM     19  O   UNL     1       5.796   5.905  14.753  0.00  0.00    +0.000 OA
ATOM     20  H   UNL     1       6.509   5.296  14.474  0.00  0.00    +0.000 HD
ENDBRANCH   6  19
BRANCH   3  21
ATOM     21  C   UNL     1       6.774   5.565  19.432  0.00  0.00    +0.000 C 
BRANCH  21  22
ATOM     22  O   UNL     1       7.935   5.474  20.250  0.00  0.00    +0.000 OA
ATOM     23  H   UNL     1       7.658   5.139  21.122  0.00  0.00    +0.000 HD
ENDBRANCH  21  22
ENDBRANCH   3  21
TORSDOF 8
ENDMDL
MODEL 2
REMARK VINA RESULT:      -6.0      2.545      2.839
REMARK  Name = 
REMARK  8 active torsions:
REMARK  status: ('A' for Active; 'I' for Inactive)
REMARK    1  A    between atoms: N_1  and  C_2
REMARK    2  A    between atoms: C_2  and  C_3
REMARK    3  A    between atoms: N_5  and  C_6
REMARK    4  A    between atoms: C_8  and  C_9
REMARK    5  A    between atoms: C_9  and  O_10
REMARK    6  A    between atoms: C_11  and  O_12
REMARK    7  A    between atoms: C_13  and  O_14
REMARK    8  A    between atoms: C_15  and  O_16
REMARK                            x       y       z     vdW  Elec       q    Type
REMARK                         _______ _______ _______ _____ _____    ______ ____
ROOT
ATOM      1  C   UNL     1       4.163   4.913  16.649  0.00  0.00    +0.000 C 
ATOM      2  O   UNL     1       4.306   5.837  17.737  0.00  0.00    +0.000 OA
ATOM      3  C   UNL     1       5.420   5.667  18.624  0.00  0.00    +0.000 C 
ATOM      4  C   UNL     1       6.754   5.528  17.875  0.00  0.00    +0.000 C 
ATOM      5  C   UNL     1       6.642   4.515  16.729  0.00  0.00    +0.000 C 
ATOM      6  C   UNL     1       5.459   4.848  15.818  0.00  0.00    +0.000 C 
ENDROOT
BRANCH   1   9
ATOM      7  C   UNL     1       2.450   3.334  17.484  0.00  0.00    +0.000 C 
ATOM      8  O   UNL     1       1.504   4.104  17.368  0.00  0.00    +0.000 OA
ATOM      9  N   UNL     1       3.741   3.630  17.132  0.00  0.00    +0.000 N 
ATOM     10  H   UNL     1       4.371   2.832  17.176  0.00  0.00    +0.000 HD
BRANCH   7  11
ATOM     11  C   UNL     1       2.293   1.891  17.991  0.00  0.00    +0.000 C 
BRANCH  11  12
ATOM     12  N   UNL     1       3.624   1.271  18.233  0.00  0.00    +0.000 NA
ATOM     13  H   UNL     1       3.532   0.270  18.042  0.00  0.00    +0.000 HD
ATOM     14  H   UNL     1       3.790   1.320  19.242  0.00  0.00    +0.000 HD
ENDBRANCH  11  12
ENDBRANCH   7  11
ENDBRANCH   1   9
BRANCH   4  15
ATOM     15  O   UNL     1       7.794   5.152  18.784  0.00  0.00    +0.000 OA
ATOM     16  H   UNL     1       8.122   4.275  18.507  0.00  0.00    +0.000 HD
ENDBRANCH   4  15
BRANCH   5  17
ATOM     17  O   UNL     1       7.867   4.521  15.983  0.00  0.00    +0.000 OA
ATOM     18  H   UNL     1       7.995   5.445  15.684  0.00  0.00    +0.000 HD
ENDBRANCH   5  17
BRANCH   6  19
ATOM     19  O   UNL     1       5.739   6.099  15.160  0.00  0.00    +0.000 OA
ATOM     20  H   UNL     1       5.934   6.763  15.852  0.00  0.00    +0.000 HD
ENDBRANCH   6  19
BRANCH   3  21
ATOM     21  C   UNL     1       5.218   4.545  19.663  0.00  0.00    +0.000 C 
BRANCH  21  22
ATOM     22  O   UNL     1       5.622   3.266  19.185  0.00  0.00    +0.000 OA
ATOM     23  H   UNL     1       6.312   2.930  19.785  0.00  0.00    +0.000 HD
ENDBRANCH  21  22
ENDBRANCH   3  21
TORSDOF 8
ENDMDL
MODEL 3
REMARK VINA RESULT:      -5.9      3.138      5.178
REMARK  Name = 
REMARK  8 active torsions:
REMARK  status: ('A' for Active; 'I' for Inactive)
REMARK    1  A    between atoms: N_1  and  C_2
REMARK    2  A    between atoms: C_2  and  C_3
REMARK    3  A    between atoms: N_5  and  C_6
REMARK    4  A    between atoms: C_8  and  C_9
REMARK    5  A    between atoms: C_9  and  O_10
REMARK    6  A    between atoms: C_11  and  O_12
REMARK    7  A    between atoms: C_13  and  O_14
REMARK    8  A    between atoms: C_15  and  O_16
REMARK                            x       y       z     vdW  Elec       q    Type
REMARK                         _______ _______ _______ _____ _____    ______ ____
ROOT
ATOM      1  C   UNL     1       4.788   3.887  19.648  0.00  0.00    +0.000 C 
ATOM      2  O   UNL     1       3.962   5.057  19.737  0.00  0.00    +0.000 OA
ATOM      3  C   UNL     1       2.929   5.229  18.757  0.00  0.00    +0.000 C 
ATOM      4  C   UNL     1       2.052   3.979  18.600  0.00  0.00    +0.000 C 
ATOM      5  C   UNL     1       2.909   2.714  18.462  0.00  0.00    +0.000 C 
ATOM      6  C   UNL     1       3.922   2.613  19.605  0.00  0.00    +0.000 C 
ENDROOT
BRANCH   1   9
ATOM      7  C   UNL     1       6.859   4.704  18.568  0.00  0.00    +0.000 C 
ATOM      8  O   UNL     1       7.298   5.276  19.558  0.00  0.00    +0.000 OA
ATOM      9  N   UNL     1       5.688   3.992  18.537  0.00  0.00    +0.000 N 
ATOM     10  H   UNL     1       5.544   3.477  17.671  0.00  0.00    +0.000 HD
BRANCH   7  11
ATOM     11  C   UNL     1       7.611   4.662  17.227  0.00  0.00    +0.000 C 
BRANCH  11  12
ATOM     12  N   UNL     1       7.302   5.869  16.413  0.00  0.00    +0.000 NA
ATOM     13  H   UNL     1       6.949   5.544  15.510  0.00  0.00    +0.000 HD
ATOM     14  H   UNL     1       8.199   6.308  16.190  0.00  0.00    +0.000 HD
ENDBRANCH  11  12
ENDBRANCH   7  11
ENDBRANCH   1   9
BRANCH   4  15
ATOM     15  O   UNL     1       1.181   4.125  17.473  0.00  0.00    +0.000 OA
ATOM     16  H   UNL     1       0.562   4.854  17.674  0.00  0.00    +0.000 HD
ENDBRANCH   4  15
BRANCH   5  17
ATOM     17  O   UNL     1       2.048   1.568  18.453  0.00  0.00    +0.000 OA
ATOM     18  H   UNL     1       1.134   1.919  18.407  0.00  0.00    +0.000 HD
ENDBRANCH   5  17
BRANCH   6  19
ATOM     19  O   UNL     1       3.193   2.417  20.833  0.00  0.00    +0.000 OA
ATOM     20  H   UNL     1       2.292   2.777  20.706  0.00  0.00    +0.000 HD
ENDBRANCH   6  19
BRANCH   3  21
ATOM     21  C   UNL     1       3.445   5.752  17.400  0.00  0.00    +0.000 C 
BRANCH  21  22
ATOM     22  O   UNL     1       4.454   6.746  17.536  0.00  0.00    +0.000 OA
ATOM     23  H   UNL     1       5.314   6.321  17.364  0.00  0.00    +0.000 HD
ENDBRANCH  21  22
ENDBRANCH   3  21
TORSDOF 8
ENDMDL
MODEL 4
REMARK VINA RESULT:      -5.9      2.693      3.145
REMARK  Name = 
REMARK  8 active torsions:
REMARK  status: ('A' for Active; 'I' for Inactive)
REMARK    1  A    between atoms: N_1  and  C_2
REMARK    2  A    between atoms: C_2  and  C_3
REMARK    3  A    between atoms: N_5  and  C_6
REMARK    4  A    between atoms: C_8  and  C_9
REMARK    5  A    between atoms: C_9  and  O_10
REMARK    6  A    between atoms: C_11  and  O_12
REMARK    7  A    between atoms: C_13  and  O_14
REMARK    8  A    between atoms: C_15  and  O_16
REMARK                            x       y       z     vdW  Elec       q    Type
REMARK                         _______ _______ _______ _____ _____    ______ ____
ROOT
ATOM      1  C   UNL     1       4.337   4.038  16.499  0.00  0.00    +0.000 C 
ATOM      2  O   UNL     1       4.073   5.319  17.087  0.00  0.00    +0.000 OA
ATOM      3  C   UNL     1       5.129   5.953  17.823  0.00  0.00    +0.000 C 
ATOM      4  C   UNL     1       6.449   5.998  17.040  0.00  0.00    +0.000 C 
ATOM      5  C   UNL     1       6.778   4.629  16.431  0.00  0.00    +0.000 C 
ATOM      6  C   UNL     1       5.598   4.095  15.615  0.00  0.00    +0.000 C 
ENDROOT
BRANCH   1   9
ATOM      7  C   UNL     1       3.332   2.281  17.922  0.00  0.00    +0.000 C 
ATOM      8  O   UNL     1       2.211   2.350  17.433  0.00  0.00    +0.000 OA
ATOM      9  N   UNL     1       4.407   3.025  17.512  0.00  0.00    +0.000 N 
ATOM     10  H   UNL     1       5.287   2.745  17.941  0.00  0.00    +0.000 HD
BRANCH   7  11
ATOM     11  C   UNL     1       3.693   1.287  19.039  0.00  0.00    +0.000 C 
BRANCH  11  12
ATOM     12  N   UNL     1       4.867   1.773  19.815  0.00  0.00    +0.000 NA
ATOM     13  H   UNL     1       4.801   2.793  19.858  0.00  0.00    +0.000 HD
ATOM     14  H   UNL     1       5.692   1.598  19.236  0.00  0.00    +0.000 HD
ENDBRANCH  11  12
ENDBRANCH   7  11
ENDBRANCH   1   9
BRANCH   4  15
ATOM     15  O   UNL     1       7.512   6.443  17.889  0.00  0.00    +0.000 OA
ATOM     16  H   UNL     1       7.165   6.471  18.802  0.00  0.00    +0.000 HD
ENDBRANCH   4  15
BRANCH   5  17
ATOM     17  O   UNL     1       7.943   4.757  15.604  0.00  0.00    +0.000 OA
ATOM     18  H   UNL     1       7.734   4.287  14.770  0.00  0.00    +0.000 HD
ENDBRANCH   5  17
BRANCH   6  19
ATOM     19  O   UNL     1       5.417   4.958  14.475  0.00  0.00    +0.000 OA
ATOM     20  H   UNL     1       5.939   4.588  13.735  0.00  0.00    +0.000 HD
ENDBRANCH   6  19
BRANCH   3  21
ATOM     21  C   UNL     1       5.316   5.388  19.247  0.00  0.00    +0.000 C 
BRANCH  21  22
ATOM     22  O   UNL     1       6.316   4.377  19.315  0.00  0.00    +0.000 OA
ATOM     23  H   UNL     1       6.320   4.024  20.223  0.00  0.00    +0.000 HD
ENDBRANCH  21  22
ENDBRANCH   3  21
TORSDOF 8
ENDMDL
MODEL 5
REMARK VINA RESULT:      -5.7      3.168      5.199
REMARK  Name = 
REMARK  8 active torsions:
REMARK  status: ('A' for Active; 'I' for Inactive)
REMARK    1  A    between atoms: N_1  and  C_2
REMARK    2  A    between atoms: C_2  and  C_3
REMARK    3  A    between atoms: N_5  and  C_6
REMARK    4  A    between atoms: C_8  and  C_9
REMARK    5  A    between atoms: C_9  and  O_10
REMARK    6  A    between atoms: C_11  and  O_12
REMARK    7  A    between atoms: C_13  and  O_14
REMARK    8  A    between atoms: C_15  and  O_16
REMARK                            x       y       z     vdW  Elec       q    Type
REMARK                         _______ _______ _______ _____ _____    ______ ____
ROOT
ATOM      1  C   UNL     1       3.432   3.347  17.438  0.00  0.00    +0.000 C 
ATOM      2  O   UNL     1       3.067   2.214  18.238  0.00  0.00    +0.000 OA
ATOM      3  C   UNL     1       3.009   2.384  19.661  0.00  0.00    +0.000 C 
ATOM      4  C   UNL     1       2.179   3.607  20.075  0.00  0.00    +0.000 C 
ATOM      5  C   UNL     1       2.575   4.846  19.263  0.00  0.00    +0.000 C 
ATOM      6  C   UNL     1       2.530   4.554  17.761  0.00  0.00    +0.000 C 
ENDROOT
BRANCH   1   9
ATOM      7  C   UNL     1       5.595   4.215  16.606  0.00  0.00    +0.000 C 
ATOM      8  O   UNL     1       5.165   4.606  15.527  0.00  0.00    +0.000 OA
ATOM      9  N   UNL     1       4.829   3.636  17.584  0.00  0.00    +0.000 N 
ATOM     10  H   UNL     1       5.325   3.492  18.461  0.00  0.00    +0.000 HD
BRANCH   7  11
ATOM     11  C   UNL     1       7.064   4.383  17.028  0.00  0.00    +0.000 C 
BRANCH  11  12
ATOM     12  N   UNL     1       7.190   4.363  18.511  0.00  0.00    +0.000 NA
ATOM     13  H   UNL     1       6.648   3.565  18.851  0.00  0.00    +0.000 HD
ATOM     14  H   UNL     1       6.681   5.180  18.858  0.00  0.00    +0.000 HD
ENDBRANCH  11  12
ENDBRANCH   7  11
ENDBRANCH   1   9
BRANCH   4  15
ATOM     15  O   UNL     1       2.327   3.852  21.478  0.00  0.00    +0.000 OA
ATOM     16  H   UNL     1       1.691   4.551  21.722  0.00  0.00    +0.000 HD
ENDBRANCH   4  15
BRANCH   5  17
ATOM     17  O   UNL     1       1.685   5.922  19.592  0.00  0.00    +0.000 OA
ATOM     18  H   UNL     1       1.476   6.367  18.744  0.00  0.00    +0.000 HD
ENDBRANCH   5  17
BRANCH   6  19
ATOM     19  O   UNL     1       1.156   4.312  17.395  0.00  0.00    +0.000 OA
ATOM     20  H   UNL     1       1.040   4.600  16.467  0.00  0.00    +0.000 HD
ENDBRANCH   6  19
BRANCH   3  21
ATOM     21  C   UNL     1       4.393   2.363  20.343  0.00  0.00    +0.000 C 
BRANCH  21  22
ATOM     22  O   UNL     1       5.228   1.311  19.871  0.00  0.00    +0.000 OA
ATOM     23  H   UNL     1       6.135   1.660  19.802  0.00  0.00    +0.000 HD
ENDBRANCH  21  22
ENDBRANCH   3  21
TORSDOF 8
ENDMDL
MODEL 6
REMARK VINA RESULT:      -5.7      2.810      5.025
REMARK  Name = 
REMARK  8 active torsions:
REMARK  status: ('A' for Active; 'I' for Inactive)
REMARK    1  A    between atoms: N_1  and  C_2
REMARK    2  A    between atoms: C_2  and  C_3
REMARK    3  A    between atoms: N_5  and  C_6
REMARK    4  A    between atoms: C_8  and  C_9
REMARK    5  A    between atoms: C_9  and  O_10
REMARK    6  A    between atoms: C_11  and  O_12
REMARK    7  A    between atoms: C_13  and  O_14
REMARK    8  A    between atoms: C_15  and  O_16
REMARK                            x       y       z     vdW  Elec       q    Type
REMARK                         _______ _______ _______ _____ _____    ______ ____
ROOT
ATOM      1  C   UNL     1       5.374   4.150  18.692  0.00  0.00    +0.000 C 
ATOM      2  O   UNL     1       4.680   5.090  19.524  0.00  0.00    +0.000 OA
ATOM      3  C   UNL     1       3.258   5.203  19.372  0.00  0.00    +0.000 C 
ATOM      4  C   UNL     1       2.550   3.842  19.415  0.00  0.00    +0.000 C 
ATOM      5  C   UNL     1       3.248   2.825  18.502  0.00  0.00    +0.000 C 
ATOM      6  C   UNL     1       4.744   2.749  18.812  0.00  0.00    +0.000 C 
ENDROOT
BRANCH   1   9
ATOM      7  C   UNL     1       6.597   4.775  16.634  0.00  0.00    +0.000 C 
ATOM      8  O   UNL     1       7.707   4.466  17.050  0.00  0.00    +0.000 OA
ATOM      9  N   UNL     1       5.432   4.625  17.340  0.00  0.00    +0.000 N 
ATOM     10  H   UNL     1       4.594   4.812  16.793  0.00  0.00    +0.000 HD
BRANCH   7  11
ATOM     11  C   UNL     1       6.362   5.325  15.217  0.00  0.00    +0.000 C 
BRANCH  11  12
ATOM     12  N   UNL     1       5.368   6.432  15.241  0.00  0.00    +0.000 NA
ATOM     13  H   UNL     1       4.442   6.012  15.134  0.00  0.00    +0.000 HD
ATOM     14  H   UNL     1       5.503   6.966  14.379  0.00  0.00    +0.000 HD
ENDBRANCH  11  12
ENDBRANCH   7  11
ENDBRANCH   1   9
BRANCH   4  15
ATOM     15  O   UNL     1       1.174   3.989  19.050  0.00  0.00    +0.000 OA
ATOM     16  H   UNL     1       0.644   3.917  19.868  0.00  0.00    +0.000 HD
ENDBRANCH   4  15
BRANCH   5  17
ATOM     17  O   UNL     1       2.632   1.542  18.680  0.00  0.00    +0.000 OA
ATOM     18  H   UNL     1       3.083   1.132  19.447  0.00  0.00    +0.000 HD
ENDBRANCH   5  17
BRANCH   6  19
ATOM     19  O   UNL     1       4.899   2.202  20.137  0.00  0.00    +0.000 OA
ATOM     20  H   UNL     1       4.990   1.232  20.051  0.00  0.00    +0.000 HD
ENDBRANCH   6  19
BRANCH   3  21
ATOM     21  C   UNL     1       2.832   6.041  18.148  0.00  0.00    +0.000 C 
BRANCH  21  22
ATOM     22  O   UNL     1       3.776   7.052  17.812  0.00  0.00    +0.000 OA
ATOM     23  H   UNL     1       3.711   7.211  16.853  0.00  0.00    +0.000 HD
ENDBRANCH  21  22
ENDBRANCH   3  21
TORSDOF 8
ENDMDL
MODEL 7
REMARK VINA RESULT:      -5.7      3.393      5.276
REMARK  Name = 
REMARK  8 active torsions:
REMARK  status: ('A' for Active; 'I' for Inactive)
REMARK    1  A    between atoms: N_1  and  C_2
REMARK    2  A    between atoms: C_2  and  C_3
REMARK    3  A    between atoms: N_5  and  C_6
REMARK    4  A    between atoms: C_8  and  C_9
REMARK    5  A    between atoms: C_9  and  O_10
REMARK    6  A    between atoms: C_11  and  O_12
REMARK    7  A    between atoms: C_13  and  O_14
REMARK    8  A    between atoms: C_15  and  O_16
REMARK                            x       y       z     vdW  Elec       q    Type
REMARK                         _______ _______ _______ _____ _____    ______ ____
ROOT
ATOM      1  C   UNL     1       4.186   3.281  18.306  0.00  0.00    +0.000 C 
ATOM      2  O   UNL     1       4.173   3.569  19.711  0.00  0.00    +0.000 OA
ATOM      3  C   UNL     1       2.940   4.011  20.296  0.00  0.00    +0.000 C 
ATOM      4  C   UNL     1       1.757   3.100  19.937  0.00  0.00    +0.000 C 
ATOM      5  C   UNL     1       1.723   2.805  18.432  0.00  0.00    +0.000 C 
ATOM      6  C   UNL     1       3.074   2.276  17.946  0.00  0.00    +0.000 C 
ENDROOT
BRANCH   1   9
ATOM      7  C   UNL     1       5.164   5.361  17.391  0.00  0.00    +0.000 C 
ATOM      8  O   UNL     1       6.292   5.173  17.831  0.00  0.00    +0.000 OA
ATOM      9  N   UNL     1       4.115   4.493  17.543  0.00  0.00    +0.000 N 
ATOM     10  H   UNL     1       3.290   4.748  17.004  0.00  0.00    +0.000 HD
BRANCH   7  11
ATOM     11  C   UNL     1       4.795   6.590  16.543  0.00  0.00    +0.000 C 
BRANCH  11  12
ATOM     12  N   UNL     1       5.418   6.505  15.195  0.00  0.00    +0.000 NA
ATOM     13  H   UNL     1       6.430   6.431  15.331  0.00  0.00    +0.000 HD
ATOM     14  H   UNL     1       5.290   7.421  14.755  0.00  0.00    +0.000 HD
ENDBRANCH  11  12
ENDBRANCH   7  11
ENDBRANCH   1   9
BRANCH   4  15
ATOM     15  O   UNL     1       0.528   3.695  20.365  0.00  0.00    +0.000 OA
ATOM     16  H   UNL     1      -0.124   3.568  19.648  0.00  0.00    +0.000 HD
ENDBRANCH   4  15
BRANCH   5  17
ATOM     17  O   UNL     1       0.686   1.850  18.169  0.00  0.00    +0.000 OA
ATOM     18  H   UNL     1       0.085   1.886  18.942  0.00  0.00    +0.000 HD
ENDBRANCH   5  17
BRANCH   6  19
ATOM     19  O   UNL     1       3.295   0.989  18.556  0.00  0.00    +0.000 OA
ATOM     20  H   UNL     1       3.369   1.125  19.522  0.00  0.00    +0.000 HD
ENDBRANCH   6  19
BRANCH   3  21
ATOM     21  C   UNL     1       2.628   5.499  20.034  0.00  0.00    +0.000 C 
BRANCH  21  22
ATOM     22  O   UNL     1       1.958   6.125  21.122  0.00  0.00    +0.000 OA
ATOM     23  H   UNL     1       1.709   5.430  21.757  0.00  0.00    +0.000 HD
ENDBRANCH  21  22
ENDBRANCH   3  21
TORSDOF 8
ENDMDL
MODEL 8
REMARK VINA RESULT:      -5.6      3.330      5.325
REMARK  Name = 
REMARK  8 active torsions:
REMARK  status: ('A' for Active; 'I' for Inactive)
REMARK    1  A    between atoms: N_1  and  C_2
REMARK    2  A    between atoms: C_2  and  C_3
REMARK    3  A    between atoms: N_5  and  C_6
REMARK    4  A    between atoms: C_8  and  C_9
REMARK    5  A    between atoms: C_9  and  O_10
REMARK    6  A    between atoms: C_11  and  O_12
REMARK    7  A    between atoms: C_13  and  O_14
REMARK    8  A    between atoms: C_15  and  O_16
REMARK                            x       y       z     vdW  Elec       q    Type
REMARK                         _______ _______ _______ _____ _____    ______ ____
ROOT
ATOM      1  C   UNL     1       4.695   4.145  19.444  0.00  0.00    +0.000 C 
ATOM      2  O   UNL     1       3.383   4.484  19.912  0.00  0.00    +0.000 OA
ATOM      3  C   UNL     1       2.256   3.939  19.210  0.00  0.00    +0.000 C 
ATOM      4  C   UNL     1       2.365   2.421  19.008  0.00  0.00    +0.000 C 
ATOM      5  C   UNL     1       3.748   2.032  18.470  0.00  0.00    +0.000 C 
ATOM      6  C   UNL     1       4.860   2.616  19.344  0.00  0.00    +0.000 C 
ENDROOT
BRANCH   1   9
ATOM      7  C   UNL     1       6.243   4.992  17.708  0.00  0.00    +0.000 C 
ATOM      8  O   UNL     1       7.260   4.536  18.216  0.00  0.00    +0.000 OA
ATOM      9  N   UNL     1       4.980   4.821  18.212  0.00  0.00    +0.000 N 
ATOM     10  H   UNL     1       4.243   5.157  17.594  0.00  0.00    +0.000 HD
BRANCH   7  11
ATOM     11  C   UNL     1       6.250   5.775  16.385  0.00  0.00    +0.000 C 
BRANCH  11  12
ATOM     12  N   UNL     1       7.520   5.544  15.645  0.00  0.00    +0.000 NA
ATOM     13  H   UNL     1       8.284   5.874  16.240  0.00  0.00    +0.000 HD
ATOM     14  H   UNL     1       7.519   6.193  14.853  0.00  0.00    +0.000 HD
ENDBRANCH  11  12
ENDBRANCH   7  11
ENDBRANCH   1   9
BRANCH   4  15
ATOM     15  O   UNL     1       1.332   1.965  18.128  0.00  0.00    +0.000 OA
ATOM     16  H   UNL     1       0.477   2.233  18.516  0.00  0.00    +0.000 HD
ENDBRANCH   4  15
BRANCH   5  17
ATOM     17  O   UNL     1       3.843   0.602  18.425  0.00  0.00    +0.000 OA
ATOM     18  H   UNL     1       4.342   0.391  17.608  0.00  0.00    +0.000 HD
ENDBRANCH   5  17
BRANCH   6  19
ATOM     19  O   UNL     1       4.790   1.983  20.638  0.00  0.00    +0.000 OA
ATOM     20  H   UNL     1       5.036   1.043  20.523  0.00  0.00    +0.000 HD
ENDBRANCH   6  19
BRANCH   3  21
ATOM     21  C   UNL     1       1.929   4.679  17.896  0.00  0.00    +0.000 C 
BRANCH  21  22
ATOM     22  O   UNL     1       2.232   6.069  17.951  0.00  0.00    +0.000 OA
ATOM     23  H   UNL     1       1.510   6.510  18.435  0.00  0.00    +0.000 HD
ENDBRANCH  21  22
ENDBRANCH   3  21
TORSDOF 8
ENDMDL
MODEL 9
REMARK VINA RESULT:      -5.6      2.905      4.966
REMARK  Name = 
REMARK  8 active torsions:
REMARK  status: ('A' for Active; 'I' for Inactive)
REMARK    1  A    between atoms: N_1  and  C_2
REMARK    2  A    between atoms: C_2  and  C_3
REMARK    3  A    between atoms: N_5  and  C_6
REMARK    4  A    between atoms: C_8  and  C_9
REMARK    5  A    between atoms: C_9  and  O_10
REMARK    6  A    between atoms: C_11  and  O_12
REMARK    7  A    between atoms: C_13  and  O_14
REMARK    8  A    between atoms: C_15  and  O_16
REMARK                            x       y       z     vdW  Elec       q    Type
REMARK                         _______ _______ _______ _____ _____    ______ ____
ROOT
ATOM      1  C   UNL     1       5.721   6.021  16.084  0.00  0.00    +0.000 C 
ATOM      2  O   UNL     1       4.545   5.998  16.905  0.00  0.00    +0.000 OA
ATOM      3  C   UNL     1       4.385   4.907  17.822  0.00  0.00    +0.000 C 
ATOM      4  C   UNL     1       5.632   4.676  18.687  0.00  0.00    +0.000 C 
ATOM      5  C   UNL     1       6.904   4.656  17.829  0.00  0.00    +0.000 C 
ATOM      6  C   UNL     1       6.990   5.905  16.949  0.00  0.00    +0.000 C 
ENDROOT
BRANCH   1   9
ATOM      7  C   UNL     1       6.618   4.800  14.127  0.00  0.00    +0.000 C 
ATOM      8  O   UNL     1       7.688   5.395  14.089  0.00  0.00    +0.000 OA
ATOM      9  N   UNL     1       5.642   5.014  15.065  0.00  0.00    +0.000 N 
ATOM     10  H   UNL     1       4.878   4.343  15.023  0.00  0.00    +0.000 HD
BRANCH   7  11
ATOM     11  C   UNL     1       6.255   3.673  13.145  0.00  0.00    +0.000 C 
BRANCH  11  12
ATOM     12  N   UNL     1       6.992   3.837  11.862  0.00  0.00    +0.000 NA
ATOM     13  H   UNL     1       7.964   4.055  12.096  0.00  0.00    +0.000 HD
ATOM     14  H   UNL     1       6.638   4.695  11.430  0.00  0.00    +0.000 HD
ENDBRANCH  11  12
ENDBRANCH   7  11
ENDBRANCH   1   9
BRANCH   4  15
ATOM     15  O   UNL     1       5.502   3.458  19.427  0.00  0.00    +0.000 OA
ATOM     16  H   UNL     1       5.682   3.664  20.365  0.00  0.00    +0.000 HD
ENDBRANCH   4  15
BRANCH   5  17
ATOM     17  O   UNL     1       8.046   4.572  18.694  0.00  0.00    +0.000 OA
ATOM     18  H   UNL     1       8.258   5.494  18.950  0.00  0.00    +0.000 HD
ENDBRANCH   5  17
BRANCH   6  19
ATOM     19  O   UNL     1       7.160   7.049  17.811  0.00  0.00    +0.000 OA
ATOM     20  H   UNL     1       6.922   6.775  18.719  0.00  0.00    +0.000 HD
ENDBRANCH   6  19
BRANCH   3  21
ATOM     21  C   UNL     1       3.890   3.606  17.156  0.00  0.00    +0.000 C 
BRANCH  21  22
ATOM     22  O   UNL     1       3.058   2.828  18.010  0.00  0.00    +0.000 OA
ATOM     23  H   UNL     1       2.133   2.998  17.757  0.00  0.00    +0.000 HD
ENDBRANCH  21  22
ENDBRANCH   3  21
TORSDOF 8
ENDMDL
