MODEL 1
REMARK VINA RESULT:      -8.0      0.000      0.000
REMARK  Name = 
REMARK  15 active torsions:
REMARK  status: ('A' for Active; 'I' for Inactive)
REMARK    1  A    between atoms: C_2  and  C_3
REMARK    2  A    between atoms: C_3  and  C_4
REMARK    3  A    between atoms: C_3  and  C_5
REMARK    4  A    between atoms: C_3  and  C_30
REMARK    5  A    between atoms: C_6  and  C_7
REMARK    6  A    between atoms: C_10  and  O_11
REMARK    7  A    between atoms: C_12  and  C_13
REMARK    8  A    between atoms: C_14  and  C_15
REMARK    9  A    between atoms: N_17  and  C_18
REMARK   10  A    between atoms: C_18  and  C_19
REMARK   11  A    between atoms: C_22  and  C_23
REMARK   12  A    between atoms: C_30  and  C_31
REMARK   13  A    between atoms: C_31  and  C_32
REMARK   14  A    between atoms: C_33  and  C_34
REMARK   15  A    between atoms: C_33  and  C_35
REMARK                            x       y       z     vdW  Elec       q    Type
REMARK                         _______ _______ _______ _____ _____    ______ ____
ROOT
ATOM      1  C   UNL     1       9.677  13.081  20.732  0.00  0.00    +0.000 A 
ATOM      2  C   UNL     1      10.586  13.707  19.877  0.00  0.00    +0.000 A 
ATOM      3  C   UNL     1      11.050  13.053  18.736  0.00  0.00    +0.000 A 
ATOM      4  C   UNL     1      10.618  11.756  18.449  0.00  0.00    +0.000 A 
ATOM      5  C   UNL     1       9.734  11.080  19.305  0.00  0.00    +0.000 A 
ATOM      6  C   UNL     1       9.266  11.766  20.440  0.00  0.00    +0.000 A 
ENDROOT
BRANCH   1   8
ATOM      7  C   UNL     1       9.284  15.144  22.052  0.00  0.00    +0.000 C 
ATOM      8  C   UNL     1       9.230  13.806  21.932  0.00  0.00    +0.000 C 
BRANCH   7   9
ATOM      9  C   UNL     1       8.831  15.991  23.244  0.00  0.00    +0.000 C 
ATOM     10  C   UNL     1       7.986  17.167  22.710  0.00  0.00    +0.000 C 
BRANCH   9  12
ATOM     11  C   UNL     1      11.300  16.665  23.603  0.00  0.00    +0.000 C 
ATOM     12  C   UNL     1      10.047  16.476  24.043  0.00  0.00    +0.000 C 
ENDBRANCH   9  12
BRANCH   9  13
ATOM     13  C   UNL     1       7.958  15.123  24.210  0.00  0.00    +0.000 C 
BRANCH  13  14
ATOM     14  C   UNL     1       8.726  14.488  25.384  0.00  0.00    +0.000 C 
BRANCH  14  15
ATOM     15  C   UNL     1       7.908  13.493  26.154  0.00  0.00    +0.000 C 
ATOM     16  C   UNL     1       7.547  12.268  25.728  0.00  0.00    +0.000 C 
ATOM     17  C   UNL     1       7.996  11.649  24.429  0.00  0.00    +0.000 C 
ATOM     18  C   UNL     1       6.638  11.402  26.555  0.00  0.00    +0.000 C 
ENDBRANCH  14  15
ENDBRANCH  13  14
ENDBRANCH   9  13
ENDBRANCH   7   9
ENDBRANCH   1   8
BRANCH   4  19
ATOM     19  O   UNL     1      11.069  11.156  17.303  0.00  0.00    +0.000 OA
ATOM     20  H   UNL     1      11.865  11.619  16.999  0.00  0.00    +0.000 HD
ENDBRANCH   4  19
BRANCH   5  21
ATOM     21  C   UNL     1       9.219   9.715  19.069  0.00  0.00    +0.000 C 
ATOM     22  C   UNL     1       8.295   9.392  18.153  0.00  0.00    +0.000 C 
BRANCH  22  23
ATOM     23  C   UNL     1       7.849   7.990  17.978  0.00  0.00    +0.000 C 
ATOM     24  O   UNL     1       8.342   7.051  18.598  0.00  0.00    +0.000 OA
ATOM     25  N   UNL     1       6.844   7.861  17.050  0.00  0.00    +0.000 N 
ATOM     26  H   UNL     1       6.491   8.678  16.572  0.00  0.00    +0.000 HD
BRANCH  25  27
ATOM     27  C   UNL     1       6.252   6.585  16.714  0.00  0.00    +0.000 C 
BRANCH  27  28
ATOM     28  C   UNL     1       5.116   6.242  17.646  0.00  0.00    +0.000 A 
ATOM     29  C   UNL     1       5.256   5.200  18.574  0.00  0.00    +0.000 A 
ATOM     30  C   UNL     1       4.227   4.898  19.470  0.00  0.00    +0.000 A 
ATOM     31  C   UNL     1       3.038   5.640  19.468  0.00  0.00    +0.000 A 
ATOM     32  C   UNL     1       2.894   6.679  18.534  0.00  0.00    +0.000 A 
ATOM     33  C   UNL     1       3.922   6.977  17.634  0.00  0.00    +0.000 A 
BRANCH  31  34
ATOM     34  C   UNL     1       1.938   5.350  20.458  0.00  0.00    +0.000 C 
ATOM     35  F   UNL     1       0.969   4.524  19.974  0.00  0.00    +0.000 F 
ATOM     36  F   UNL     1       2.401   4.752  21.592  0.00  0.00    +0.000 F 
ATOM     37  F   UNL     1       1.293   6.478  20.869  0.00  0.00    +0.000 F 
ENDBRANCH  31  34
ENDBRANCH  27  28
ENDBRANCH  25  27
ENDBRANCH  22  23
ENDBRANCH   5  21
TORSDOF 12
ENDMDL
MODEL 2
REMARK VINA RESULT:      -8.0      4.938     10.364
REMARK  Name = 
REMARK  15 active torsions:
REMARK  status: ('A' for Active; 'I' for Inactive)
REMARK    1  A    between atoms: C_2  and  C_3
REMARK    2  A    between atoms: C_3  and  C_4
REMARK    3  A    between atoms: C_3  and  C_5
REMARK    4  A    between atoms: C_3  and  C_30
REMARK    5  A    between atoms: C_6  and  C_7
REMARK    6  A    between atoms: C_10  and  O_11
REMARK    7  A    between atoms: C_12  and  C_13
REMARK    8  A    between atoms: C_14  and  C_15
REMARK    9  A    between atoms: N_17  and  C_18
REMARK   10  A    between atoms: C_18  and  C_19
REMARK   11  A    between atoms: C_22  and  C_23
REMARK   12  A    between atoms: C_30  and  C_31
REMARK   13  A    between atoms: C_31  and  C_32
REMARK   14  A    between atoms: C_33  and  C_34
REMARK   15  A    between atoms: C_33  and  C_35
REMARK                            x       y       z     vdW  Elec       q    Type
REMARK                         _______ _______ _______ _____ _____    ______ ____
ROOT
ATOM      1  C   UNL     1       4.584   4.824  17.250  0.00  0.00    +0.000 A 
ATOM      2  C   UNL     1       4.753   4.238  15.994  0.00  0.00    +0.000 A 
ATOM      3  C   UNL     1       5.866   4.549  15.213  0.00  0.00    +0.000 A 
ATOM      4  C   UNL     1       6.814   5.463  15.678  0.00  0.00    +0.000 A 
ATOM      5  C   UNL     1       6.658   6.102  16.920  0.00  0.00    +0.000 A 
ATOM      6  C   UNL     1       5.536   5.759  17.697  0.00  0.00    +0.000 A 
ENDROOT
BRANCH   1   8
ATOM      7  C   UNL     1       3.397   4.280  19.360  0.00  0.00    +0.000 C 
ATOM      8  C   UNL     1       3.384   4.476  18.030  0.00  0.00    +0.000 C 
BRANCH   7   9
ATOM      9  C   UNL     1       2.208   3.933  20.260  0.00  0.00    +0.000 C 
ATOM     10  C   UNL     1       2.652   2.828  21.243  0.00  0.00    +0.000 C 
BRANCH   9  12
ATOM     11  C   UNL     1       0.777   2.292  18.869  0.00  0.00    +0.000 C 
ATOM     12  C   UNL     1       1.008   3.497  19.411  0.00  0.00    +0.000 C 
ENDBRANCH   9  12
BRANCH   9  13
ATOM     13  C   UNL     1       1.769   5.199  21.069  0.00  0.00    +0.000 C 
BRANCH  13  14
ATOM     14  C   UNL     1       1.827   6.522  20.283  0.00  0.00    +0.000 C 
BRANCH  14  15
ATOM     15  C   UNL     1       1.322   7.696  21.069  0.00  0.00    +0.000 C 
ATOM     16  C   UNL     1       1.099   8.933  20.587  0.00  0.00    +0.000 C 
ATOM     17  C   UNL     1       1.228   9.321  19.137  0.00  0.00    +0.000 C 
ATOM     18  C   UNL     1       0.687  10.054  21.502  0.00  0.00    +0.000 C 
ENDBRANCH  14  15
ENDBRANCH  13  14
ENDBRANCH   9  13
ENDBRANCH   7   9
ENDBRANCH   1   8
BRANCH   4  19
ATOM     19  O   UNL     1       7.911   5.721  14.899  0.00  0.00    +0.000 OA
ATOM     20  H   UNL     1       7.654   5.661  13.966  0.00  0.00    +0.000 HD
ENDBRANCH   4  19
BRANCH   5  21
ATOM     21  C   UNL     1       7.617   7.070  17.490  0.00  0.00    +0.000 C 
ATOM     22  C   UNL     1       7.400   8.389  17.603  0.00  0.00    +0.000 C 
BRANCH  22  23
ATOM     23  C   UNL     1       8.418   9.283  18.203  0.00  0.00    +0.000 C 
ATOM     24  O   UNL     1       9.119   8.950  19.154  0.00  0.00    +0.000 OA
ATOM     25  N   UNL     1       8.478  10.510  17.589  0.00  0.00    +0.000 N 
ATOM     26  H   UNL     1       7.863  10.717  16.815  0.00  0.00    +0.000 HD
BRANCH  25  27
ATOM     27  C   UNL     1       9.398  11.546  18.006  0.00  0.00    +0.000 C 
BRANCH  27  28
ATOM     28  C   UNL     1       8.680  12.848  18.265  0.00  0.00    +0.000 A 
ATOM     29  C   UNL     1       9.070  13.665  19.336  0.00  0.00    +0.000 A 
ATOM     30  C   UNL     1       8.441  14.891  19.565  0.00  0.00    +0.000 A 
ATOM     31  C   UNL     1       7.416  15.336  18.720  0.00  0.00    +0.000 A 
ATOM     32  C   UNL     1       7.019  14.515  17.651  0.00  0.00    +0.000 A 
ATOM     33  C   UNL     1       7.646  13.285  17.427  0.00  0.00    +0.000 A 
BRANCH  31  34
ATOM     34  C   UNL     1       6.758  16.677  18.932  0.00  0.00    +0.000 C 
ATOM     35  F   UNL     1       7.303  17.677  18.185  0.00  0.00    +0.000 F 
ATOM     36  F   UNL     1       5.432  16.663  18.619  0.00  0.00    +0.000 F 
ATOM     37  F   UNL     1       6.831  17.098  20.226  0.00  0.00    +0.000 F 
ENDBRANCH  31  34
ENDBRANCH  27  28
ENDBRANCH  25  27
ENDBRANCH  22  23
ENDBRANCH   5  21
TORSDOF 12
ENDMDL
MODEL 3
REMARK VINA RESULT:      -7.9      8.020     11.773
REMARK  Name = 
REMARK  15 active torsions:
REMARK  status: ('A' for Active; 'I' for Inactive)
REMARK    1  A    between atoms: C_2  and  C_3
REMARK    2  A    between atoms: C_3  and  C_4
REMARK    3  A    between atoms: C_3  and  C_5
REMARK    4  A    between atoms: C_3  and  C_30
REMARK    5  A    between atoms: C_6  and  C_7
REMARK    6  A    between atoms: C_10  and  O_11
REMARK    7  A    between atoms: C_12  and  C_13
REMARK    8  A    between atoms: C_14  and  C_15
REMARK    9  A    between atoms: N_17  and  C_18
REMARK   10  A    between atoms: C_18  and  C_19
REMARK   11  A    between atoms: C_22  and  C_23
REMARK   12  A    between atoms: C_30  and  C_31
REMARK   13  A    between atoms: C_31  and  C_32
REMARK   14  A    between atoms: C_33  and  C_34
REMARK   15  A    between atoms: C_33  and  C_35
REMARK                            x       y       z     vdW  Elec       q    Type
REMARK                         _______ _______ _______ _____ _____    ______ ____
ROOT
ATOM      1  C   UNL     1       2.296   6.866  19.095  0.00  0.00    +0.000 A 
ATOM      2  C   UNL     1       3.011   7.214  17.947  0.00  0.00    +0.000 A 
ATOM      3  C   UNL     1       2.954   8.514  17.446  0.00  0.00    +0.000 A 
ATOM      4  C   UNL     1       2.166   9.475  18.083  0.00  0.00    +0.000 A 
ATOM      5  C   UNL     1       1.402   9.152  19.217  0.00  0.00    +0.000 A 
ATOM      6  C   UNL     1       1.490   7.839  19.714  0.00  0.00    +0.000 A 
ENDROOT
BRANCH   1   8
ATOM      7  C   UNL     1       2.213   4.406  18.776  0.00  0.00    +0.000 C 
ATOM      8  C   UNL     1       2.375   5.476  19.575  0.00  0.00    +0.000 C 
BRANCH   7   9
ATOM      9  C   UNL     1       2.292   2.930  19.172  0.00  0.00    +0.000 C 
ATOM     10  C   UNL     1       0.898   2.299  18.969  0.00  0.00    +0.000 C 
BRANCH   9  12
ATOM     11  C   UNL     1       2.149   3.180  21.740  0.00  0.00    +0.000 C 
ATOM     12  C   UNL     1       2.778   2.793  20.620  0.00  0.00    +0.000 C 
ENDBRANCH   9  12
BRANCH   9  13
ATOM     13  C   UNL     1       3.331   2.193  18.263  0.00  0.00    +0.000 C 
BRANCH  13  14
ATOM     14  C   UNL     1       4.658   2.946  18.051  0.00  0.00    +0.000 C 
BRANCH  14  15
ATOM     15  C   UNL     1       4.696   3.720  16.767  0.00  0.00    +0.000 C 
ATOM     16  C   UNL     1       5.735   4.447  16.313  0.00  0.00    +0.000 C 
ATOM     17  C   UNL     1       7.083   4.522  16.982  0.00  0.00    +0.000 C 
ATOM     18  C   UNL     1       5.613   5.262  15.055  0.00  0.00    +0.000 C 
ENDBRANCH  14  15
ENDBRANCH  13  14
ENDBRANCH   9  13
ENDBRANCH   7   9
ENDBRANCH   1   8
BRANCH   4  19
ATOM     19  O   UNL     1       2.159  10.751  17.582  0.00  0.00    +0.000 OA
ATOM     20  H   UNL     1       2.913  10.856  16.982  0.00  0.00    +0.000 HD
ENDBRANCH   4  19
BRANCH   5  21
ATOM     21  C   UNL     1       0.553  10.110  19.955  0.00  0.00    +0.000 C 
ATOM     22  C   UNL     1       0.663  10.381  21.264  0.00  0.00    +0.000 C 
BRANCH  22  23
ATOM     23  C   UNL     1      -0.226  11.370  21.917  0.00  0.00    +0.000 C 
ATOM     24  O   UNL     1      -0.505  11.328  23.113  0.00  0.00    +0.000 OA
ATOM     25  N   UNL     1      -0.703  12.317  21.045  0.00  0.00    +0.000 N 
ATOM     26  H   UNL     1      -0.436  12.285  20.071  0.00  0.00    +0.000 HD
BRANCH  25  27
ATOM     27  C   UNL     1      -1.590  13.382  21.459  0.00  0.00    +0.000 C 
BRANCH  27  28
ATOM     28  C   UNL     1      -3.037  12.985  21.306  0.00  0.00    +0.000 A 
ATOM     29  C   UNL     1      -3.890  12.990  22.419  0.00  0.00    +0.000 A 
ATOM     30  C   UNL     1      -5.242  12.663  22.285  0.00  0.00    +0.000 A 
ATOM     31  C   UNL     1      -5.776  12.334  21.032  0.00  0.00    +0.000 A 
ATOM     32  C   UNL     1      -4.922  12.322  19.917  0.00  0.00    +0.000 A 
ATOM     33  C   UNL     1      -3.567  12.644  20.054  0.00  0.00    +0.000 A 
BRANCH  31  34
ATOM     34  C   UNL     1      -7.242  12.020  20.868  0.00  0.00    +0.000 C 
ATOM     35  F   UNL     1      -7.913  11.906  22.049  0.00  0.00    +0.000 F 
ATOM     36  F   UNL     1      -7.904  12.977  20.158  0.00  0.00    +0.000 F 
ATOM     37  F   UNL     1      -7.457  10.850  20.205  0.00  0.00    +0.000 F 
ENDBRANCH  31  34
ENDBRANCH  27  28
ENDBRANCH  25  27
ENDBRANCH  22  23
ENDBRANCH   5  21
TORSDOF 12
ENDMDL
MODEL 4
REMARK VINA RESULT:      -7.8      6.884     11.226
REMARK  Name = 
REMARK  15 active torsions:
REMARK  status: ('A' for Active; 'I' for Inactive)
REMARK    1  A    between atoms: C_2  and  C_3
REMARK    2  A    between atoms: C_3  and  C_4
REMARK    3  A    between atoms: C_3  and  C_5
REMARK    4  A    between atoms: C_3  and  C_30
REMARK    5  A    between atoms: C_6  and  C_7
REMARK    6  A    between atoms: C_10  and  O_11
REMARK    7  A    between atoms: C_12  and  C_13
REMARK    8  A    between atoms: C_14  and  C_15
REMARK    9  A    between atoms: N_17  and  C_18
REMARK   10  A    between atoms: C_18  and  C_19
REMARK   11  A    between atoms: C_22  and  C_23
REMARK   12  A    between atoms: C_30  and  C_31
REMARK   13  A    between atoms: C_31  and  C_32
REMARK   14  A    between atoms: C_33  and  C_34
REMARK   15  A    between atoms: C_33  and  C_35
REMARK                            x       y       z     vdW  Elec       q    Type
REMARK                         _______ _______ _______ _____ _____    ______ ____
ROOT
ATOM      1  C   UNL     1       4.098   4.060  19.338  0.00  0.00    +0.000 A 
ATOM      2  C   UNL     1       3.623   2.751  19.447  0.00  0.00    +0.000 A 
ATOM      3  C   UNL     1       2.371   2.498  20.008  0.00  0.00    +0.000 A 
ATOM      4  C   UNL     1       1.589   3.555  20.479  0.00  0.00    +0.000 A 
ATOM      5  C   UNL     1       2.050   4.881  20.421  0.00  0.00    +0.000 A 
ATOM      6  C   UNL     1       3.308   5.113  19.835  0.00  0.00    +0.000 A 
ENDROOT
BRANCH   1   8
ATOM      7  C   UNL     1       5.763   5.367  18.043  0.00  0.00    +0.000 C 
ATOM      8  C   UNL     1       5.432   4.274  18.754  0.00  0.00    +0.000 C 
BRANCH   7   9
ATOM      9  C   UNL     1       7.119   5.691  17.411  0.00  0.00    +0.000 C 
ATOM     10  C   UNL     1       8.049   4.475  17.612  0.00  0.00    +0.000 C 
BRANCH   9  12
ATOM     11  C   UNL     1       7.705   8.206  17.516  0.00  0.00    +0.000 C 
ATOM     12  C   UNL     1       7.702   6.967  18.030  0.00  0.00    +0.000 C 
ENDBRANCH   9  12
BRANCH   9  13
ATOM     13  C   UNL     1       6.940   5.958  15.880  0.00  0.00    +0.000 C 
BRANCH  13  14
ATOM     14  C   UNL     1       7.272   4.761  14.969  0.00  0.00    +0.000 C 
BRANCH  14  15
ATOM     15  C   UNL     1       6.074   4.224  14.243  0.00  0.00    +0.000 C 
ATOM     16  C   UNL     1       6.029   3.875  12.944  0.00  0.00    +0.000 C 
ATOM     17  C   UNL     1       7.217   3.874  12.017  0.00  0.00    +0.000 C 
ATOM     18  C   UNL     1       4.736   3.443  12.307  0.00  0.00    +0.000 C 
ENDBRANCH  14  15
ENDBRANCH  13  14
ENDBRANCH   9  13
ENDBRANCH   7   9
ENDBRANCH   1   8
BRANCH   4  19
ATOM     19  O   UNL     1       0.351   3.273  20.994  0.00  0.00    +0.000 OA
ATOM     20  H   UNL     1       0.390   3.346  21.961  0.00  0.00    +0.000 HD
ENDBRANCH   4  19
BRANCH   5  21
ATOM     21  C   UNL     1       1.282   6.055  20.885  0.00  0.00    +0.000 C 
ATOM     22  C   UNL     1       1.519   7.322  20.512  0.00  0.00    +0.000 C 
BRANCH  22  23
ATOM     23  C   UNL     1       0.685   8.436  21.020  0.00  0.00    +0.000 C 
ATOM     24  O   UNL     1      -0.309   8.260  21.719  0.00  0.00    +0.000 OA
ATOM     25  N   UNL     1       1.139   9.668  20.617  0.00  0.00    +0.000 N 
ATOM     26  H   UNL     1       1.962   9.737  20.035  0.00  0.00    +0.000 HD
BRANCH  25  27
ATOM     27  C   UNL     1       0.482  10.902  20.992  0.00  0.00    +0.000 C 
BRANCH  27  28
ATOM     28  C   UNL     1       1.114  12.091  20.309  0.00  0.00    +0.000 A 
ATOM     29  C   UNL     1       1.693  11.948  19.041  0.00  0.00    +0.000 A 
ATOM     30  C   UNL     1       2.246  13.048  18.380  0.00  0.00    +0.000 A 
ATOM     31  C   UNL     1       2.221  14.320  18.967  0.00  0.00    +0.000 A 
ATOM     32  C   UNL     1       1.647  14.463  20.241  0.00  0.00    +0.000 A 
ATOM     33  C   UNL     1       1.100  13.359  20.904  0.00  0.00    +0.000 A 
BRANCH  31  34
ATOM     34  C   UNL     1       2.776  15.523  18.245  0.00  0.00    +0.000 C 
ATOM     35  F   UNL     1       3.756  16.170  18.936  0.00  0.00    +0.000 F 
ATOM     36  F   UNL     1       3.324  15.200  17.040  0.00  0.00    +0.000 F 
ATOM     37  F   UNL     1       1.825  16.461  17.982  0.00  0.00    +0.000 F 
ENDBRANCH  31  34
ENDBRANCH  27  28
ENDBRANCH  25  27
ENDBRANCH  22  23
ENDBRANCH   5  21
TORSDOF 12
ENDMDL
MODEL 5
REMARK VINA RESULT:      -7.8      7.034     11.421
REMARK  Name = 
REMARK  15 active torsions:
REMARK  status: ('A' for Active; 'I' for Inactive)
REMARK    1  A    between atoms: C_2  and  C_3
REMARK    2  A    between atoms: C_3  and  C_4
REMARK    3  A    between atoms: C_3  and  C_5
REMARK    4  A    between atoms: C_3  and  C_30
REMARK    5  A    between atoms: C_6  and  C_7
REMARK    6  A    between atoms: C_10  and  O_11
REMARK    7  A    between atoms: C_12  and  C_13
REMARK    8  A    between atoms: C_14  and  C_15
REMARK    9  A    between atoms: N_17  and  C_18
REMARK   10  A    between atoms: C_18  and  C_19
REMARK   11  A    between atoms: C_22  and  C_23
REMARK   12  A    between atoms: C_30  and  C_31
REMARK   13  A    between atoms: C_31  and  C_32
REMARK   14  A    between atoms: C_33  and  C_34
REMARK   15  A    between atoms: C_33  and  C_35
REMARK                            x       y       z     vdW  Elec       q    Type
REMARK                         _______ _______ _______ _____ _____    ______ ____
ROOT
ATOM      1  C   UNL     1       4.305   3.983  19.167  0.00  0.00    +0.000 A 
ATOM      2  C   UNL     1       4.172   2.746  19.801  0.00  0.00    +0.000 A 
ATOM      3  C   UNL     1       3.186   2.549  20.767  0.00  0.00    +0.000 A 
ATOM      4  C   UNL     1       2.332   3.597  21.119  0.00  0.00    +0.000 A 
ATOM      5  C   UNL     1       2.460   4.866  20.530  0.00  0.00    +0.000 A 
ATOM      6  C   UNL     1       3.450   5.035  19.546  0.00  0.00    +0.000 A 
ENDROOT
BRANCH   1   8
ATOM      7  C   UNL     1       5.565   5.279  17.467  0.00  0.00    +0.000 C 
ATOM      8  C   UNL     1       5.372   4.146  18.166  0.00  0.00    +0.000 C 
BRANCH   7   9
ATOM      9  C   UNL     1       6.649   5.554  16.422  0.00  0.00    +0.000 C 
ATOM     10  C   UNL     1       7.638   4.369  16.428  0.00  0.00    +0.000 C 
BRANCH   9  12
ATOM     11  C   UNL     1       7.402   7.546  17.886  0.00  0.00    +0.000 C 
ATOM     12  C   UNL     1       7.348   6.886  16.720  0.00  0.00    +0.000 C 
ENDBRANCH   9  12
BRANCH   9  13
ATOM     13  C   UNL     1       5.999   5.678  15.004  0.00  0.00    +0.000 C 
BRANCH  13  14
ATOM     14  C   UNL     1       5.391   4.375  14.452  0.00  0.00    +0.000 C 
BRANCH  14  15
ATOM     15  C   UNL     1       6.269   3.698  13.442  0.00  0.00    +0.000 C 
ATOM     16  C   UNL     1       5.866   3.178  12.267  0.00  0.00    +0.000 C 
ATOM     17  C   UNL     1       4.464   3.280  11.723  0.00  0.00    +0.000 C 
ATOM     18  C   UNL     1       6.829   2.432  11.384  0.00  0.00    +0.000 C 
ENDBRANCH  14  15
ENDBRANCH  13  14
ENDBRANCH   9  13
ENDBRANCH   7   9
ENDBRANCH   1   8
BRANCH   4  19
ATOM     19  O   UNL     1       1.354   3.360  22.048  0.00  0.00    +0.000 OA
ATOM     20  H   UNL     1       0.488   3.492  21.633  0.00  0.00    +0.000 HD
ENDBRANCH   4  19
BRANCH   5  21
ATOM     21  C   UNL     1       1.592   6.023  20.836  0.00  0.00    +0.000 C 
ATOM     22  C   UNL     1       1.853   7.291  20.486  0.00  0.00    +0.000 C 
BRANCH  22  23
ATOM     23  C   UNL     1       0.914   8.386  20.825  0.00  0.00    +0.000 C 
ATOM     24  O   UNL     1       0.264   8.407  21.866  0.00  0.00    +0.000 OA
ATOM     25  N   UNL     1       0.848   9.352  19.851  0.00  0.00    +0.000 N 
ATOM     26  H   UNL     1       1.409   9.265  19.015  0.00  0.00    +0.000 HD
BRANCH  25  27
ATOM     27  C   UNL     1      -0.002  10.517  19.965  0.00  0.00    +0.000 C 
BRANCH  27  28
ATOM     28  C   UNL     1       0.701  11.762  19.482  0.00  0.00    +0.000 A 
ATOM     29  C   UNL     1       0.267  13.025  19.908  0.00  0.00    +0.000 A 
ATOM     30  C   UNL     1       0.933  14.184  19.502  0.00  0.00    +0.000 A 
ATOM     31  C   UNL     1       2.056  14.106  18.668  0.00  0.00    +0.000 A 
ATOM     32  C   UNL     1       2.488  12.842  18.234  0.00  0.00    +0.000 A 
ATOM     33  C   UNL     1       1.816  11.683  18.638  0.00  0.00    +0.000 A 
BRANCH  31  34
ATOM     34  C   UNL     1       2.809  15.347  18.256  0.00  0.00    +0.000 C 
ATOM     35  F   UNL     1       3.291  15.298  16.983  0.00  0.00    +0.000 F 
ATOM     36  F   UNL     1       2.037  16.469  18.317  0.00  0.00    +0.000 F 
ATOM     37  F   UNL     1       3.887  15.594  19.052  0.00  0.00    +0.000 F 
ENDBRANCH  31  34
ENDBRANCH  27  28
ENDBRANCH  25  27
ENDBRANCH  22  23
ENDBRANCH   5  21
TORSDOF 12
ENDMDL
MODEL 6
REMARK VINA RESULT:      -7.8      3.742     10.195
REMARK  Name = 
REMARK  15 active torsions:
REMARK  status: ('A' for Active; 'I' for Inactive)
REMARK    1  A    between atoms: C_2  and  C_3
REMARK    2  A    between atoms: C_3  and  C_4
REMARK    3  A    between atoms: C_3  and  C_5
REMARK    4  A    between atoms: C_3  and  C_30
REMARK    5  A    between atoms: C_6  and  C_7
REMARK    6  A    between atoms: C_10  and  O_11
REMARK    7  A    between atoms: C_12  and  C_13
REMARK    8  A    between atoms: C_14  and  C_15
REMARK    9  A    between atoms: N_17  and  C_18
REMARK   10  A    between atoms: C_18  and  C_19
REMARK   11  A    between atoms: C_22  and  C_23
REMARK   12  A    between atoms: C_30  and  C_31
REMARK   13  A    between atoms: C_31  and  C_32
REMARK   14  A    between atoms: C_33  and  C_34
REMARK   15  A    between atoms: C_33  and  C_35
REMARK                            x       y       z     vdW  Elec       q    Type
REMARK                         _______ _______ _______ _____ _____    ______ ____
ROOT
ATOM      1  C   UNL     1       5.205   4.765  18.018  0.00  0.00    +0.000 A 
ATOM      2  C   UNL     1       5.330   3.909  16.922  0.00  0.00    +0.000 A 
ATOM      3  C   UNL     1       6.201   4.219  15.878  0.00  0.00    +0.000 A 
ATOM      4  C   UNL     1       6.945   5.401  15.915  0.00  0.00    +0.000 A 
ATOM      5  C   UNL     1       6.816   6.306  16.982  0.00  0.00    +0.000 A 
ATOM      6  C   UNL     1       5.945   5.962  18.032  0.00  0.00    +0.000 A 
ENDROOT
BRANCH   1   8
ATOM      7  C   UNL     1       2.929   4.560  18.983  0.00  0.00    +0.000 C 
ATOM      8  C   UNL     1       4.260   4.402  19.087  0.00  0.00    +0.000 C 
BRANCH   7   9
ATOM      9  C   UNL     1       1.866   4.200  20.024  0.00  0.00    +0.000 C 
ATOM     10  C   UNL     1       2.562   3.474  21.195  0.00  0.00    +0.000 C 
BRANCH   9  12
ATOM     11  C   UNL     1       0.886   2.111  18.860  0.00  0.00    +0.000 C 
ATOM     12  C   UNL     1       0.768   3.339  19.387  0.00  0.00    +0.000 C 
ENDBRANCH   9  12
BRANCH   9  13
ATOM     13  C   UNL     1       1.182   5.503  20.556  0.00  0.00    +0.000 C 
BRANCH  13  14
ATOM     14  C   UNL     1       2.122   6.715  20.702  0.00  0.00    +0.000 C 
BRANCH  14  15
ATOM     15  C   UNL     1       1.582   7.959  20.060  0.00  0.00    +0.000 C 
ATOM     16  C   UNL     1       1.924   8.435  18.848  0.00  0.00    +0.000 C 
ATOM     17  C   UNL     1       2.844   7.732  17.882  0.00  0.00    +0.000 C 
ATOM     18  C   UNL     1       1.386   9.751  18.358  0.00  0.00    +0.000 C 
ENDBRANCH  14  15
ENDBRANCH  13  14
ENDBRANCH   9  13
ENDBRANCH   7   9
ENDBRANCH   1   8
BRANCH   4  19
ATOM     19  O   UNL     1       7.814   5.659  14.888  0.00  0.00    +0.000 OA
ATOM     20  H   UNL     1       7.741   4.950  14.230  0.00  0.00    +0.000 HD
ENDBRANCH   4  19
BRANCH   5  21
ATOM     21  C   UNL     1       7.573   7.569  17.104  0.00  0.00    +0.000 C 
ATOM     22  C   UNL     1       7.675   8.296  18.227  0.00  0.00    +0.000 C 
BRANCH  22  23
ATOM     23  C   UNL     1       8.470   9.546  18.258  0.00  0.00    +0.000 C 
ATOM     24  O   UNL     1       8.380  10.415  17.395  0.00  0.00    +0.000 OA
ATOM     25  N   UNL     1       9.313   9.616  19.340  0.00  0.00    +0.000 N 
ATOM     26  H   UNL     1       9.339   8.858  20.008  0.00  0.00    +0.000 HD
BRANCH  25  27
ATOM     27  C   UNL     1      10.185  10.745  19.578  0.00  0.00    +0.000 C 
BRANCH  27  28
ATOM     28  C   UNL     1       9.565  11.726  20.542  0.00  0.00    +0.000 A 
ATOM     29  C   UNL     1       9.033  11.277  21.759  0.00  0.00    +0.000 A 
ATOM     30  C   UNL     1       8.492  12.178  22.679  0.00  0.00    +0.000 A 
ATOM     31  C   UNL     1       8.482  13.553  22.409  0.00  0.00    +0.000 A 
ATOM     32  C   UNL     1       9.008  14.004  21.188  0.00  0.00    +0.000 A 
ATOM     33  C   UNL     1       9.545  13.100  20.265  0.00  0.00    +0.000 A 
BRANCH  31  34
ATOM     34  C   UNL     1       7.939  14.540  23.413  0.00  0.00    +0.000 C 
ATOM     35  F   UNL     1       7.819  15.806  22.925  0.00  0.00    +0.000 F 
ATOM     36  F   UNL     1       6.699  14.197  23.863  0.00  0.00    +0.000 F 
ATOM     37  F   UNL     1       8.722  14.642  24.523  0.00  0.00    +0.000 F 
ENDBRANCH  31  34
ENDBRANCH  27  28
ENDBRANCH  25  27
ENDBRANCH  22  23
ENDBRANCH   5  21
TORSDOF 12
ENDMDL
MODEL 7
REMARK VINA RESULT:      -7.6      2.139      2.997
REMARK  Name = 
REMARK  15 active torsions:
REMARK  status: ('A' for Active; 'I' for Inactive)
REMARK    1  A    between atoms: C_2  and  C_3
REMARK    2  A    between atoms: C_3  and  C_4
REMARK    3  A    between atoms: C_3  and  C_5
REMARK    4  A    between atoms: C_3  and  C_30
REMARK    5  A    between atoms: C_6  and  C_7
REMARK    6  A    between atoms: C_10  and  O_11
REMARK    7  A    between atoms: C_12  and  C_13
REMARK    8  A    between atoms: C_14  and  C_15
REMARK    9  A    between atoms: N_17  and  C_18
REMARK   10  A    between atoms: C_18  and  C_19
REMARK   11  A    between atoms: C_22  and  C_23
REMARK   12  A    between atoms: C_30  and  C_31
REMARK   13  A    between atoms: C_31  and  C_32
REMARK   14  A    between atoms: C_33  and  C_34
REMARK   15  A    between atoms: C_33  and  C_35
REMARK                            x       y       z     vdW  Elec       q    Type
REMARK                         _______ _______ _______ _____ _____    ______ ____
ROOT
ATOM      1  C   UNL     1       8.493  13.789  18.136  0.00  0.00    +0.000 A 
ATOM      2  C   UNL     1       9.732  14.385  17.889  0.00  0.00    +0.000 A 
ATOM      3  C   UNL     1      10.863  13.600  17.670  0.00  0.00    +0.000 A 
ATOM      4  C   UNL     1      10.767  12.207  17.714  0.00  0.00    +0.000 A 
ATOM      5  C   UNL     1       9.547  11.572  17.998  0.00  0.00    +0.000 A 
ATOM      6  C   UNL     1       8.416  12.384  18.196  0.00  0.00    +0.000 A 
ENDROOT
BRANCH   1   8
ATOM      7  C   UNL     1       7.171  15.388  19.497  0.00  0.00    +0.000 C 
ATOM      8  C   UNL     1       7.332  14.660  18.377  0.00  0.00    +0.000 C 
BRANCH   7   9
ATOM      9  C   UNL     1       6.015  16.332  19.835  0.00  0.00    +0.000 C 
ATOM     10  C   UNL     1       4.990  16.274  18.681  0.00  0.00    +0.000 C 
BRANCH   9  12
ATOM     11  C   UNL     1       6.638  18.419  21.225  0.00  0.00    +0.000 C 
ATOM     12  C   UNL     1       6.540  17.754  20.064  0.00  0.00    +0.000 C 
ENDBRANCH   9  12
BRANCH   9  13
ATOM     13  C   UNL     1       5.326  15.872  21.162  0.00  0.00    +0.000 C 
BRANCH  13  14
ATOM     14  C   UNL     1       6.013  14.692  21.875  0.00  0.00    +0.000 C 
BRANCH  14  15
ATOM     15  C   UNL     1       6.536  15.050  23.235  0.00  0.00    +0.000 C 
ATOM     16  C   UNL     1       7.821  15.308  23.544  0.00  0.00    +0.000 C 
ATOM     17  C   UNL     1       8.944  15.378  22.542  0.00  0.00    +0.000 C 
ATOM     18  C   UNL     1       8.235  15.557  24.968  0.00  0.00    +0.000 C 
ENDBRANCH  14  15
ENDBRANCH  13  14
ENDBRANCH   9  13
ENDBRANCH   7   9
ENDBRANCH   1   8
BRANCH   4  19
ATOM     19  O   UNL     1      11.892  11.466  17.463  0.00  0.00    +0.000 OA
ATOM     20  H   UNL     1      12.422  11.416  18.274  0.00  0.00    +0.000 HD
ENDBRANCH   4  19
BRANCH   5  21
ATOM     21  C   UNL     1       9.357  10.107  18.050  0.00  0.00    +0.000 C 
ATOM     22  C   UNL     1       8.176   9.483  17.932  0.00  0.00    +0.000 C 
BRANCH  22  23
ATOM     23  C   UNL     1       8.085   8.005  17.983  0.00  0.00    +0.000 C 
ATOM     24  O   UNL     1       8.538   7.341  18.911  0.00  0.00    +0.000 OA
ATOM     25  N   UNL     1       7.454   7.471  16.886  0.00  0.00    +0.000 N 
ATOM     26  H   UNL     1       7.112   8.080  16.155  0.00  0.00    +0.000 HD
BRANCH  25  27
ATOM     27  C   UNL     1       7.251   6.049  16.719  0.00  0.00    +0.000 C 
BRANCH  27  28
ATOM     28  C   UNL     1       5.830   5.654  17.040  0.00  0.00    +0.000 A 
ATOM     29  C   UNL     1       5.435   4.312  16.951  0.00  0.00    +0.000 A 
ATOM     30  C   UNL     1       4.134   3.926  17.284  0.00  0.00    +0.000 A 
ATOM     31  C   UNL     1       3.200   4.873  17.726  0.00  0.00    +0.000 A 
ATOM     32  C   UNL     1       3.592   6.219  17.808  0.00  0.00    +0.000 A 
ATOM     33  C   UNL     1       4.894   6.604  17.469  0.00  0.00    +0.000 A 
BRANCH  31  34
ATOM     34  C   UNL     1       1.805   4.462  18.128  0.00  0.00    +0.000 C 
ATOM     35  F   UNL     1       0.875   4.656  17.152  0.00  0.00    +0.000 F 
ATOM     36  F   UNL     1       1.725   3.143  18.459  0.00  0.00    +0.000 F 
ATOM     37  F   UNL     1       1.351   5.146  19.216  0.00  0.00    +0.000 F 
ENDBRANCH  31  34
ENDBRANCH  27  28
ENDBRANCH  25  27
ENDBRANCH  22  23
ENDBRANCH   5  21
TORSDOF 12
ENDMDL
MODEL 8
REMARK VINA RESULT:      -7.6      3.900     10.154
REMARK  Name = 
REMARK  15 active torsions:
REMARK  status: ('A' for Active; 'I' for Inactive)
REMARK    1  A    between atoms: C_2  and  C_3
REMARK    2  A    between atoms: C_3  and  C_4
REMARK    3  A    between atoms: C_3  and  C_5
REMARK    4  A    between atoms: C_3  and  C_30
REMARK    5  A    between atoms: C_6  and  C_7
REMARK    6  A    between atoms: C_10  and  O_11
REMARK    7  A    between atoms: C_12  and  C_13
REMARK    8  A    between atoms: C_14  and  C_15
REMARK    9  A    between atoms: N_17  and  C_18
REMARK   10  A    between atoms: C_18  and  C_19
REMARK   11  A    between atoms: C_22  and  C_23
REMARK   12  A    between atoms: C_30  and  C_31
REMARK   13  A    between atoms: C_31  and  C_32
REMARK   14  A    between atoms: C_33  and  C_34
REMARK   15  A    between atoms: C_33  and  C_35
REMARK                            x       y       z     vdW  Elec       q    Type
REMARK                         _______ _______ _______ _____ _____    ______ ____
ROOT
ATOM      1  C   UNL     1       5.193   4.926  18.165  0.00  0.00    +0.000 A 
ATOM      2  C   UNL     1       5.258   4.062  17.071  0.00  0.00    +0.000 A 
ATOM      3  C   UNL     1       6.104   4.343  15.997  0.00  0.00    +0.000 A 
ATOM      4  C   UNL     1       6.881   5.503  16.004  0.00  0.00    +0.000 A 
ATOM      5  C   UNL     1       6.813   6.416  17.070  0.00  0.00    +0.000 A 
ATOM      6  C   UNL     1       5.967   6.102  18.149  0.00  0.00    +0.000 A 
ENDROOT
BRANCH   1   8
ATOM      7  C   UNL     1       2.940   4.511  19.117  0.00  0.00    +0.000 C 
ATOM      8  C   UNL     1       4.274   4.595  19.266  0.00  0.00    +0.000 C 
BRANCH   7   9
ATOM      9  C   UNL     1       1.904   4.159  20.187  0.00  0.00    +0.000 C 
ATOM     10  C   UNL     1       2.628   3.429  21.339  0.00  0.00    +0.000 C 
BRANCH   9  12
ATOM     11  C   UNL     1       0.889   2.358  18.637  0.00  0.00    +0.000 C 
ATOM     12  C   UNL     1       0.784   3.303  19.582  0.00  0.00    +0.000 C 
ENDBRANCH   9  12
BRANCH   9  13
ATOM     13  C   UNL     1       1.243   5.466  20.736  0.00  0.00    +0.000 C 
BRANCH  13  14
ATOM     14  C   UNL     1       2.141   6.717  20.687  0.00  0.00    +0.000 C 
BRANCH  14  15
ATOM     15  C   UNL     1       1.450   7.915  20.107  0.00  0.00    +0.000 C 
ATOM     16  C   UNL     1       0.936   8.946  20.805  0.00  0.00    +0.000 C 
ATOM     17  C   UNL     1       1.060   9.113  22.297  0.00  0.00    +0.000 C 
ATOM     18  C   UNL     1       0.175  10.042  20.112  0.00  0.00    +0.000 C 
ENDBRANCH  14  15
ENDBRANCH  13  14
ENDBRANCH   9  13
ENDBRANCH   7   9
ENDBRANCH   1   8
BRANCH   4  19
ATOM     19  O   UNL     1       7.724   5.732  14.948  0.00  0.00    +0.000 OA
ATOM     20  H   UNL     1       7.978   6.668  14.947  0.00  0.00    +0.000 HD
ENDBRANCH   4  19
BRANCH   5  21
ATOM     21  C   UNL     1       7.609   7.658  17.161  0.00  0.00    +0.000 C 
ATOM     22  C   UNL     1       7.665   8.455  18.238  0.00  0.00    +0.000 C 
BRANCH  22  23
ATOM     23  C   UNL     1       8.504   9.676  18.242  0.00  0.00    +0.000 C 
ATOM     24  O   UNL     1       8.441  10.531  17.362  0.00  0.00    +0.000 OA
ATOM     25  N   UNL     1       9.353   9.736  19.320  0.00  0.00    +0.000 N 
ATOM     26  H   UNL     1       9.355   8.991  20.002  0.00  0.00    +0.000 HD
BRANCH  25  27
ATOM     27  C   UNL     1      10.267  10.837  19.532  0.00  0.00    +0.000 C 
BRANCH  27  28
ATOM     28  C   UNL     1       9.806  11.725  20.662  0.00  0.00    +0.000 A 
ATOM     29  C   UNL     1      10.299  13.032  20.776  0.00  0.00    +0.000 A 
ATOM     30  C   UNL     1       9.852  13.879  21.794  0.00  0.00    +0.000 A 
ATOM     31  C   UNL     1       8.891  13.441  22.715  0.00  0.00    +0.000 A 
ATOM     32  C   UNL     1       8.401  12.129  22.606  0.00  0.00    +0.000 A 
ATOM     33  C   UNL     1       8.854  11.282  21.590  0.00  0.00    +0.000 A 
BRANCH  31  34
ATOM     34  C   UNL     1       8.369  14.360  23.792  0.00  0.00    +0.000 C 
ATOM     35  F   UNL     1       7.330  15.142  23.388  0.00  0.00    +0.000 F 
ATOM     36  F   UNL     1       7.918  13.680  24.884  0.00  0.00    +0.000 F 
ATOM     37  F   UNL     1       9.321  15.217  24.256  0.00  0.00    +0.000 F 
ENDBRANCH  31  34
ENDBRANCH  27  28
ENDBRANCH  25  27
ENDBRANCH  22  23
ENDBRANCH   5  21
TORSDOF 12
ENDMDL
MODEL 9
REMARK VINA RESULT:      -7.6      1.664      2.708
REMARK  Name = 
REMARK  15 active torsions:
REMARK  status: ('A' for Active; 'I' for Inactive)
REMARK    1  A    between atoms: C_2  and  C_3
REMARK    2  A    between atoms: C_3  and  C_4
REMARK    3  A    between atoms: C_3  and  C_5
REMARK    4  A    between atoms: C_3  and  C_30
REMARK    5  A    between atoms: C_6  and  C_7
REMARK    6  A    between atoms: C_10  and  O_11
REMARK    7  A    between atoms: C_12  and  C_13
REMARK    8  A    between atoms: C_14  and  C_15
REMARK    9  A    between atoms: N_17  and  C_18
REMARK   10  A    between atoms: C_18  and  C_19
REMARK   11  A    between atoms: C_22  and  C_23
REMARK   12  A    between atoms: C_30  and  C_31
REMARK   13  A    between atoms: C_31  and  C_32
REMARK   14  A    between atoms: C_33  and  C_34
REMARK   15  A    between atoms: C_33  and  C_35
REMARK                            x       y       z     vdW  Elec       q    Type
REMARK                         _______ _______ _______ _____ _____    ______ ____
ROOT
ATOM      1  C   UNL     1       9.511  12.088  20.919  0.00  0.00    +0.000 A 
ATOM      2  C   UNL     1      10.674  12.664  20.405  0.00  0.00    +0.000 A 
ATOM      3  C   UNL     1      11.173  12.264  19.166  0.00  0.00    +0.000 A 
ATOM      4  C   UNL     1      10.517  11.270  18.436  0.00  0.00    +0.000 A 
ATOM      5  C   UNL     1       9.367  10.640  18.938  0.00  0.00    +0.000 A 
ATOM      6  C   UNL     1       8.872  11.073  20.182  0.00  0.00    +0.000 A 
ENDROOT
BRANCH   1   8
ATOM      7  C   UNL     1       7.920  12.054  22.823  0.00  0.00    +0.000 C 
ATOM      8  C   UNL     1       9.033  12.532  22.239  0.00  0.00    +0.000 C 
BRANCH   7   9
ATOM      9  C   UNL     1       7.350  12.436  24.192  0.00  0.00    +0.000 C 
ATOM     10  C   UNL     1       8.484  12.329  25.235  0.00  0.00    +0.000 C 
BRANCH   9  12
ATOM     11  C   UNL     1       5.803  11.075  25.751  0.00  0.00    +0.000 C 
ATOM     12  C   UNL     1       6.161  11.533  24.543  0.00  0.00    +0.000 C 
ENDBRANCH   9  12
BRANCH   9  13
ATOM     13  C   UNL     1       6.820  13.908  24.154  0.00  0.00    +0.000 C 
BRANCH  13  14
ATOM     14  C   UNL     1       7.038  14.710  25.450  0.00  0.00    +0.000 C 
BRANCH  14  15
ATOM     15  C   UNL     1       5.793  14.843  26.276  0.00  0.00    +0.000 C 
ATOM     16  C   UNL     1       5.605  14.338  27.510  0.00  0.00    +0.000 C 
ATOM     17  C   UNL     1       6.664  13.629  28.314  0.00  0.00    +0.000 C 
ATOM     18  C   UNL     1       4.271  14.455  28.195  0.00  0.00    +0.000 C 
ENDBRANCH  14  15
ENDBRANCH  13  14
ENDBRANCH   9  13
ENDBRANCH   7   9
ENDBRANCH   1   8
BRANCH   4  19
ATOM     19  O   UNL     1      11.017  10.924  17.208  0.00  0.00    +0.000 OA
ATOM     20  H   UNL     1      11.937  10.638  17.313  0.00  0.00    +0.000 HD
ENDBRANCH   4  19
BRANCH   5  21
ATOM     21  C   UNL     1       8.608   9.590  18.226  0.00  0.00    +0.000 C 
ATOM     22  C   UNL     1       8.526   8.308  18.612  0.00  0.00    +0.000 C 
BRANCH  22  23
ATOM     23  C   UNL     1       7.728   7.328  17.840  0.00  0.00    +0.000 C 
ATOM     24  O   UNL     1       8.096   6.172  17.649  0.00  0.00    +0.000 OA
ATOM     25  N   UNL     1       6.553   7.854  17.362  0.00  0.00    +0.000 N 
ATOM     26  H   UNL     1       6.318   8.818  17.553  0.00  0.00    +0.000 HD
BRANCH  25  27
ATOM     27  C   UNL     1       5.613   7.081  16.580  0.00  0.00    +0.000 C 
BRANCH  27  28
ATOM     28  C   UNL     1       4.571   6.431  17.457  0.00  0.00    +0.000 A 
ATOM     29  C   UNL     1       4.759   5.122  17.922  0.00  0.00    +0.000 A 
ATOM     30  C   UNL     1       3.822   4.521  18.767  0.00  0.00    +0.000 A 
ATOM     31  C   UNL     1       2.680   5.222  19.177  0.00  0.00    +0.000 A 
ATOM     32  C   UNL     1       2.486   6.531  18.707  0.00  0.00    +0.000 A 
ATOM     33  C   UNL     1       3.423   7.128  17.857  0.00  0.00    +0.000 A 
BRANCH  31  34
ATOM     34  C   UNL     1       1.683   4.600  20.123  0.00  0.00    +0.000 C 
ATOM     35  F   UNL     1       2.250   3.799  21.068  0.00  0.00    +0.000 F 
ATOM     36  F   UNL     1       0.965   5.532  20.811  0.00  0.00    +0.000 F 
ATOM     37  F   UNL     1       0.765   3.824  19.481  0.00  0.00    +0.000 F 
ENDBRANCH  31  34
ENDBRANCH  27  28
ENDBRANCH  25  27
ENDBRANCH  22  23
ENDBRANCH   5  21
TORSDOF 12
ENDMDL
